@<TRIPOS>MOLECULE
3R540
247   249    1
SMALL
USER_CHARGES


@<TRIPOS>ATOM
      1 CA          0.0728  -11.6036  -52.4341 C.3       0 UNK        -0.1800 
      2 C           0.1064  -11.8536  -50.9328 C.2       0 UNK         0.5000 
      3 O           0.0170  -10.9072  -50.1503 O.2       0 UNK        -0.5000 
      4 N           0.2426  -13.1227  -50.5324 N.am      1 UNK        -0.5000 
      5 CA          0.2205  -13.5778  -49.1404 C.3       1 UNK         0.1400 
      6 C6          0.6776  -15.0546  -49.0093 C.3       23 UNK        -0.0398 
      7 S7          2.4566  -15.2728  -49.3481 S.3       23 UNK        -0.2404 
      8 C8          2.4752  -15.9318  -51.0497 C.3       23 UNK        -0.0205 
      9 C9          2.1892  -17.4282  -51.1370 C.ar      23 UNK        -0.0193 
     10 C10         1.1590  -17.9012  -51.9573 C.ar      23 UNK        -0.1150 
     11 C11         0.9398  -19.2749  -52.1125 C.ar      23 UNK        -0.0193 
     12 C12         1.7625  -20.1776  -51.4339 C.ar      23 UNK        -0.1150 
     13 C13         2.7890  -19.7228  -50.6016 C.ar      23 UNK        -0.0193 
     14 C14         3.0019  -18.3471  -50.4636 C.ar      23 UNK        -0.1150 
     15 C15         3.6808  -20.7266  -49.8796 C.3       23 UNK        -0.0205 
     16 S16         3.5758  -20.6000  -48.0645 S.3       23 UNK        -0.2404 
     17 C17         1.7989  -20.8757  -47.7429 C.3       23 UNK        -0.0398 
     18 CA          1.4862  -22.1544  -46.9184 C.3       11 UNK         0.1400 
     19 N           2.2358  -22.1737  -45.6648 N.am      11 UNK        -0.5000 
     20 C           2.7577  -23.2422  -45.0571 C.2       10 UNK         0.5000 
     21 O           2.7904  -24.3663  -45.5615 O.2       10 UNK        -0.5000 
     22 CA          3.3024  -23.0103  -43.6292 C.3       10 UNK         0.1400 
     23 CB          4.3743  -24.0383  -43.2098 C.3       10 UNK        -0.1800 
     24 N           3.7531  -21.6317  -43.3970 N.am      10 UNK        -0.5000 
     25 C           4.8004  -21.0037  -43.9550 C.2       9 UNK         0.5000 
     26 O           5.6119  -21.5575  -44.6977 O.2       9 UNK        -0.5000 
     27 CA          4.9765  -19.4992  -43.6504 C.3       9 UNK         0.1400 
     28 CB          4.8818  -18.6678  -44.9411 C.3       9 UNK        -0.1800 
     29 N           4.0032  -18.9770  -42.6884 N.am      9 UNK        -0.5000 
     30 C           4.0909  -19.0913  -41.3570 C.2       8 UNK         0.5000 
     31 O           5.0435  -19.6151  -40.7787 O.2       8 UNK        -0.5000 
     32 CA          2.8997  -18.5607  -40.5324 C.3       8 UNK         0.1400 
     33 CB          3.1034  -17.0809  -40.1746 C.3       8 UNK        -0.1800 
     34 N           1.6074  -18.7255  -41.2044 N.am      8 UNK        -0.5000 
     35 C           1.0481  -19.9087  -41.4983 C.2       7 UNK         0.5000 
     36 O           1.5496  -20.9929  -41.1999 O.2       7 UNK        -0.5000 
     37 CA         -0.2574  -19.8816  -42.3162 C.3       7 UNK         0.1400 
     38 CB         -1.4663  -19.6145  -41.4077 C.3       7 UNK        -0.1800 
     39 N          -0.2339  -18.9068  -43.4090 N.am      7 UNK        -0.5000 
     40 C           0.6563  -18.9194  -44.4120 C.2       6 UNK         0.5000 
     41 O           1.5567  -19.7481  -44.5154 O.2       6 UNK        -0.5000 
     42 CA          0.5781  -17.7785  -45.4365 C.3       6 UNK         0.1400 
     43 CB         -0.6340  -17.9531  -46.3638 C.3       6 UNK        -0.1800 
     44 N           0.5214  -16.4759  -44.7852 N.am      6 UNK        -0.5000 
     45 C           1.4652  -15.9705  -43.9800 C.2       5 UNK         0.5000 
     46 O           2.5399  -16.5218  -43.7453 O.2       5 UNK        -0.5000 
     47 CA          1.1179  -14.6492  -43.2755 C.3       5 UNK         0.1400 
     48 CB          1.3426  -13.4524  -44.2126 C.3       5 UNK        -0.1800 
     49 N          -0.2614  -14.6409  -42.7844 N.am      5 UNK        -0.5000 
     50 C          -0.7181  -15.4186  -41.7921 C.2       4 UNK         0.5000 
     51 O          -0.0149  -16.2090  -41.1623 O.2       4 UNK        -0.5000 
     52 CA         -2.2206  -15.3151  -41.4721 C.3       4 UNK         0.1400 
     53 CB         -2.4977  -14.1153  -40.5540 C.3       4 UNK        -0.1800 
     54 N          -3.0467  -15.2068  -42.6761 N.am      4 UNK        -0.5000 
     55 C          -3.2330  -16.2037  -43.5525 C.2       3 UNK         0.5000 
     56 O          -2.7412  -17.3250  -43.4277 O.2       3 UNK        -0.5000 
     57 CA         -4.0666  -15.8741  -44.8073 C.3       3 UNK         0.1400 
     58 CB         -5.5686  -15.9739  -44.5029 C.3       3 UNK        -0.1800 
     59 N          -3.7702  -14.5599  -45.3925 N.am      3 UNK        -0.5000 
     60 C          -2.5567  -14.1864  -45.8181 C.2       2 UNK         0.5000 
     61 O          -1.5504  -14.8824  -45.6815 O.2       2 UNK        -0.5000 
     62 CA         -2.4210  -12.7988  -46.4694 C.3       2 UNK         0.1400 
     63 CB         -2.2630  -11.7161  -45.3908 C.3       2 UNK        -0.1800 
     64 N          -1.2441  -12.7752  -47.3403 N.am      2 UNK        -0.5000 
     65 C          -1.1840  -13.3942  -48.5259 C.2       1 UNK         0.5000 
     66 O          -2.1730  -13.8435  -49.1076 O.2       1 UNK        -0.5000 
     67 C          -0.0256  -22.2350  -46.5913 C.2       11 UNK         0.5000 
     68 O          -0.4066  -22.3020  -45.4190 O.2       11 UNK        -0.5000 
     69 N          -0.8678  -22.1951  -47.6353 N.am      12 UNK        -0.5000 
     70 CA         -2.3348  -22.1497  -47.5670 C.3       12 UNK         0.1400 
     71 CB         -2.8306  -20.8160  -46.9686 C.3       12 UNK        -0.1800 
     72 C          -2.9547  -23.3917  -46.9004 C.2       12 UNK         0.5000 
     73 O          -3.8804  -23.2723  -46.0972 O.2       12 UNK        -0.5000 
     74 N          -2.4733  -24.5749  -47.3028 N.am      13 UNK        -0.5000 
     75 CA         -3.0439  -25.8762  -46.9440 C.3       13 UNK         0.1400 
     76 CB         -2.1268  -26.9888  -47.4727 C.3       13 UNK        -0.1800 
     77 C          -4.4816  -26.0586  -47.4735 C.2       13 UNK         0.5000 
     78 O          -5.2944  -26.7127  -46.8201 O.2       13 UNK        -0.5000 
     79 N          -4.7769  -25.4347  -48.6228 N.am      14 UNK        -0.5000 
     80 CA         -6.1126  -25.3496  -49.2170 C.3       14 UNK         0.1400 
     81 CB         -5.9553  -25.1714  -50.7366 C.3       14 UNK        -0.1800 
     82 C          -6.9728  -24.2081  -48.6285 C.2       14 UNK         0.5000 
     83 O          -8.1167  -24.0493  -49.0551 O.2       14 UNK        -0.5000 
     84 N          -6.4098  -23.4112  -47.7027 N.am      15 UNK        -0.5000 
     85 CA         -6.9816  -22.2016  -47.0898 C.3       15 UNK         0.1400 
     86 CB         -8.2291  -22.5420  -46.2483 C.3       15 UNK        -0.1800 
     87 C          -7.2322  -21.0610  -48.1036 C.2       15 UNK         0.5000 
     88 O          -8.0952  -20.2107  -47.8819 O.2       15 UNK        -0.5000 
     89 N          -6.4685  -21.0677  -49.2042 N.am      16 UNK        -0.5000 
     90 CA         -6.6467  -20.1891  -50.3618 C.3       16 UNK         0.1400 
     91 CB         -6.1910  -20.9628  -51.6059 C.3       16 UNK        -0.1800 
     92 C          -5.8895  -18.8500  -50.2535 C.2       16 UNK         0.5000 
     93 O          -6.0645  -17.9945  -51.1240 O.2       16 UNK        -0.5000 
     94 N          -5.0537  -18.7008  -49.2140 N.am      17 UNK        -0.5000 
     95 CA         -4.1869  -17.5615  -48.8803 C.3       17 UNK         0.1400 
     96 CB         -5.0085  -16.2928  -48.5786 C.3       17 UNK        -0.1800 
     97 C          -3.0808  -17.2992  -49.9207 C.2       17 UNK         0.5000 
     98 O          -1.9056  -17.4713  -49.6016 O.2       17 UNK        -0.5000 
     99 N          -3.4783  -16.9091  -51.1364 N.am      18 UNK        -0.5000 
    100 CA        -2.5965  -16.6511  -52.2729 C.3       18 UNK         0.1400 
    101 CB        -2.2138  -15.1627  -52.3019 C.3       18 UNK        -0.1800 
    102 C         -3.1904  -17.1003  -53.6203 C.2       18 UNK         0.5000 
    103 O         -2.5060  -16.9690  -54.6364 O.2       18 UNK        -0.5000 
    104 N         -4.4361  -17.5975  -53.6399 N.am      19 UNK        -0.5000 
    105 CA        -5.0921  -18.0644  -54.8597 C.3       19 UNK         0.1400 
    106 CB        -6.6155  -18.0426  -54.6622 C.3       19 UNK        -0.1800 
    107 C         -4.5990  -19.4671  -55.2597 C.2       19 UNK         0.5000 
    108 O         -4.5163  -20.3551  -54.4084 O.2       19 UNK        -0.5000 
    109 N         -4.3204  -19.6409  -56.5591 N.am      20 UNK        -0.5000 
    110 CA        -3.8476  -20.8717  -57.2008 C.3       20 UNK         0.1400 
    111 CB        -4.9711  -21.9348  -57.2119 C.3       20 UNK        -0.1800 
    112 C         -2.5075  -21.3721  -56.6120 C.2       20 UNK         0.5000 
    113 O         -1.6244  -20.5591  -56.3317 O.2       20 UNK        -0.5000 
    114 N         -2.3655  -22.6952  -56.4606 N.am      21 UNK        -0.5000 
    115 CA        -1.1788  -23.3563  -55.9119 C.3       21 UNK         0.1400 
    116 CB        -1.1451  -24.8040  -56.4282 C.3       21 UNK        -0.1800 
    117 C         -1.1188  -23.3329  -54.3707 C.2       21 UNK         0.5000 
    118 O         -0.0778  -23.6751  -53.8097 O.2       21 UNK        -0.5000 
    119 N         -2.2268  -22.9543  -53.7183 N.am      22 UNK        -0.5000 
    120 CA        -2.4094  -22.8643  -52.2577 C.3       22 UNK         0.1400 
    121 C         -2.4579  -24.2243  -51.4972 C.2       22 UNK         0.5000 
    122 N         -2.4418  -25.3692  -52.1658 N.am      22 UNK        -0.7600 
    123 O         -2.5718  -24.2423  -50.2740 O.2       22 UNK        -0.5000 
    124 C124       -1.4479  -21.8496  -51.5786 C.3       23 UNK        -0.0398 
    125 S125       -1.7041  -20.1461  -52.1711 S.3       23 UNK        -0.2404 
    126 C126       -0.1506  -19.7832  -53.0488 C.3       23 UNK        -0.0205 
    127 H127        0.1622  -12.5300  -53.0021 H         1 UNK         0.0600 
    128 H128        0.8926  -10.9463  -52.7239 H         1 UNK         0.0600 
    129 H129       -0.8655  -11.1241  -52.7131 H         1 UNK         0.0600 
    130 H130        0.2943  -13.8520  -51.2260 H         1 UNK         0.3000 
    131 H131        0.9204  -12.9553  -48.5784 H         1 UNK         0.0600 
    132 H132        0.5148  -15.4074  -47.9897 H         1 UNK         0.0800 
    133 H133        0.0913  -15.7109  -49.6544 H         1 UNK         0.0800 
    134 H134        3.4647  -15.7529  -51.4723 H         1 UNK         0.0800 
    135 H135        1.7792  -15.3632  -51.6671 H         1 UNK         0.0800 
    136 H136        0.5467  -17.1981  -52.5024 H         1 UNK         0.1150 
    137 H137        1.6154  -21.2392  -51.5650 H         1 UNK         0.1150 
    138 H138        3.8078  -17.9916  -49.8368 H         1 UNK         0.1150 
    139 H139        3.4366  -21.7485  -50.1739 H         1 UNK         0.0800 
    140 H140        4.7153  -20.5610  -50.1831 H         1 UNK         0.0800 
    141 H141        1.2637  -20.8965  -48.6916 H         1 UNK         0.0800 
    142 H142        1.4405  -19.9897  -47.2225 H         1 UNK         0.0800 
    143 H143        1.7482  -23.0289  -47.5171 H         1 UNK         0.0600 
    144 H144        2.1838  -21.3036  -45.1379 H         1 UNK         0.3000 
    145 H145        2.4475  -23.1497  -42.9662 H         1 UNK         0.0600 
    146 H146        4.7395  -23.8389  -42.2024 H         1 UNK         0.0600 
    147 H147        3.9651  -25.0491  -43.2111 H         1 UNK         0.0600 
    148 H148        5.2295  -24.0348  -43.8856 H         1 UNK         0.0600 
    149 H149        3.1386  -21.0761  -42.8148 H         1 UNK         0.3000 
    150 H150        5.9799  -19.3692  -43.2402 H         1 UNK         0.0600 
    151 H151        5.6233  -18.9895  -45.6734 H         1 UNK         0.0600 
    152 H152        5.0582  -17.6105  -44.7434 H         1 UNK         0.0600 
    153 H153        3.9012  -18.7603  -45.4085 H         1 UNK         0.0600 
    154 H154        3.2002  -18.4991  -43.0822 H         1 UNK         0.3000 
    155 H155        2.8648  -19.1317  -39.6023 H         1 UNK         0.0600 
    156 H156        4.0472  -16.9316  -39.6488 H         1 UNK         0.0600 
    157 H157        2.3073  -16.7199  -39.5231 H         1 UNK         0.0600 
    158 H158        3.1188  -16.4502  -41.0637 H         1 UNK         0.0600 
    159 H159        1.1110  -17.8746  -41.4506 H         1 UNK         0.3000 
    160 H160       -0.3833  -20.8689  -42.7658 H         1 UNK         0.0600 
    161 H161       -1.4271  -18.6179  -40.9675 H         1 UNK         0.0600 
    162 H162       -1.5083  -20.3349  -40.5900 H         1 UNK         0.0600 
    163 H163       -2.4009  -19.6985  -41.9627 H         1 UNK         0.0600 
    164 H164       -0.9652  -18.2020  -43.4041 H         1 UNK         0.3000 
    165 H165        1.4837  -17.8028  -46.0461 H         1 UNK         0.0600 
    166 H166       -0.6946  -17.1527  -47.0992 H         1 UNK         0.0600 
    167 H167       -0.5678  -18.8888  -46.9161 H         1 UNK         0.0600 
    168 H168       -1.5730  -17.9630  -45.8108 H         1 UNK         0.0600 
    169 H169       -0.3146  -15.9209  -44.9627 H         1 UNK         0.3000 
    170 H170        1.7847  -14.5410  -42.4173 H         1 UNK         0.0600 
    171 H171        2.3785  -13.4153  -44.5518 H         1 UNK         0.0600 
    172 H172        0.7114  -13.5077  -45.0993 H         1 UNK         0.0600 
    173 H173        1.1321  -12.5098  -43.7072 H         1 UNK         0.0600 
    174 H174       -0.9187  -14.0635  -43.2856 H         1 UNK         0.3000 
    175 H175       -2.5100  -16.2238  -40.9396 H         1 UNK         0.0600 
    176 H176       -1.9054  -14.1789  -39.6402 H         1 UNK         0.0600 
    177 H177       -2.2530  -13.1694  -41.0388 H         1 UNK         0.0600 
    178 H178       -3.5464  -14.0798  -40.2581 H         1 UNK         0.0600 
    179 H179       -3.4820  -14.3147  -42.8580 H         1 UNK         0.3000 
    180 H180       -3.8253  -16.6264  -45.5612 H         1 UNK         0.0600 
    181 H181       -5.8195  -16.9539  -44.0946 H         1 UNK         0.0600 
    182 H182       -5.8833  -15.2246  -43.7756 H         1 UNK         0.0600 
    183 H183       -6.1658  -15.8372  -45.4043 H         1 UNK         0.0600 
    184 H184       -4.5517  -13.9321  -45.5143 H         1 UNK         0.3000 
    185 H185       -3.3153  -12.5909  -47.0606 H         1 UNK         0.0600 
    186 H186       -3.1344  -11.6846  -44.7355 H         1 UNK         0.0600 
    187 H187       -1.3875  -11.8917  -44.7644 H         1 UNK         0.0600 
    188 H188       -2.1605  -10.7275  -45.8387 H         1 UNK         0.0600 
    189 H189       -0.3903  -12.4371  -46.9225 H         1 UNK         0.3000 
    190 H190       -0.4788  -22.1842  -48.5663 H         1 UNK         0.3000 
    191 H191       -2.6993  -22.1752  -48.5924 H         1 UNK         0.0600 
    192 H192       -2.4759  -20.6653  -45.9485 H         1 UNK         0.0600 
    193 H193       -3.9194  -20.7724  -46.9432 H         1 UNK         0.0600 
    194 H194       -2.4940  -19.9756  -47.5738 H         1 UNK         0.0600 
    195 H195       -1.7583  -24.5800  -48.0171 H         1 UNK         0.3000 
    196 H196       -3.0777  -25.9426  -45.8546 H         1 UNK         0.0600 
    197 H197       -2.5142  -27.9735  -47.2077 H         1 UNK         0.0600 
    198 H198       -1.1255  -26.9091  -47.0488 H         1 UNK         0.0600 
    199 H199       -2.0359  -26.9520  -48.5592 H         1 UNK         0.0600 
    200 H200       -4.0283  -24.9560  -49.1157 H         1 UNK         0.3000 
    201 H201       -6.6446  -26.2861  -49.0375 H         1 UNK         0.0600 
    202 H202       -6.9242  -25.1859  -51.2373 H         1 UNK         0.0600 
    203 H203       -5.4745  -24.2243  -50.9828 H         1 UNK         0.0600 
    204 H204       -5.3572  -25.9738  -51.1691 H         1 UNK         0.0600 
    205 H205       -5.4831  -23.6509  -47.3703 H         1 UNK         0.3000 
    206 H206       -6.2233  -21.8252  -46.4023 H         1 UNK         0.0600 
    207 H207       -8.0210  -23.3482  -45.5447 H         1 UNK         0.0600 
    208 H208       -8.5540  -21.6801  -45.6644 H         1 UNK         0.0600 
    209 H209       -9.0698  -22.8480  -46.8712 H         1 UNK         0.0600 
    210 H210       -5.7938  -21.8101  -49.3052 H         1 UNK         0.3000 
    211 H211       -7.7081  -19.9585  -50.4754 H         1 UNK         0.0600 
    212 H212       -6.4620  -20.4318  -52.5161 H         1 UNK         0.0600 
    213 H213       -6.6568  -21.9469  -51.6612 H         1 UNK         0.0600 
    214 H214       -5.1100  -21.0949  -51.6175 H         1 UNK         0.0600 
    215 H215       -4.9907  -19.4837  -48.5817 H         1 UNK         0.3000 
    216 H216       -3.6800  -17.8353  -47.9537 H         1 UNK         0.0600 
    217 H217       -5.5689  -15.9452  -49.4464 H         1 UNK         0.0600 
    218 H218       -4.3571  -15.4764  -48.2648 H         1 UNK         0.0600 
    219 H219       -5.7201  -16.4701  -47.7727 H         1 UNK         0.0600 
    220 H220       -4.4770  -16.8523  -51.3010 H         1 UNK         0.3000 
    221 H221       -1.6833  -17.2307  -52.1470 H         1 UNK         0.0600 
    222 H222       -3.0936  -14.5216  -52.3630 H         1 UNK         0.0600 
    223 H223       -1.6646  -14.8954  -51.4032 H         1 UNK         0.0600 
    224 H224       -1.5713  -14.9297  -53.1518 H         1 UNK         0.0600 
    225 H225       -4.9379  -17.7585  -52.7749 H         1 UNK         0.3000 
    226 H226       -4.8596  -17.3678  -55.6683 H         1 UNK         0.0600 
    227 H227       -6.9704  -17.0305  -54.4669 H         1 UNK         0.0600 
    228 H228       -7.1307  -18.4016  -55.5540 H         1 UNK         0.0600 
    229 H229       -6.9284  -18.6684  -53.8281 H         1 UNK         0.0600 
    230 H230       -4.3892  -18.8398  -57.1707 H         1 UNK         0.3000 
    231 H231       -3.6362  -20.6089  -58.2381 H         1 UNK         0.0600 
    232 H232       -5.8940  -21.5206  -57.6183 H         1 UNK         0.0600 
    233 H233       -5.1919  -22.3081  -56.2111 H         1 UNK         0.0600 
    234 H234       -4.7076  -22.7878  -57.8382 H         1 UNK         0.0600 
    235 H235       -3.1343  -23.2954  -56.7227 H         1 UNK         0.3000 
    236 H236       -0.2870  -22.8441  -56.2793 H         1 UNK         0.0600 
    237 H237       -1.1205  -24.8334  -57.5177 H         1 UNK         0.0600 
    238 H238       -0.2567  -25.3273  -56.0719 H         1 UNK         0.0600 
    239 H239       -2.0155  -25.3712  -56.0962 H         1 UNK         0.0600 
    240 H240       -3.0206  -22.6592  -54.2688 H         1 UNK         0.3000 
    241 H241       -3.4188  -22.4755  -52.1380 H         1 UNK         0.0600 
    242 H242       -2.4879  -26.2384  -51.6597 H         1 UNK         0.3800 
    243 H243       -2.3602  -25.3760  -53.1688 H         1 UNK         0.3800 
    244 H244       -1.6086  -21.8196  -50.5040 H         1 UNK         0.0800 
    245 H245       -0.4121  -22.1545  -51.7133 H         1 UNK         0.0800 
    246 H246        0.1907  -20.6691  -53.5858 H         1 UNK         0.0800 
    247 H247       -0.3587  -19.0348  -53.8152 H         1 UNK         0.0800 
@<TRIPOS>BOND
     1    1    2 1    
     2    1  127 1    
     3    1  128 1    
     4    1  129 1    
     5    2    3 2    
     6    2    4 am   BACKBONE|DICT|INTERRES
     7    4    5 1    
     8    4  130 1    
     9    5    6 1    
    10    5   65 1    
    11    5  131 1    
    12    6    7 1    
    13    6  132 1    
    14    6  133 1    
    15    7    8 1    
    16    8    9 1    
    17    8  134 1    
    18    8  135 1    
    19    9   10 ar   
    20    9   14 ar   
    21   10   11 ar   
    22   10  136 1    
    23   11   12 ar   
    24   11  126 1    
    25   12   13 ar   
    26   12  137 1    
    27   13   14 ar   
    28   13   15 1    
    29   14  138 1    
    30   15   16 1    
    31   15  139 1    
    32   15  140 1    
    33   16   17 1    
    34   17   18 1    
    35   17  141 1    
    36   17  142 1    
    37   18   19 1    
    38   18   67 1    
    39   18  143 1    
    40   19   20 am   BACKBONE|DICT|INTERRES
    41   19  144 1    
    42   20   21 2    
    43   20   22 1    
    44   22   23 1    
    45   22   24 1    
    46   22  145 1    
    47   23  146 1    
    48   23  147 1    
    49   23  148 1    
    50   24   25 am   BACKBONE|DICT|INTERRES
    51   24  149 1    
    52   25   26 2    
    53   25   27 1    
    54   27   28 1    
    55   27   29 1    
    56   27  150 1    
    57   28  151 1    
    58   28  152 1    
    59   28  153 1    
    60   29   30 am   BACKBONE|DICT|INTERRES
    61   29  154 1    
    62   30   31 2    
    63   30   32 1    
    64   32   33 1    
    65   32   34 1    
    66   32  155 1    
    67   33  156 1    
    68   33  157 1    
    69   33  158 1    
    70   34   35 am   BACKBONE|DICT|INTERRES
    71   34  159 1    
    72   35   36 2    
    73   35   37 1    
    74   37   38 1    
    75   37   39 1    
    76   37  160 1    
    77   38  161 1    
    78   38  162 1    
    79   38  163 1    
    80   39   40 am   BACKBONE|DICT|INTERRES
    81   39  164 1    
    82   40   41 2    
    83   40   42 1    
    84   42   43 1    
    85   42   44 1    
    86   42  165 1    
    87   43  166 1    
    88   43  167 1    
    89   43  168 1    
    90   44   45 am   BACKBONE|DICT|INTERRES
    91   44  169 1    
    92   45   46 2    
    93   45   47 1    
    94   47   48 1    
    95   47   49 1    
    96   47  170 1    
    97   48  171 1    
    98   48  172 1    
    99   48  173 1    
   100   49   50 am   BACKBONE|DICT|INTERRES
   101   49  174 1    
   102   50   51 2    
   103   50   52 1    
   104   52   53 1    
   105   52   54 1    
   106   52  175 1    
   107   53  176 1    
   108   53  177 1    
   109   53  178 1    
   110   54   55 am   BACKBONE|DICT|INTERRES
   111   54  179 1    
   112   55   56 2    
   113   55   57 1    
   114   57   58 1    
   115   57   59 1    
   116   57  180 1    
   117   58  181 1    
   118   58  182 1    
   119   58  183 1    
   120   59   60 am   BACKBONE|DICT|INTERRES
   121   59  184 1    
   122   60   61 2    
   123   60   62 1    
   124   62   63 1    
   125   62   64 1    
   126   62  185 1    
   127   63  186 1    
   128   63  187 1    
   129   63  188 1    
   130   64   65 am   BACKBONE|DICT|INTERRES
   131   64  189 1    
   132   65   66 2    
   133   67   68 2    
   134   67   69 am   BACKBONE|DICT|INTERRES
   135   69   70 1    
   136   69  190 1    
   137   70   71 1    
   138   70   72 1    
   139   70  191 1    
   140   71  192 1    
   141   71  193 1    
   142   71  194 1    
   143   72   73 2    
   144   72   74 am   BACKBONE|DICT|INTERRES
   145   74   75 1    
   146   74  195 1    
   147   75   76 1    
   148   75   77 1    
   149   75  196 1    
   150   76  197 1    
   151   76  198 1    
   152   76  199 1    
   153   77   78 2    
   154   77   79 am   BACKBONE|DICT|INTERRES
   155   79   80 1    
   156   79  200 1    
   157   80   81 1    
   158   80   82 1    
   159   80  201 1    
   160   81  202 1    
   161   81  203 1    
   162   81  204 1    
   163   82   83 2    
   164   82   84 am   BACKBONE|DICT|INTERRES
   165   84   85 1    
   166   84  205 1    
   167   85   86 1    
   168   85   87 1    
   169   85  206 1    
   170   86  207 1    
   171   86  208 1    
   172   86  209 1    
   173   87   88 2    
   174   87   89 am   BACKBONE|DICT|INTERRES
   175   89   90 1    
   176   89  210 1    
   177   90   91 1    
   178   90   92 1    
   179   90  211 1    
   180   91  212 1    
   181   91  213 1    
   182   91  214 1    
   183   92   93 2    
   184   92   94 am   BACKBONE|DICT|INTERRES
   185   94   95 1    
   186   94  215 1    
   187   95   96 1    
   188   95   97 1    
   189   95  216 1    
   190   96  217 1    
   191   96  218 1    
   192   96  219 1    
   193   97   98 2    
   194   97   99 am   BACKBONE|DICT|INTERRES
   195   99  100 1    
   196   99  220 1    
   197  100  101 1    
   198  100  102 1    
   199  100  221 1    
   200  101  222 1    
   201  101  223 1    
   202  101  224 1    
   203  102  103 2    
   204  102  104 am   BACKBONE|DICT|INTERRES
   205  104  105 1    
   206  104  225 1    
   207  105  106 1    
   208  105  107 1    
   209  105  226 1    
   210  106  227 1    
   211  106  228 1    
   212  106  229 1    
   213  107  108 2    
   214  107  109 am   BACKBONE|DICT|INTERRES
   215  109  110 1    
   216  109  230 1    
   217  110  111 1    
   218  110  112 1    
   219  110  231 1    
   220  111  232 1    
   221  111  233 1    
   222  111  234 1    
   223  112  113 2    
   224  112  114 am   BACKBONE|DICT|INTERRES
   225  114  115 1    
   226  114  235 1    
   227  115  116 1    
   228  115  117 1    
   229  115  236 1    
   230  116  237 1    
   231  116  238 1    
   232  116  239 1    
   233  117  118 2    
   234  117  119 am   BACKBONE|DICT|INTERRES
   235  119  120 1    
   236  119  240 1    
   237  120  121 1    
   238  120  124 1    
   239  120  241 1    
   240  121  122 am   BACKBONE|DICT|INTERRES
   241  121  123 2    
   242  122  242 1    
   243  122  243 1    
   244  124  125 1    
   245  124  244 1    
   246  124  245 1    
   247  125  126 1    
   248  126  246 1    
   249  126  247 1    
@<TRIPOS>SUBSTRUCTURE
     1 UNK         1 GROUP             0       ****    0 ROOT    
