@<TRIPOS>MOLECULE
3R540
247   249    1
SMALL
USER_CHARGES


@<TRIPOS>ATOM
      1 CA          3.1028  -13.3228  -48.6132 C.3       0 UNK        -0.1800 
      2 C           2.5811  -14.3788  -47.6432 C.2       0 UNK         0.5000 
      3 O           1.4778  -14.2266  -47.1267 O.2       0 UNK        -0.5000 
      4 N           3.3219  -15.4576  -47.3598 N.am      1 UNK        -0.5000 
      5 CA          4.6614  -15.7882  -47.8720 C.3       1 UNK         0.1400 
      6 C6          4.6456  -16.9971  -48.8474 C.3       23 UNK        -0.0398 
      7 S7          3.5545  -16.7363  -50.2880 S.3       23 UNK        -0.2404 
      8 C8          2.1290  -17.7630  -49.8200 C.3       23 UNK        -0.0205 
      9 C9          0.8485  -17.2649  -50.4670 C.ar      23 UNK        -0.0193 
     10 C10         0.4435  -17.7478  -51.7152 C.ar      23 UNK        -0.1150 
     11 C11        -0.7724  -17.3411  -52.2770 C.ar      23 UNK        -0.0193 
     12 C12        -1.5706  -16.4278  -51.5805 C.ar      23 UNK        -0.1150 
     13 C13        -1.1793  -15.9447  -50.3304 C.ar      23 UNK        -0.0193 
     14 C14         0.0415  -16.3495  -49.7882 C.ar      23 UNK        -0.1150 
     15 C15        -2.1045  -15.0289  -49.5468 C.3       23 UNK        -0.0205 
     16 S16        -3.3948  -15.9870  -48.6853 S.3       23 UNK        -0.2404 
     17 C17        -2.4541  -16.7282  -47.3071 C.3       23 UNK        -0.0398 
     18 CA         -1.9142  -18.1526  -47.5921 C.3       11 UNK         0.1400 
     19 N          -0.8695  -18.5212  -46.6353 N.am      11 UNK        -0.5000 
     20 C          -0.0755  -19.5959  -46.7287 C.2       10 UNK         0.5000 
     21 O          -0.1032  -20.3913  -47.6656 O.2       10 UNK        -0.5000 
     22 CA          0.8762  -19.8540  -45.5467 C.3       10 UNK         0.1400 
     23 CB          2.1165  -18.9492  -45.6302 C.3       10 UNK        -0.1800 
     24 N           0.2158  -19.6747  -44.2527 N.am      10 UNK        -0.5000 
     25 C          -0.8272  -20.3987  -43.8208 C.2       9 UNK         0.5000 
     26 O          -1.3149  -21.3383  -44.4469 O.2       9 UNK        -0.5000 
     27 CA         -1.4688  -19.9696  -42.4912 C.3       9 UNK         0.1400 
     28 CB         -0.6938  -20.5364  -41.2920 C.3       9 UNK        -0.1800 
     29 N          -1.5690  -18.5153  -42.3767 N.am      9 UNK        -0.5000 
     30 C          -2.3908  -17.7538  -43.1124 C.2       8 UNK         0.5000 
     31 O          -3.1735  -18.2009  -43.9514 O.2       8 UNK        -0.5000 
     32 CA         -2.2835  -16.2315  -42.9061 C.3       8 UNK         0.1400 
     33 CB         -3.0597  -15.7946  -41.6549 C.3       8 UNK        -0.1800 
     34 N          -0.8979  -15.7708  -42.8032 N.am      8 UNK        -0.5000 
     35 C           0.0033  -15.8655  -43.7906 C.2       7 UNK         0.5000 
     36 O          -0.2429  -16.3436  -44.8961 O.2       7 UNK        -0.5000 
     37 CA          1.4323  -15.3974  -43.4693 C.3       7 UNK         0.1400 
     38 CB          1.5277  -13.8690  -43.5795 C.3       7 UNK        -0.1800 
     39 N           1.9087  -15.8115  -42.1481 N.am      7 UNK        -0.5000 
     40 C           1.9405  -17.0619  -41.6664 C.2       6 UNK         0.5000 
     41 O           1.5227  -18.0392  -42.2855 O.2       6 UNK        -0.5000 
     42 CA          2.5282  -17.2630  -40.2590 C.3       6 UNK         0.1400 
     43 CB          3.9943  -17.7107  -40.3544 C.3       6 UNK        -0.1800 
     44 N           2.4649  -16.0427  -39.4534 N.am      6 UNK        -0.5000 
     45 C           1.5794  -15.8034  -38.4783 C.2       5 UNK         0.5000 
     46 O           0.6985  -16.5970  -38.1453 O.2       5 UNK        -0.5000 
     47 CA          1.6981  -14.4547  -37.7375 C.3       5 UNK         0.1400 
     48 CB          2.5497  -14.6166  -36.4690 C.3       5 UNK        -0.1800 
     49 N           2.2672  -13.3805  -38.5550 N.am      5 UNK        -0.5000 
     50 C           1.6335  -12.7871  -39.5750 C.2       4 UNK         0.5000 
     51 O           0.4845  -13.0667  -39.9188 O.2       4 UNK        -0.5000 
     52 CA          2.4189  -11.7182  -40.3655 C.3       4 UNK         0.1400 
     53 CB          2.1935  -10.3305  -39.7459 C.3       4 UNK        -0.1800 
     54 N           3.8650  -11.9414  -40.5214 N.am      4 UNK        -0.5000 
     55 C           4.4529  -13.0718  -40.9350 C.2       3 UNK         0.5000 
     56 O           3.8664  -14.1499  -41.0334 O.2       3 UNK        -0.5000 
     57 CA          5.9516  -13.0002  -41.2866 C.3       3 UNK         0.1400 
     58 CB          6.8042  -13.2049  -40.0254 C.3       3 UNK        -0.1800 
     59 N           6.3129  -14.0232  -42.2738 N.am      3 UNK        -0.5000 
     60 C           5.8326  -14.0769  -43.5240 C.2       2 UNK         0.5000 
     61 O           5.1769  -13.1679  -44.0428 O.2       2 UNK        -0.5000 
     62 CA          6.1082  -15.3675  -44.3164 C.3       2 UNK         0.1400 
     63 CB          5.6729  -16.6271  -43.5386 C.3       2 UNK        -0.1800 
     64 N           5.3778  -15.2990  -45.5774 N.am      2 UNK        -0.5000 
     65 C           5.6215  -16.0124  -46.6824 C.2       1 UNK         0.5000 
     66 O           6.5431  -16.8250  -46.7723 O.2       1 UNK        -0.5000 
     67 C          -3.0288  -19.2145  -47.6663 C.2       11 UNK         0.5000 
     68 O          -3.3987  -19.6251  -48.7665 O.2       11 UNK        -0.5000 
     69 N          -3.5019  -19.6864  -46.5029 N.am      12 UNK        -0.5000 
     70 CA         -4.4862  -20.7646  -46.3955 C.3       12 UNK         0.1400 
     71 CB         -4.9061  -20.9414  -44.9288 C.3       12 UNK        -0.1800 
     72 C          -3.9811  -22.0926  -46.9895 C.2       12 UNK         0.5000 
     73 O          -4.7113  -22.7327  -47.7460 O.2       12 UNK        -0.5000 
     74 N          -2.7313  -22.4594  -46.6731 N.am      13 UNK        -0.5000 
     75 CA         -2.0540  -23.6422  -47.2023 C.3       13 UNK         0.1400 
     76 CB         -0.7125  -23.8420  -46.4814 C.3       13 UNK        -0.1800 
     77 C          -1.8542  -23.5799  -48.7258 C.2       13 UNK         0.5000 
     78 O          -2.1566  -24.5561  -49.4103 O.2       13 UNK        -0.5000 
     79 N          -1.3870  -22.4309  -49.2334 N.am      14 UNK        -0.5000 
     80 CA         -1.1881  -22.1767  -50.6610 C.3       14 UNK         0.1400 
     81 CB         -0.4644  -20.8381  -50.8510 C.3       14 UNK        -0.1800 
     82 C          -2.4973  -22.2014  -51.4681 C.2       14 UNK         0.5000 
     83 O          -2.5060  -22.7208  -52.5831 O.2       14 UNK        -0.5000 
     84 N          -3.5798  -21.6707  -50.8838 N.am      15 UNK        -0.5000 
     85 CA         -4.9224  -21.7132  -51.4559 C.3       15 UNK         0.1400 
     86 CB         -5.8424  -20.7669  -50.6706 C.3       15 UNK        -0.1800 
     87 C          -5.5025  -23.1393  -51.4915 C.2       15 UNK         0.5000 
     88 O          -6.1227  -23.5155  -52.4877 O.2       15 UNK        -0.5000 
     89 N          -5.2909  -23.9040  -50.4113 N.am      16 UNK        -0.5000 
     90 CA         -5.7437  -25.2876  -50.2742 C.3       16 UNK         0.1400 
     91 CB         -5.6220  -25.7242  -48.8067 C.3       16 UNK        -0.1800 
     92 C          -4.9918  -26.2668  -51.1930 C.2       16 UNK         0.5000 
     93 O          -5.6188  -27.1797  -51.7333 O.2       16 UNK        -0.5000 
     94 N          -3.6755  -26.0638  -51.3548 N.am      17 UNK        -0.5000 
     95 CA         -2.7723  -26.8677  -52.1821 C.3       17 UNK         0.1400 
     96 CB         -1.3553  -26.2756  -52.1202 C.3       17 UNK        -0.1800 
     97 C          -3.2590  -26.9784  -53.6379 C.2       17 UNK         0.5000 
     98 O          -3.2953  -25.9732  -54.3491 O.2       17 UNK        -0.5000 
     99 N          -3.6868  -28.1906  -54.0216 N.am      18 UNK        -0.5000 
    100 CA        -4.2865  -28.5567  -55.3129 C.3       18 UNK         0.1400 
    101 CB        -3.2320  -28.4666  -56.4359 C.3       18 UNK        -0.1800 
    102 C         -5.5763  -27.7747  -55.6591 C.2       18 UNK         0.5000 
    103 O         -5.9576  -27.7252  -56.8298 O.2       18 UNK        -0.5000 
    104 N         -6.2138  -27.1692  -54.6431 N.am      19 UNK        -0.5000 
    105 CA        -7.3430  -26.2382  -54.7277 C.3       19 UNK         0.1400 
    106 CB        -8.6316  -26.9837  -55.1319 C.3       19 UNK        -0.1800 
    107 C         -7.0457  -25.0092  -55.6174 C.2       19 UNK         0.5000 
    108 O         -7.9248  -24.5535  -56.3516 O.2       19 UNK        -0.5000 
    109 N         -5.8038  -24.5030  -55.5497 N.am      20 UNK        -0.5000 
    110 CA        -5.3110  -23.3713  -56.3396 C.3       20 UNK         0.1400 
    111 CB        -3.7971  -23.2292  -56.1277 C.3       20 UNK        -0.1800 
    112 C         -6.0181  -22.0348  -56.0434 C.2       20 UNK         0.5000 
    113 O         -6.0531  -21.1698  -56.9194 O.2       20 UNK        -0.5000 
    114 N         -6.5570  -21.8859  -54.8246 N.am      21 UNK        -0.5000 
    115 CA        -7.3715  -20.7840  -54.2936 C.3       21 UNK         0.1400 
    116 CB        -8.6708  -20.6220  -55.1050 C.3       21 UNK        -0.1800 
    117 C         -6.6546  -19.4269  -54.1285 C.2       21 UNK         0.5000 
    118 O         -7.0208  -18.6743  -53.2260 O.2       21 UNK        -0.5000 
    119 N         -5.6678  -19.1327  -54.9837 N.am      22 UNK        -0.5000 
    120 CA        -4.9000  -17.8750  -55.0486 C.3       22 UNK         0.1400 
    121 C         -5.7392  -16.6306  -55.4830 C.2       22 UNK         0.5000 
    122 N         -6.9045  -16.7995  -56.0968 N.am      22 UNK        -0.7600 
    123 O         -5.3189  -15.4916  -55.2974 O.2       22 UNK        -0.5000 
    124 C124       -4.0425  -17.6113  -53.7770 C.3       23 UNK        -0.0398 
    125 S125       -2.7529  -18.8814  -53.5147 S.3       23 UNK        -0.2404 
    126 C126       -1.2183  -17.8953  -53.6271 C.3       23 UNK        -0.0205 
    127 H127        3.9858  -12.8296  -48.2069 H         1 UNK         0.0600 
    128 H128        2.3449  -12.5595  -48.7903 H         1 UNK         0.0600 
    129 H129        3.3551  -13.7674  -49.5756 H         1 UNK         0.0600 
    130 H130        2.9492  -16.1271  -46.7036 H         1 UNK         0.3000 
    131 H131        5.0856  -14.9421  -48.4126 H         1 UNK         0.0600 
    132 H132        5.6488  -17.1792  -49.2367 H         1 UNK         0.0800 
    133 H133        4.3575  -17.9118  -48.3265 H         1 UNK         0.0800 
    134 H134        2.0048  -17.7587  -48.7361 H         1 UNK         0.0800 
    135 H135        2.3189  -18.7999  -50.1013 H         1 UNK         0.0800 
    136 H136        1.0682  -18.4586  -52.2373 H         1 UNK         0.1150 
    137 H137       -2.5176  -16.1108  -51.9878 H         1 UNK         0.1150 
    138 H138        0.3402  -15.9895  -48.8141 H         1 UNK         0.1150 
    139 H139       -1.5422  -14.4255  -48.8321 H         1 UNK         0.0800 
    140 H140       -2.5833  -14.3252  -50.2293 H         1 UNK         0.0800 
    141 H141       -3.0818  -16.7263  -46.4145 H         1 UNK         0.0800 
    142 H142       -1.6243  -16.0582  -47.0802 H         1 UNK         0.0800 
    143 H143       -1.4407  -18.1521  -48.5729 H         1 UNK         0.0600 
    144 H144       -0.7366  -17.8873  -45.8511 H         1 UNK         0.3000 
    145 H145        1.2083  -20.8924  -45.6067 H         1 UNK         0.0600 
    146 H146        2.8071  -19.1491  -44.8105 H         1 UNK         0.0600 
    147 H147        2.6583  -19.1172  -46.5616 H         1 UNK         0.0600 
    148 H148        1.8500  -17.8937  -45.5911 H         1 UNK         0.0600 
    149 H149        0.5856  -18.9491  -43.6434 H         1 UNK         0.3000 
    150 H150       -2.4800  -20.3809  -42.4618 H         1 UNK         0.0600 
    151 H151       -0.6497  -21.6252  -41.3393 H         1 UNK         0.0600 
    152 H152       -1.1753  -20.2715  -40.3507 H         1 UNK         0.0600 
    153 H153        0.3322  -20.1700  -41.2585 H         1 UNK         0.0600 
    154 H154       -0.9072  -18.0626  -41.7636 H         1 UNK         0.3000 
    155 H155       -2.7347  -15.7470  -43.7747 H         1 UNK         0.0600 
    156 H156       -2.6333  -16.2199  -40.7455 H         1 UNK         0.0600 
    157 H157       -4.1012  -16.1140  -41.7106 H         1 UNK         0.0600 
    158 H158       -3.0586  -14.7095  -41.5497 H         1 UNK         0.0600 
    159 H159       -0.6071  -15.3723  -41.9219 H         1 UNK         0.3000 
    160 H160        2.1016  -15.8366  -44.2110 H         1 UNK         0.0600 
    161 H161        0.9169  -13.3745  -42.8238 H         1 UNK         0.0600 
    162 H162        1.1837  -13.5224  -44.5542 H         1 UNK         0.0600 
    163 H163        2.5544  -13.5263  -43.4588 H         1 UNK         0.0600 
    164 H164        2.3724  -15.0921  -41.6018 H         1 UNK         0.3000 
    165 H165        1.9606  -18.0649  -39.7825 H         1 UNK         0.0600 
    166 H166        4.3849  -17.9806  -39.3733 H         1 UNK         0.0600 
    167 H167        4.1003  -18.5844  -40.9990 H         1 UNK         0.0600 
    168 H168        4.6284  -16.9211  -40.7580 H         1 UNK         0.0600 
    169 H169        3.1142  -15.3067  -39.7143 H         1 UNK         0.3000 
    170 H170        0.6918  -14.1569  -37.4350 H         1 UNK         0.0600 
    171 H171        2.1402  -15.3915  -35.8195 H         1 UNK         0.0600 
    172 H172        3.5767  -14.8967  -36.7070 H         1 UNK         0.0600 
    173 H173        2.5779  -13.6923  -35.8917 H         1 UNK         0.0600 
    174 H174        3.2145  -13.0994  -38.3486 H         1 UNK         0.3000 
    175 H175        1.9990  -11.7031  -41.3726 H         1 UNK         0.0600 
    176 H176        2.6459  -10.2550  -38.7563 H         1 UNK         0.0600 
    177 H177        2.6175   -9.5442  -40.3707 H         1 UNK         0.0600 
    178 H178        1.1291  -10.1167  -39.6377 H         1 UNK         0.0600 
    179 H179        4.4402  -11.1161  -40.4331 H         1 UNK         0.3000 
    180 H180        6.1683  -12.0179  -41.7111 H         1 UNK         0.0600 
    181 H181        6.6185  -14.1777  -39.5677 H         1 UNK         0.0600 
    182 H182        6.5864  -12.4428  -39.2760 H         1 UNK         0.0600 
    183 H183        7.8682  -13.1387  -40.2534 H         1 UNK         0.0600 
    184 H184        6.8252  -14.8167  -41.9192 H         1 UNK         0.3000 
    185 H185        7.1794  -15.4123  -44.5224 H         1 UNK         0.0600 
    186 H186        6.2458  -16.7472  -42.6192 H         1 UNK         0.0600 
    187 H187        4.6170  -16.5824  -43.2701 H         1 UNK         0.0600 
    188 H188        5.8268  -17.5328  -44.1250 H         1 UNK         0.0600 
    189 H189        4.6534  -14.5914  -45.5912 H         1 UNK         0.3000 
    190 H190       -3.1721  -19.2827  -45.6317 H         1 UNK         0.3000 
    191 H191       -5.3678  -20.4634  -46.9649 H         1 UNK         0.0600 
    192 H192       -4.0613  -21.2147  -44.2966 H         1 UNK         0.0600 
    193 H193       -5.6579  -21.7254  -44.8301 H         1 UNK         0.0600 
    194 H194       -5.3384  -20.0236  -44.5297 H         1 UNK         0.0600 
    195 H195       -2.2066  -21.8970  -46.0076 H         1 UNK         0.3000 
    196 H196       -2.6842  -24.5075  -46.9870 H         1 UNK         0.0600 
    197 H197       -0.1943  -24.7250  -46.8571 H         1 UNK         0.0600 
    198 H198       -0.8588  -23.9816  -45.4103 H         1 UNK         0.0600 
    199 H199       -0.0496  -22.9873  -46.6188 H         1 UNK         0.0600 
    200 H200       -1.1245  -21.6792  -48.6001 H         1 UNK         0.3000 
    201 H201       -0.5451  -22.9680  -51.0517 H         1 UNK         0.0600 
    202 H202        0.5109  -20.8408  -50.3645 H         1 UNK         0.0600 
    203 H203       -1.0423  -20.0090  -50.4402 H         1 UNK         0.0600 
    204 H204       -0.3014  -20.6321  -51.9095 H         1 UNK         0.0600 
    205 H205       -3.4759  -21.1941  -49.9928 H         1 UNK         0.3000 
    206 H206       -4.8589  -21.3516  -52.4839 H         1 UNK         0.0600 
    207 H207       -5.8787  -21.0259  -49.6122 H         1 UNK         0.0600 
    208 H208       -5.4996  -19.7348  -50.7502 H         1 UNK         0.0600 
    209 H209       -6.8636  -20.7998  -51.0503 H         1 UNK         0.0600 
    210 H210       -4.8162  -23.5005  -49.6097 H         1 UNK         0.3000 
    211 H211       -6.7998  -25.3238  -50.5495 H         1 UNK         0.0600 
    212 H212       -4.5912  -25.6703  -48.4549 H         1 UNK         0.0600 
    213 H213       -5.9626  -26.7518  -48.6738 H         1 UNK         0.0600 
    214 H214       -6.2298  -25.0940  -48.1571 H         1 UNK         0.0600 
    215 H215       -3.2396  -25.3123  -50.8280 H         1 UNK         0.3000 
    216 H216       -2.7353  -27.8679  -51.7464 H         1 UNK         0.0600 
    217 H217       -0.6674  -26.8390  -52.7518 H         1 UNK         0.0600 
    218 H218       -0.9592  -26.3037  -51.1052 H         1 UNK         0.0600 
    219 H219       -1.3384  -25.2390  -52.4584 H         1 UNK         0.0600 
    220 H220       -3.6585  -28.9367  -53.3402 H         1 UNK         0.3000 
    221 H221       -4.5857  -29.6019  -55.2235 H         1 UNK         0.0600 
    222 H222       -2.9383  -27.4348  -56.6322 H         1 UNK         0.0600 
    223 H223       -2.3336  -29.0282  -56.1798 H         1 UNK         0.0600 
    224 H224       -3.6147  -28.8802  -57.3696 H         1 UNK         0.0600 
    225 H225       -5.8302  -27.2859  -53.7096 H         1 UNK         0.3000 
    226 H226       -7.4899  -25.8489  -53.7191 H         1 UNK         0.0600 
    227 H227       -8.8201  -27.8302  -54.4717 H         1 UNK         0.0600 
    228 H228       -9.4996  -26.3263  -55.0700 H         1 UNK         0.0600 
    229 H229       -8.5785  -27.3602  -56.1538 H         1 UNK         0.0600 
    230 H230       -5.1266  -24.9507  -54.9417 H         1 UNK         0.3000 
    231 H231       -5.4864  -23.6031  -57.3919 H         1 UNK         0.0600 
    232 H232       -3.2686  -24.1280  -56.4457 H         1 UNK         0.0600 
    233 H233       -3.5560  -23.0529  -55.0787 H         1 UNK         0.0600 
    234 H234       -3.3939  -22.3949  -56.7031 H         1 UNK         0.0600 
    235 H235       -6.4128  -22.6490  -54.1673 H         1 UNK         0.3000 
    236 H236       -7.6591  -21.1013  -53.2909 H         1 UNK         0.0600 
    237 H237       -8.4768  -20.2904  -56.1252 H         1 UNK         0.0600 
    238 H238       -9.2213  -21.5615  -55.1573 H         1 UNK         0.0600 
    239 H239       -9.3289  -19.8848  -54.6432 H         1 UNK         0.0600 
    240 H240       -5.4977  -19.7971  -55.7323 H         1 UNK         0.3000 
    241 H241       -4.2015  -18.0137  -55.8744 H         1 UNK         0.0600 
    242 H242       -7.4348  -15.9922  -56.3851 H         1 UNK         0.3800 
    243 H243       -7.2583  -17.7246  -56.2802 H         1 UNK         0.3800 
    244 H244       -4.6673  -17.5565  -52.8851 H         1 UNK         0.0800 
    245 H245       -3.5566  -16.6397  -53.8579 H         1 UNK         0.0800 
    246 H246       -1.3378  -17.0790  -54.3402 H         1 UNK         0.0800 
    247 H247       -0.4404  -18.5389  -54.0405 H         1 UNK         0.0800 
@<TRIPOS>BOND
     1    1    2 1    
     2    1  127 1    
     3    1  128 1    
     4    1  129 1    
     5    2    3 2    
     6    2    4 am   BACKBONE|DICT|INTERRES
     7    4    5 1    
     8    4  130 1    
     9    5    6 1    
    10    5   65 1    
    11    5  131 1    
    12    6    7 1    
    13    6  132 1    
    14    6  133 1    
    15    7    8 1    
    16    8    9 1    
    17    8  134 1    
    18    8  135 1    
    19    9   10 ar   
    20    9   14 ar   
    21   10   11 ar   
    22   10  136 1    
    23   11   12 ar   
    24   11  126 1    
    25   12   13 ar   
    26   12  137 1    
    27   13   14 ar   
    28   13   15 1    
    29   14  138 1    
    30   15   16 1    
    31   15  139 1    
    32   15  140 1    
    33   16   17 1    
    34   17   18 1    
    35   17  141 1    
    36   17  142 1    
    37   18   19 1    
    38   18   67 1    
    39   18  143 1    
    40   19   20 am   BACKBONE|DICT|INTERRES
    41   19  144 1    
    42   20   21 2    
    43   20   22 1    
    44   22   23 1    
    45   22   24 1    
    46   22  145 1    
    47   23  146 1    
    48   23  147 1    
    49   23  148 1    
    50   24   25 am   BACKBONE|DICT|INTERRES
    51   24  149 1    
    52   25   26 2    
    53   25   27 1    
    54   27   28 1    
    55   27   29 1    
    56   27  150 1    
    57   28  151 1    
    58   28  152 1    
    59   28  153 1    
    60   29   30 am   BACKBONE|DICT|INTERRES
    61   29  154 1    
    62   30   31 2    
    63   30   32 1    
    64   32   33 1    
    65   32   34 1    
    66   32  155 1    
    67   33  156 1    
    68   33  157 1    
    69   33  158 1    
    70   34   35 am   BACKBONE|DICT|INTERRES
    71   34  159 1    
    72   35   36 2    
    73   35   37 1    
    74   37   38 1    
    75   37   39 1    
    76   37  160 1    
    77   38  161 1    
    78   38  162 1    
    79   38  163 1    
    80   39   40 am   BACKBONE|DICT|INTERRES
    81   39  164 1    
    82   40   41 2    
    83   40   42 1    
    84   42   43 1    
    85   42   44 1    
    86   42  165 1    
    87   43  166 1    
    88   43  167 1    
    89   43  168 1    
    90   44   45 am   BACKBONE|DICT|INTERRES
    91   44  169 1    
    92   45   46 2    
    93   45   47 1    
    94   47   48 1    
    95   47   49 1    
    96   47  170 1    
    97   48  171 1    
    98   48  172 1    
    99   48  173 1    
   100   49   50 am   BACKBONE|DICT|INTERRES
   101   49  174 1    
   102   50   51 2    
   103   50   52 1    
   104   52   53 1    
   105   52   54 1    
   106   52  175 1    
   107   53  176 1    
   108   53  177 1    
   109   53  178 1    
   110   54   55 am   BACKBONE|DICT|INTERRES
   111   54  179 1    
   112   55   56 2    
   113   55   57 1    
   114   57   58 1    
   115   57   59 1    
   116   57  180 1    
   117   58  181 1    
   118   58  182 1    
   119   58  183 1    
   120   59   60 am   BACKBONE|DICT|INTERRES
   121   59  184 1    
   122   60   61 2    
   123   60   62 1    
   124   62   63 1    
   125   62   64 1    
   126   62  185 1    
   127   63  186 1    
   128   63  187 1    
   129   63  188 1    
   130   64   65 am   BACKBONE|DICT|INTERRES
   131   64  189 1    
   132   65   66 2    
   133   67   68 2    
   134   67   69 am   BACKBONE|DICT|INTERRES
   135   69   70 1    
   136   69  190 1    
   137   70   71 1    
   138   70   72 1    
   139   70  191 1    
   140   71  192 1    
   141   71  193 1    
   142   71  194 1    
   143   72   73 2    
   144   72   74 am   BACKBONE|DICT|INTERRES
   145   74   75 1    
   146   74  195 1    
   147   75   76 1    
   148   75   77 1    
   149   75  196 1    
   150   76  197 1    
   151   76  198 1    
   152   76  199 1    
   153   77   78 2    
   154   77   79 am   BACKBONE|DICT|INTERRES
   155   79   80 1    
   156   79  200 1    
   157   80   81 1    
   158   80   82 1    
   159   80  201 1    
   160   81  202 1    
   161   81  203 1    
   162   81  204 1    
   163   82   83 2    
   164   82   84 am   BACKBONE|DICT|INTERRES
   165   84   85 1    
   166   84  205 1    
   167   85   86 1    
   168   85   87 1    
   169   85  206 1    
   170   86  207 1    
   171   86  208 1    
   172   86  209 1    
   173   87   88 2    
   174   87   89 am   BACKBONE|DICT|INTERRES
   175   89   90 1    
   176   89  210 1    
   177   90   91 1    
   178   90   92 1    
   179   90  211 1    
   180   91  212 1    
   181   91  213 1    
   182   91  214 1    
   183   92   93 2    
   184   92   94 am   BACKBONE|DICT|INTERRES
   185   94   95 1    
   186   94  215 1    
   187   95   96 1    
   188   95   97 1    
   189   95  216 1    
   190   96  217 1    
   191   96  218 1    
   192   96  219 1    
   193   97   98 2    
   194   97   99 am   BACKBONE|DICT|INTERRES
   195   99  100 1    
   196   99  220 1    
   197  100  101 1    
   198  100  102 1    
   199  100  221 1    
   200  101  222 1    
   201  101  223 1    
   202  101  224 1    
   203  102  103 2    
   204  102  104 am   BACKBONE|DICT|INTERRES
   205  104  105 1    
   206  104  225 1    
   207  105  106 1    
   208  105  107 1    
   209  105  226 1    
   210  106  227 1    
   211  106  228 1    
   212  106  229 1    
   213  107  108 2    
   214  107  109 am   BACKBONE|DICT|INTERRES
   215  109  110 1    
   216  109  230 1    
   217  110  111 1    
   218  110  112 1    
   219  110  231 1    
   220  111  232 1    
   221  111  233 1    
   222  111  234 1    
   223  112  113 2    
   224  112  114 am   BACKBONE|DICT|INTERRES
   225  114  115 1    
   226  114  235 1    
   227  115  116 1    
   228  115  117 1    
   229  115  236 1    
   230  116  237 1    
   231  116  238 1    
   232  116  239 1    
   233  117  118 2    
   234  117  119 am   BACKBONE|DICT|INTERRES
   235  119  120 1    
   236  119  240 1    
   237  120  121 1    
   238  120  124 1    
   239  120  241 1    
   240  121  122 am   BACKBONE|DICT|INTERRES
   241  121  123 2    
   242  122  242 1    
   243  122  243 1    
   244  124  125 1    
   245  124  244 1    
   246  124  245 1    
   247  125  126 1    
   248  126  246 1    
   249  126  247 1    
@<TRIPOS>SUBSTRUCTURE
     1 UNK         1 GROUP             0       ****    0 ROOT    
