@<TRIPOS>MOLECULE
3R540
247   249    1
SMALL
USER_CHARGES


@<TRIPOS>ATOM
      1 CA         -3.1404  -18.2901  -49.9903 C.3       0 UNK        -0.1800 
      2 C          -2.2971  -17.4575  -49.0404 C.2       0 UNK         0.5000 
      3 O          -2.2315  -17.7718  -47.8536 O.2       0 UNK        -0.5000 
      4 N          -1.6665  -16.3953  -49.5626 N.am      1 UNK        -0.5000 
      5 CA         -0.7784  -15.4704  -48.8439 C.3       1 UNK         0.1400 
      6 C6          0.5561  -16.1235  -48.3883 C.3       23 UNK        -0.0398 
      7 S7          1.6182  -16.5650  -49.8021 S.3       23 UNK        -0.2404 
      8 C8          2.0635  -18.2876  -49.4213 C.3       23 UNK        -0.0205 
      9 C9          0.9748  -19.2707  -49.8203 C.ar      23 UNK        -0.0193 
     10 C10         0.6926  -19.4874  -51.1716 C.ar      23 UNK        -0.1150 
     11 C11        -0.2755  -20.4177  -51.5571 C.ar      23 UNK        -0.0193 
     12 C12        -0.9492  -21.1494  -50.5781 C.ar      23 UNK        -0.1150 
     13 C13        -0.6845  -20.9358  -49.2227 C.ar      23 UNK        -0.0193 
     14 C14         0.2750  -19.9900  -48.8481 C.ar      23 UNK        -0.1150 
     15 C15        -1.4435  -21.7259  -48.1711 C.3       23 UNK        -0.0205 
     16 S16        -0.5067  -23.1959  -47.6505 S.3       23 UNK        -0.2404 
     17 C17         0.6892  -22.4573  -46.4785 C.3       23 UNK        -0.0398 
     18 CA          1.1548  -23.3549  -45.2990 C.3       11 UNK         0.1400 
     19 N           1.8194  -22.5518  -44.2715 N.am      11 UNK        -0.5000 
     20 C           2.5497  -23.0354  -43.2577 C.2       10 UNK         0.5000 
     21 O           2.8337  -24.2257  -43.1204 O.2       10 UNK        -0.5000 
     22 CA          3.0261  -22.0139  -42.2080 C.3       10 UNK         0.1400 
     23 CB          4.3196  -21.3255  -42.6686 C.3       10 UNK        -0.1800 
     24 N           2.0091  -21.0033  -41.9064 N.am      10 UNK        -0.5000 
     25 C           0.8460  -21.2631  -41.2902 C.2       9 UNK         0.5000 
     26 O           0.5393  -22.3697  -40.8470 O.2       9 UNK        -0.5000 
     27 CA         -0.1565  -20.1017  -41.1648 C.3       9 UNK         0.1400 
     28 CB          0.1591  -19.2454  -39.9294 C.3       9 UNK        -0.1800 
     29 N          -0.1997  -19.2480  -42.3521 N.am      9 UNK        -0.5000 
     30 C          -0.6191  -19.6352  -43.5653 C.2       8 UNK         0.5000 
     31 O          -1.0403  -20.7638  -43.8171 O.2       8 UNK        -0.5000 
     32 CA         -0.4945  -18.6010  -44.6993 C.3       8 UNK         0.1400 
     33 CB         -1.6248  -17.5655  -44.6169 C.3       8 UNK        -0.1800 
     34 N           0.8058  -17.9280  -44.6816 N.am      8 UNK        -0.5000 
     35 C           1.9791  -18.5492  -44.8736 C.2       7 UNK         0.5000 
     36 O           2.0812  -19.7400  -45.1683 O.2       7 UNK        -0.5000 
     37 CA          3.2510  -17.7174  -44.6411 C.3       7 UNK         0.1400 
     38 CB          3.6633  -16.9698  -45.9178 C.3       7 UNK        -0.1800 
     39 N           3.0777  -16.7664  -43.5433 N.am      7 UNK        -0.5000 
     40 C           3.0808  -17.1058  -42.2462 C.2       6 UNK         0.5000 
     41 O           3.2606  -18.2557  -41.8459 O.2       6 UNK        -0.5000 
     42 CA          2.7956  -15.9850  -41.2260 C.3       6 UNK         0.1400 
     43 CB          4.0860  -15.2261  -40.8834 C.3       6 UNK        -0.1800 
     44 N           1.7833  -15.0333  -41.6876 N.am      6 UNK        -0.5000 
     45 C           0.5054  -15.3510  -41.9342 C.2       5 UNK         0.5000 
     46 O           0.0336  -16.4659  -41.7175 O.2       5 UNK        -0.5000 
     47 CA         -0.3917  -14.2696  -42.5688 C.3       5 UNK         0.1400 
     48 CB         -1.2049  -13.5468  -41.4853 C.3       5 UNK        -0.1800 
     49 N           0.2914  -13.2710  -43.3988 N.am      5 UNK        -0.5000 
     50 C           1.1220  -13.5199  -44.4209 C.2       4 UNK         0.5000 
     51 O           1.5466  -14.6403  -44.7075 O.2       4 UNK        -0.5000 
     52 CA          1.4826  -12.3080  -45.2888 C.3       4 UNK         0.1400 
     53 CB          2.5846  -12.6135  -46.3201 C.3       4 UNK        -0.1800 
     54 N           0.2716  -11.8898  -45.9879 N.am      4 UNK        -0.5000 
     55 C          -0.1750  -10.6325  -46.0979 C.2       3 UNK         0.5000 
     56 O           0.3984   -9.6652  -45.5951 O.2       3 UNK        -0.5000 
     57 CA         -1.4646  -10.3945  -46.9143 C.3       3 UNK         0.1400 
     58 CB         -1.1394   -9.6618  -48.2260 C.3       3 UNK        -0.1800 
     59 N          -2.1906  -11.6236  -47.2401 N.am      3 UNK        -0.5000 
     60 C          -2.9995  -12.2875  -46.4033 C.2       2 UNK         0.5000 
     61 O          -3.2695  -11.9025  -45.2655 O.2       2 UNK        -0.5000 
     62 CA         -3.5828  -13.6231  -46.9160 C.3       2 UNK         0.1400 
     63 CB         -4.9886  -13.4089  -47.4950 C.3       2 UNK        -0.1800 
     64 N          -2.7489  -14.3066  -47.9151 N.am      2 UNK        -0.5000 
     65 C          -1.4959  -14.7302  -47.6919 C.2       1 UNK         0.5000 
     66 O          -0.9088  -14.5236  -46.6322 O.2       1 UNK        -0.5000 
     67 C           0.0203  -24.2077  -44.6892 C.2       11 UNK         0.5000 
     68 O          -0.0641  -25.4001  -44.9824 O.2       11 UNK        -0.5000 
     69 N          -0.8466  -23.5740  -43.8843 N.am      12 UNK        -0.5000 
     70 CA         -2.0353  -24.1494  -43.2408 C.3       12 UNK         0.1400 
     71 CB         -1.6262  -25.1756  -42.1641 C.3       12 UNK        -0.1800 
     72 C          -3.0599  -24.7165  -44.2515 C.2       12 UNK         0.5000 
     73 O          -3.7723  -25.6723  -43.9407 O.2       12 UNK        -0.5000 
     74 N          -3.0924  -24.1178  -45.4524 N.am      13 UNK        -0.5000 
     75 CA         -3.8818  -24.4982  -46.6295 C.3       13 UNK         0.1400 
     76 CB         -5.3919  -24.3330  -46.3600 C.3       13 UNK        -0.1800 
     77 C          -3.5212  -25.8842  -47.2131 C.2       13 UNK         0.5000 
     78 O          -4.3474  -26.4821  -47.9041 O.2       13 UNK        -0.5000 
     79 N          -2.3001  -26.3744  -46.9465 N.am      14 UNK        -0.5000 
     80 CA         -1.7975  -27.6475  -47.4710 C.3       14 UNK         0.1400 
     81 CB         -0.6469  -28.1458  -46.5841 C.3       14 UNK        -0.1800 
     82 C          -1.3393  -27.5578  -48.9399 C.2       14 UNK         0.5000 
     83 O          -1.3280  -28.5792  -49.6293 O.2       14 UNK        -0.5000 
     84 N          -0.9586  -26.3547  -49.3917 N.am      15 UNK        -0.5000 
     85 CA         -0.5683  -26.0707  -50.7733 C.3       15 UNK         0.1400 
     86 CB          0.1878  -24.7342  -50.8128 C.3       15 UNK        -0.1800 
     87 C          -1.7814  -26.0333  -51.7232 C.2       15 UNK         0.5000 
     88 O          -2.9244  -25.9136  -51.2744 O.2       15 UNK        -0.5000 
     89 N          -1.4997  -26.1205  -53.0293 N.am      16 UNK        -0.5000 
     90 CA         -2.4864  -26.0432  -54.1069 C.3       16 UNK         0.1400 
     91 CB         -1.7881  -26.3404  -55.4429 C.3       16 UNK        -0.1800 
     92 C          -3.1941  -24.6755  -54.1636 C.2       16 UNK         0.5000 
     93 O          -2.5710  -23.6489  -53.8806 O.2       16 UNK        -0.5000 
     94 N          -4.4767  -24.7007  -54.5506 N.am      17 UNK        -0.5000 
     95 CA         -5.4263  -23.5859  -54.6513 C.3       17 UNK         0.1400 
     96 CB         -4.9555  -22.5138  -55.6564 C.3       17 UNK        -0.1800 
     97 C          -5.7912  -22.9693  -53.2879 C.2       17 UNK         0.5000 
     98 O          -6.9553  -23.0295  -52.8915 O.2       17 UNK        -0.5000 
     99 N          -4.7937  -22.3861  -52.6097 N.am      18 UNK        -0.5000 
    100 CA        -4.8643  -21.7021  -51.3130 C.3       18 UNK         0.1400 
    101 CB        -5.1525  -22.7060  -50.1774 C.3       18 UNK        -0.1800 
    102 C         -5.8003  -20.4722  -51.2889 C.2       18 UNK         0.5000 
    103 O         -6.2355  -20.0521  -50.2155 O.2       18 UNK        -0.5000 
    104 N         -6.0642  -19.8923  -52.4663 N.am      19 UNK        -0.5000 
    105 CA        -6.7055  -18.5916  -52.6322 C.3       19 UNK         0.1400 
    106 CB        -7.4032  -18.5491  -54.0000 C.3       19 UNK        -0.1800 
    107 C         -5.6222  -17.5083  -52.5461 C.2       19 UNK         0.5000 
    108 O         -4.5263  -17.7246  -53.0629 O.2       19 UNK        -0.5000 
    109 N         -5.9388  -16.3663  -51.9193 N.am      20 UNK        -0.5000 
    110 CA        -5.0055  -15.2843  -51.5665 C.3       20 UNK         0.1400 
    111 CB        -5.8063  -14.0859  -51.0367 C.3       20 UNK        -0.1800 
    112 C         -4.0501  -14.8285  -52.6881 C.2       20 UNK         0.5000 
    113 O         -2.8880  -14.5256  -52.4104 O.2       20 UNK        -0.5000 
    114 N         -4.5515  -14.8447  -53.9300 N.am      21 UNK        -0.5000 
    115 CA        -3.8366  -14.5117  -55.1604 C.3       21 UNK         0.1400 
    116 CB        -4.8196  -14.5996  -56.3383 C.3       21 UNK        -0.1800 
    117 C         -2.5820  -15.3635  -55.4459 C.2       21 UNK         0.5000 
    118 O         -1.6891  -14.8675  -56.1353 O.2       21 UNK        -0.5000 
    119 N         -2.5117  -16.6014  -54.9280 N.am      22 UNK        -0.5000 
    120 CA        -1.3086  -17.4482  -55.0356 C.3       22 UNK         0.1400 
    121 C         -0.1712  -17.0836  -54.0341 C.2       22 UNK         0.5000 
    122 N         -0.3822  -16.1885  -53.0737 N.am      22 UNK        -0.7600 
    123 O          0.9366  -17.5986  -54.1557 O.2       22 UNK        -0.5000 
    124 C124       -1.6333  -18.9687  -55.0851 C.3       23 UNK        -0.0398 
    125 S125       -2.1107  -19.7407  -53.4984 S.3       23 UNK        -0.2404 
    126 C126       -0.5942  -20.6332  -53.0270 C.3       23 UNK        -0.0205 
    127 H127       -4.1903  -18.0150  -49.8983 H         1 UNK         0.0600 
    128 H128       -3.0481  -19.3482  -49.7508 H         1 UNK         0.0600 
    129 H129       -2.8283  -18.1497  -51.0248 H         1 UNK         0.0600 
    130 H130       -1.7551  -16.2166  -50.5527 H         1 UNK         0.3000 
    131 H131       -0.5277  -14.6860  -49.5597 H         1 UNK         0.0600 
    132 H132        1.1407  -15.4357  -47.7759 H         1 UNK         0.0800 
    133 H133        0.3663  -16.9958  -47.7611 H         1 UNK         0.0800 
    134 H134        2.9760  -18.5385  -49.9638 H         1 UNK         0.0800 
    135 H135        2.3050  -18.3814  -48.3620 H         1 UNK         0.0800 
    136 H136        1.2293  -18.9259  -51.9225 H         1 UNK         0.1150 
    137 H137       -1.6853  -21.8817  -50.8759 H         1 UNK         0.1150 
    138 H138        0.4846  -19.8210  -47.8017 H         1 UNK         0.1150 
    139 H139       -1.6785  -21.0923  -47.3143 H         1 UNK         0.0800 
    140 H140       -2.4027  -22.0472  -48.5783 H         1 UNK         0.0800 
    141 H141        1.5586  -22.1207  -47.0447 H         1 UNK         0.0800 
    142 H142        0.2356  -21.5523  -46.0754 H         1 UNK         0.0800 
    143 H143        1.8927  -24.0549  -45.6966 H         1 UNK         0.0600 
    144 H144        1.6991  -21.5467  -44.3404 H         1 UNK         0.3000 
    145 H145        3.2425  -22.5592  -41.2870 H         1 UNK         0.0600 
    146 H146        4.7030  -20.6525  -41.9015 H         1 UNK         0.0600 
    147 H147        4.1653  -20.7447  -43.5780 H         1 UNK         0.0600 
    148 H148        5.0995  -22.0591  -42.8761 H         1 UNK         0.0600 
    149 H149        2.2208  -20.0484  -42.1729 H         1 UNK         0.3000 
    150 H150       -1.1496  -20.5360  -41.0323 H         1 UNK         0.0600 
    151 H151        0.1815  -19.8551  -39.0253 H         1 UNK         0.0600 
    152 H152       -0.5962  -18.4732  -39.7823 H         1 UNK         0.0600 
    153 H153        1.1277  -18.7524  -40.0186 H         1 UNK         0.0600 
    154 H154        0.0746  -18.2779  -42.2179 H         1 UNK         0.3000 
    155 H155       -0.5861  -19.1253  -45.6526 H         1 UNK         0.0600 
    156 H156       -2.5926  -18.0398  -44.7827 H         1 UNK         0.0600 
    157 H157       -1.5100  -16.7943  -45.3769 H         1 UNK         0.0600 
    158 H158       -1.6654  -17.0762  -43.6450 H         1 UNK         0.0600 
    159 H159        0.8143  -16.9421  -44.4563 H         1 UNK         0.3000 
    160 H160        4.0595  -18.4031  -44.3796 H         1 UNK         0.0600 
    161 H161        2.8703  -16.3170  -46.2819 H         1 UNK         0.0600 
    162 H162        3.9042  -17.6716  -46.7164 H         1 UNK         0.0600 
    163 H163        4.5487  -16.3572  -45.7481 H         1 UNK         0.0600 
    164 H164        2.8137  -15.8222  -43.8077 H         1 UNK         0.3000 
    165 H165        2.4234  -16.4553  -40.3134 H         1 UNK         0.0600 
    166 H166        3.9126  -14.4853  -40.1027 H         1 UNK         0.0600 
    167 H167        4.8542  -15.9088  -40.5175 H         1 UNK         0.0600 
    168 H168        4.4930  -14.7094  -41.7535 H         1 UNK         0.0600 
    169 H169        2.0952  -14.0978  -41.9017 H         1 UNK         0.3000 
    170 H170       -1.0933  -14.7867  -43.2256 H         1 UNK         0.0600 
    171 H171       -0.5633  -12.9611  -40.8260 H         1 UNK         0.0600 
    172 H172       -1.9399  -12.8732  -41.9267 H         1 UNK         0.0600 
    173 H173       -1.7516  -14.2586  -40.8650 H         1 UNK         0.0600 
    174 H174       -0.0031  -12.3152  -43.2603 H         1 UNK         0.3000 
    175 H175        1.8411  -11.5231  -44.6199 H         1 UNK         0.0600 
    176 H176        2.2737  -13.3839  -47.0265 H         1 UNK         0.0600 
    177 H177        2.8446  -11.7226  -46.8917 H         1 UNK         0.0600 
    178 H178        3.4935  -12.9636  -45.8294 H         1 UNK         0.0600 
    179 H179       -0.2892  -12.6526  -46.3560 H         1 UNK         0.3000 
    180 H180       -2.1136   -9.7503  -46.3173 H         1 UNK         0.0600 
    181 H181       -2.0466   -9.4335  -48.7860 H         1 UNK         0.0600 
    182 H182       -0.4879  -10.2560  -48.8680 H         1 UNK         0.0600 
    183 H183       -0.6337   -8.7150  -48.0318 H         1 UNK         0.0600 
    184 H184       -2.0289  -12.0139  -48.1566 H         1 UNK         0.3000 
    185 H185       -3.6682  -14.2886  -46.0542 H         1 UNK         0.0600 
    186 H186       -5.4416  -14.3544  -47.7935 H         1 UNK         0.0600 
    187 H187       -5.6493  -12.9535  -46.7561 H         1 UNK         0.0600 
    188 H188       -4.9686  -12.7510  -48.3641 H         1 UNK         0.0600 
    189 H189       -3.1746  -14.5067  -48.8070 H         1 UNK         0.3000 
    190 H190       -0.7344  -22.5702  -43.7535 H         1 UNK         0.3000 
    191 H191       -2.5342  -23.3215  -42.7353 H         1 UNK         0.0600 
    192 H192       -2.4890  -25.4946  -41.5785 H         1 UNK         0.0600 
    193 H193       -0.9035  -24.7486  -41.4687 H         1 UNK         0.0600 
    194 H194       -1.1809  -26.0686  -42.6036 H         1 UNK         0.0600 
    195 H195       -2.4502  -23.3510  -45.5936 H         1 UNK         0.3000 
    196 H196       -3.6190  -23.7816  -47.4073 H         1 UNK         0.0600 
    197 H197       -5.9682  -24.4482  -47.2788 H         1 UNK         0.0600 
    198 H198       -5.6156  -23.3430  -45.9627 H         1 UNK         0.0600 
    199 H199       -5.7606  -25.0725  -45.6489 H         1 UNK         0.0600 
    200 H200       -1.6733  -25.8552  -46.3419 H         1 UNK         0.3000 
    201 H201       -2.6010  -28.3854  -47.4197 H         1 UNK         0.0600 
    202 H202       -0.9516  -28.2123  -45.5394 H         1 UNK         0.0600 
    203 H203        0.2191  -27.4854  -46.6407 H         1 UNK         0.0600 
    204 H204       -0.3197  -29.1395  -46.8925 H         1 UNK         0.0600 
    205 H205       -1.0243  -25.5633  -48.7685 H         1 UNK         0.3000 
    206 H206        0.1074  -26.8601  -51.1093 H         1 UNK         0.0600 
    207 H207        1.0388  -24.7368  -50.1315 H         1 UNK         0.0600 
    208 H208        0.5718  -24.5242  -51.8115 H         1 UNK         0.0600 
    209 H209       -0.4624  -23.9065  -50.5352 H         1 UNK         0.0600 
    210 H210       -0.5338  -26.1791  -53.3161 H         1 UNK         0.3000 
    211 H211       -3.2349  -26.8176  -53.9260 H         1 UNK         0.0600 
    212 H212       -1.0117  -25.6061  -55.6620 H         1 UNK         0.0600 
    213 H213       -2.4996  -26.3209  -56.2695 H         1 UNK         0.0600 
    214 H214       -1.3260  -27.3278  -55.4372 H         1 UNK         0.0600 
    215 H215       -4.8815  -25.6058  -54.7463 H         1 UNK         0.3000 
    216 H216       -6.3441  -24.0182  -55.0535 H         1 UNK         0.0600 
    217 H217       -5.7160  -21.7423  -55.7832 H         1 UNK         0.0600 
    218 H218       -4.7707  -22.9509  -56.6375 H         1 UNK         0.0600 
    219 H219       -4.0403  -22.0146  -55.3370 H         1 UNK         0.0600 
    220 H220       -3.8674  -22.4559  -53.0233 H         1 UNK         0.3000 
    221 H221       -3.8676  -21.2976  -51.1430 H         1 UNK         0.0600 
    222 H222       -5.0671  -22.2304  -49.1996 H         1 UNK         0.0600 
    223 H223       -6.1573  -23.1222  -50.2520 H         1 UNK         0.0600 
    224 H224       -4.4440  -23.5348  -50.1955 H         1 UNK         0.0600 
    225 H225       -5.5998  -20.2627  -53.2820 H         1 UNK         0.3000 
    226 H226       -7.4485  -18.4360  -51.8473 H         1 UNK         0.0600 
    227 H227       -8.1575  -19.3321  -54.0809 H         1 UNK         0.0600 
    228 H228       -7.9075  -17.5939  -54.1515 H         1 UNK         0.0600 
    229 H229       -6.6950  -18.6808  -54.8195 H         1 UNK         0.0600 
    230 H230       -6.8762  -16.2678  -51.5564 H         1 UNK         0.3000 
    231 H231       -4.3827  -15.6571  -50.7527 H         1 UNK         0.0600 
    232 H232       -5.1454  -13.2642  -50.7580 H         1 UNK         0.0600 
    233 H233       -6.3835  -14.3543  -50.1520 H         1 UNK         0.0600 
    234 H234       -6.5011  -13.7055  -51.7866 H         1 UNK         0.0600 
    235 H235       -5.5073  -15.1486  -54.0406 H         1 UNK         0.3000 
    236 H236       -3.5058  -13.4752  -55.0693 H         1 UNK         0.0600 
    237 H237       -5.2151  -15.6095  -56.4550 H         1 UNK         0.0600 
    238 H238       -5.6620  -13.9212  -56.2025 H         1 UNK         0.0600 
    239 H239       -4.3334  -14.3270  -57.2760 H         1 UNK         0.0600 
    240 H240       -3.2599  -16.9519  -54.3346 H         1 UNK         0.3000 
    241 H241       -0.8713  -17.2363  -56.0133 H         1 UNK         0.0600 
    242 H242        0.3725  -15.9638  -52.4456 H         1 UNK         0.3800 
    243 H243       -1.2685  -15.7051  -52.9991 H         1 UNK         0.3800 
    244 H244       -0.7852  -19.5111  -55.5048 H         1 UNK         0.0800 
    245 H245       -2.4491  -19.1383  -55.7889 H         1 UNK         0.0800 
    246 H246        0.2506  -20.3093  -53.6356 H         1 UNK         0.0800 
    247 H247       -0.7267  -21.6971  -53.2282 H         1 UNK         0.0800 
@<TRIPOS>BOND
     1    1    2 1    
     2    1  127 1    
     3    1  128 1    
     4    1  129 1    
     5    2    3 2    
     6    2    4 am   BACKBONE|DICT|INTERRES
     7    4    5 1    
     8    4  130 1    
     9    5    6 1    
    10    5   65 1    
    11    5  131 1    
    12    6    7 1    
    13    6  132 1    
    14    6  133 1    
    15    7    8 1    
    16    8    9 1    
    17    8  134 1    
    18    8  135 1    
    19    9   10 ar   
    20    9   14 ar   
    21   10   11 ar   
    22   10  136 1    
    23   11   12 ar   
    24   11  126 1    
    25   12   13 ar   
    26   12  137 1    
    27   13   14 ar   
    28   13   15 1    
    29   14  138 1    
    30   15   16 1    
    31   15  139 1    
    32   15  140 1    
    33   16   17 1    
    34   17   18 1    
    35   17  141 1    
    36   17  142 1    
    37   18   19 1    
    38   18   67 1    
    39   18  143 1    
    40   19   20 am   BACKBONE|DICT|INTERRES
    41   19  144 1    
    42   20   21 2    
    43   20   22 1    
    44   22   23 1    
    45   22   24 1    
    46   22  145 1    
    47   23  146 1    
    48   23  147 1    
    49   23  148 1    
    50   24   25 am   BACKBONE|DICT|INTERRES
    51   24  149 1    
    52   25   26 2    
    53   25   27 1    
    54   27   28 1    
    55   27   29 1    
    56   27  150 1    
    57   28  151 1    
    58   28  152 1    
    59   28  153 1    
    60   29   30 am   BACKBONE|DICT|INTERRES
    61   29  154 1    
    62   30   31 2    
    63   30   32 1    
    64   32   33 1    
    65   32   34 1    
    66   32  155 1    
    67   33  156 1    
    68   33  157 1    
    69   33  158 1    
    70   34   35 am   BACKBONE|DICT|INTERRES
    71   34  159 1    
    72   35   36 2    
    73   35   37 1    
    74   37   38 1    
    75   37   39 1    
    76   37  160 1    
    77   38  161 1    
    78   38  162 1    
    79   38  163 1    
    80   39   40 am   BACKBONE|DICT|INTERRES
    81   39  164 1    
    82   40   41 2    
    83   40   42 1    
    84   42   43 1    
    85   42   44 1    
    86   42  165 1    
    87   43  166 1    
    88   43  167 1    
    89   43  168 1    
    90   44   45 am   BACKBONE|DICT|INTERRES
    91   44  169 1    
    92   45   46 2    
    93   45   47 1    
    94   47   48 1    
    95   47   49 1    
    96   47  170 1    
    97   48  171 1    
    98   48  172 1    
    99   48  173 1    
   100   49   50 am   BACKBONE|DICT|INTERRES
   101   49  174 1    
   102   50   51 2    
   103   50   52 1    
   104   52   53 1    
   105   52   54 1    
   106   52  175 1    
   107   53  176 1    
   108   53  177 1    
   109   53  178 1    
   110   54   55 am   BACKBONE|DICT|INTERRES
   111   54  179 1    
   112   55   56 2    
   113   55   57 1    
   114   57   58 1    
   115   57   59 1    
   116   57  180 1    
   117   58  181 1    
   118   58  182 1    
   119   58  183 1    
   120   59   60 am   BACKBONE|DICT|INTERRES
   121   59  184 1    
   122   60   61 2    
   123   60   62 1    
   124   62   63 1    
   125   62   64 1    
   126   62  185 1    
   127   63  186 1    
   128   63  187 1    
   129   63  188 1    
   130   64   65 am   BACKBONE|DICT|INTERRES
   131   64  189 1    
   132   65   66 2    
   133   67   68 2    
   134   67   69 am   BACKBONE|DICT|INTERRES
   135   69   70 1    
   136   69  190 1    
   137   70   71 1    
   138   70   72 1    
   139   70  191 1    
   140   71  192 1    
   141   71  193 1    
   142   71  194 1    
   143   72   73 2    
   144   72   74 am   BACKBONE|DICT|INTERRES
   145   74   75 1    
   146   74  195 1    
   147   75   76 1    
   148   75   77 1    
   149   75  196 1    
   150   76  197 1    
   151   76  198 1    
   152   76  199 1    
   153   77   78 2    
   154   77   79 am   BACKBONE|DICT|INTERRES
   155   79   80 1    
   156   79  200 1    
   157   80   81 1    
   158   80   82 1    
   159   80  201 1    
   160   81  202 1    
   161   81  203 1    
   162   81  204 1    
   163   82   83 2    
   164   82   84 am   BACKBONE|DICT|INTERRES
   165   84   85 1    
   166   84  205 1    
   167   85   86 1    
   168   85   87 1    
   169   85  206 1    
   170   86  207 1    
   171   86  208 1    
   172   86  209 1    
   173   87   88 2    
   174   87   89 am   BACKBONE|DICT|INTERRES
   175   89   90 1    
   176   89  210 1    
   177   90   91 1    
   178   90   92 1    
   179   90  211 1    
   180   91  212 1    
   181   91  213 1    
   182   91  214 1    
   183   92   93 2    
   184   92   94 am   BACKBONE|DICT|INTERRES
   185   94   95 1    
   186   94  215 1    
   187   95   96 1    
   188   95   97 1    
   189   95  216 1    
   190   96  217 1    
   191   96  218 1    
   192   96  219 1    
   193   97   98 2    
   194   97   99 am   BACKBONE|DICT|INTERRES
   195   99  100 1    
   196   99  220 1    
   197  100  101 1    
   198  100  102 1    
   199  100  221 1    
   200  101  222 1    
   201  101  223 1    
   202  101  224 1    
   203  102  103 2    
   204  102  104 am   BACKBONE|DICT|INTERRES
   205  104  105 1    
   206  104  225 1    
   207  105  106 1    
   208  105  107 1    
   209  105  226 1    
   210  106  227 1    
   211  106  228 1    
   212  106  229 1    
   213  107  108 2    
   214  107  109 am   BACKBONE|DICT|INTERRES
   215  109  110 1    
   216  109  230 1    
   217  110  111 1    
   218  110  112 1    
   219  110  231 1    
   220  111  232 1    
   221  111  233 1    
   222  111  234 1    
   223  112  113 2    
   224  112  114 am   BACKBONE|DICT|INTERRES
   225  114  115 1    
   226  114  235 1    
   227  115  116 1    
   228  115  117 1    
   229  115  236 1    
   230  116  237 1    
   231  116  238 1    
   232  116  239 1    
   233  117  118 2    
   234  117  119 am   BACKBONE|DICT|INTERRES
   235  119  120 1    
   236  119  240 1    
   237  120  121 1    
   238  120  124 1    
   239  120  241 1    
   240  121  122 am   BACKBONE|DICT|INTERRES
   241  121  123 2    
   242  122  242 1    
   243  122  243 1    
   244  124  125 1    
   245  124  244 1    
   246  124  245 1    
   247  125  126 1    
   248  126  246 1    
   249  126  247 1    
@<TRIPOS>SUBSTRUCTURE
     1 UNK         1 GROUP             0       ****    0 ROOT    
