@<TRIPOS>MOLECULE
3R540
247   249    1
SMALL
USER_CHARGES


@<TRIPOS>ATOM
      1 CA          3.0904  -15.8220  -51.9744 C.3       0 UNK        -0.1800 
      2 C           3.0418  -14.4842  -51.2505 C.2       0 UNK         0.5000 
      3 O           3.3309  -13.4489  -51.8498 O.2       0 UNK        -0.5000 
      4 N           2.6664  -14.5006  -49.9663 N.am      1 UNK        -0.5000 
      5 CA          2.6027  -13.3301  -49.0774 C.3       1 UNK         0.1400 
      6 C6          2.7512  -13.7111  -47.5775 C.3       23 UNK        -0.0398 
      7 S7          4.1199  -14.8641  -47.2185 S.3       23 UNK        -0.2404 
      8 C8          3.2155  -16.3332  -46.6344 C.3       23 UNK        -0.0205 
      9 C9          2.6168  -17.1417  -47.7750 C.ar      23 UNK        -0.0193 
     10 C10         1.3407  -16.8513  -48.2665 C.ar      23 UNK        -0.1150 
     11 C11         0.7761  -17.6285  -49.2812 C.ar      23 UNK        -0.0193 
     12 C12         1.5000  -18.6982  -49.8134 C.ar      23 UNK        -0.1150 
     13 C13         2.7730  -19.0042  -49.3233 C.ar      23 UNK        -0.0193 
     14 C14         3.3275  -18.2181  -48.3100 C.ar      23 UNK        -0.1150 
     15 C15         3.5434  -20.1994  -49.8654 C.3       23 UNK        -0.0205 
     16 S16         2.7089  -21.7822  -49.5185 S.3       23 UNK        -0.2404 
     17 C17         2.3739  -21.6590  -47.7244 C.3       23 UNK        -0.0398 
     18 CA          2.1754  -23.0232  -47.0172 C.3       11 UNK         0.1400 
     19 N           2.0146  -22.8479  -45.5720 N.am      11 UNK        -0.5000 
     20 C           2.0012  -23.8381  -44.6681 C.2       10 UNK         0.5000 
     21 O           2.2413  -25.0160  -44.9336 O.2       10 UNK        -0.5000 
     22 CA          1.6221  -23.4480  -43.2282 C.3       10 UNK         0.1400 
     23 CB          2.8438  -22.9190  -42.4610 C.3       10 UNK        -0.1800 
     24 N           0.5507  -22.4517  -43.1892 N.am      10 UNK        -0.5000 
     25 C          -0.7252  -22.6888  -43.5266 C.2       9 UNK         0.5000 
     26 O          -1.1532  -23.7895  -43.8766 O.2       9 UNK        -0.5000 
     27 CA         -1.6755  -21.4786  -43.5015 C.3       9 UNK         0.1400 
     28 CB         -2.2230  -21.2462  -42.0858 C.3       9 UNK        -0.1800 
     29 N          -1.0308  -20.2572  -43.9855 N.am      9 UNK        -0.5000 
     30 C          -0.6891  -20.0486  -45.2659 C.2       8 UNK         0.5000 
     31 O          -0.8914  -20.8596  -46.1666 O.2       8 UNK        -0.5000 
     32 CA          0.0413  -18.7361  -45.5950 C.3       8 UNK         0.1400 
     33 CB         -0.9807  -17.6139  -45.8234 C.3       8 UNK        -0.1800 
     34 N           0.9827  -18.3249  -44.5544 N.am      8 UNK        -0.5000 
     35 C           2.0137  -19.0639  -44.1151 C.2       7 UNK         0.5000 
     36 O           2.3496  -20.1293  -44.6323 O.2       7 UNK        -0.5000 
     37 CA          2.7592  -18.5753  -42.8545 C.3       7 UNK         0.1400 
     38 CB          4.1290  -17.9870  -43.2226 C.3       7 UNK        -0.1800 
     39 N           2.0206  -17.5889  -42.0624 N.am      7 UNK        -0.5000 
     40 C           0.8133  -17.7652  -41.5056 C.2       6 UNK         0.5000 
     41 O           0.2013  -18.8338  -41.5286 O.2       6 UNK        -0.5000 
     42 CA          0.1510  -16.5212  -40.8803 C.3       6 UNK         0.1400 
     43 CB          0.3132  -16.5399  -39.3531 C.3       6 UNK        -0.1800 
     44 N           0.6553  -15.2429  -41.4008 N.am      6 UNK        -0.5000 
     45 C           0.5693  -14.8301  -42.6735 C.2       5 UNK         0.5000 
     46 O           0.0966  -15.5094  -43.5884 O.2       5 UNK        -0.5000 
     47 CA          1.1731  -13.4545  -42.9830 C.3       5 UNK         0.1400 
     48 CB          2.6353  -13.6055  -43.4331 C.3       5 UNK        -0.1800 
     49 N           0.4130  -12.8204  -44.0564 N.am      5 UNK        -0.5000 
     50 C          -0.2167  -11.6425  -43.9686 C.2       4 UNK         0.5000 
     51 O          -0.2064  -10.9373  -42.9585 O.2       4 UNK        -0.5000 
     52 CA         -0.9764  -11.1479  -45.2157 C.3       4 UNK         0.1400 
     53 CB         -0.2286   -9.9717  -45.8631 C.3       4 UNK        -0.1800 
     54 N          -1.1872  -12.1861  -46.2282 N.am      4 UNK        -0.5000 
     55 C          -2.1622  -13.1070  -46.1805 C.2       3 UNK         0.5000 
     56 O          -2.9508  -13.2010  -45.2392 O.2       3 UNK        -0.5000 
     57 CA         -2.2655  -14.0975  -47.3645 C.3       3 UNK         0.1400 
     58 CB         -3.7162  -14.5214  -47.6697 C.3       3 UNK        -0.1800 
     59 N          -1.5858  -13.6517  -48.5861 N.am      3 UNK        -0.5000 
     60 C          -1.8442  -12.5645  -49.3321 C.2       2 UNK         0.5000 
     61 O          -2.7661  -11.7789  -49.1105 O.2       2 UNK        -0.5000 
     62 CA         -0.8735  -12.3174  -50.5106 C.3       2 UNK         0.1400 
     63 CB         -0.8081  -10.8351  -50.9334 C.3       2 UNK        -0.1800 
     64 N           0.4731  -12.8526  -50.2557 N.am      2 UNK        -0.5000 
     65 C           1.3130  -12.4966  -49.2697 C.2       1 UNK         0.5000 
     66 O           1.0600  -11.5985  -48.4669 O.2       1 UNK        -0.5000 
     67 C           0.9944  -23.8230  -47.6110 C.2       11 UNK         0.5000 
     68 O           1.2197  -24.7577  -48.3812 O.2       11 UNK        -0.5000 
     69 N          -0.2342  -23.4450  -47.2299 N.am      12 UNK        -0.5000 
     70 CA         -1.4754  -24.0607  -47.6806 C.3       12 UNK         0.1400 
     71 CB         -2.6754  -23.2254  -47.2062 C.3       12 UNK        -0.1800 
     72 C          -1.6265  -25.5245  -47.2548 C.2       12 UNK         0.5000 
     73 O          -1.7261  -26.3894  -48.1238 O.2       12 UNK        -0.5000 
     74 N          -1.6944  -25.7715  -45.9392 N.am      13 UNK        -0.5000 
     75 CA         -2.0679  -27.0508  -45.3292 C.3       13 UNK         0.1400 
     76 CB         -0.9127  -28.0684  -45.4619 C.3       13 UNK        -0.1800 
     77 C          -3.4246  -27.5473  -45.8844 C.2       13 UNK         0.5000 
     78 O          -4.4466  -26.9103  -45.6235 O.2       13 UNK        -0.5000 
     79 N          -3.4090  -28.6304  -46.6715 N.am      14 UNK        -0.5000 
     80 CA         -4.5776  -29.1875  -47.3552 C.3       14 UNK         0.1400 
     81 CB         -4.4226  -30.7164  -47.4059 C.3       14 UNK        -0.1800 
     82 C          -4.7880  -28.6256  -48.7788 C.2       14 UNK         0.5000 
     83 O          -5.8480  -28.8659  -49.3582 O.2       14 UNK        -0.5000 
     84 N          -3.7951  -27.9170  -49.3388 N.am      15 UNK        -0.5000 
     85 CA         -3.8052  -27.4253  -50.7227 C.3       15 UNK         0.1400 
     86 CB         -2.3589  -27.3135  -51.2331 C.3       15 UNK        -0.1800 
     87 C          -4.5428  -26.0837  -50.9008 C.2       15 UNK         0.5000 
     88 O          -4.8260  -25.7077  -52.0386 O.2       15 UNK        -0.5000 
     89 N          -4.8387  -25.3905  -49.7900 N.am      16 UNK        -0.5000 
     90 CA         -5.6041  -24.1385  -49.7092 C.3       16 UNK         0.1400 
     91 CB         -7.0668  -24.3625  -50.1478 C.3       16 UNK        -0.1800 
     92 C          -4.9455  -22.9433  -50.4349 C.2       16 UNK         0.5000 
     93 O          -5.6527  -22.0734  -50.9460 O.2       16 UNK        -0.5000 
     94 N          -3.6030  -22.8901  -50.4383 N.am      17 UNK        -0.5000 
     95 CA         -2.7809  -21.8511  -51.0812 C.3       17 UNK         0.1400 
     96 CB         -1.2915  -22.1244  -50.8201 C.3       17 UNK        -0.1800 
     97 C          -3.1218  -20.4052  -50.6687 C.2       17 UNK         0.5000 
     98 O          -2.9797  -19.4960  -51.4848 O.2       17 UNK        -0.5000 
     99 N          -3.6026  -20.2243  -49.4314 N.am      18 UNK        -0.5000 
    100 CA        -4.0843  -18.9528  -48.8908 C.3       18 UNK         0.1400 
    101 CB        -4.3886  -19.1334  -47.3960 C.3       18 UNK        -0.1800 
    102 C         -5.3123  -18.3866  -49.6343 C.2       18 UNK         0.5000 
    103 O         -5.4823  -17.1683  -49.6645 O.2       18 UNK        -0.5000 
    104 N         -6.1300  -19.2701  -50.2219 N.am      19 UNK        -0.5000 
    105 CA        -7.2947  -18.9186  -51.0316 C.3       19 UNK         0.1400 
    106 CB        -8.4711  -19.8239  -50.6320 C.3       19 UNK        -0.1800 
    107 C         -6.9980  -19.0602  -52.5342 C.2       19 UNK         0.5000 
    108 O         -7.4756  -18.2422  -53.3203 O.2       19 UNK        -0.5000 
    109 N         -6.2398  -20.1007  -52.9077 N.am      20 UNK        -0.5000 
    110 CA        -5.8847  -20.4290  -54.2855 C.3       20 UNK         0.1400 
    111 CB        -5.5244  -21.9237  -54.3753 C.3       20 UNK        -0.1800 
    112 C         -4.7695  -19.5130  -54.8227 C.2       20 UNK         0.5000 
    113 O         -5.0646  -18.5488  -55.5294 O.2       20 UNK        -0.5000 
    114 N         -3.5107  -19.8288  -54.4867 N.am      21 UNK        -0.5000 
    115 CA        -2.3023  -19.1457  -54.9621 C.3       21 UNK         0.1400 
    116 CB        -1.0599  -19.8810  -54.4341 C.3       21 UNK        -0.1800 
    117 C         -2.2482  -17.6525  -54.5909 C.2       21 UNK         0.5000 
    118 O         -1.8914  -16.8286  -55.4341 O.2       21 UNK        -0.5000 
    119 N         -2.6393  -17.3376  -53.3523 N.am      22 UNK        -0.5000 
    120 CA        -2.8061  -15.9670  -52.8461 C.3       22 UNK         0.1400 
    121 C         -4.2104  -15.3541  -53.1339 C.2       22 UNK         0.5000 
    122 N         -5.0962  -16.0055  -53.8773 N.am      22 UNK        -0.7600 
    123 O         -4.4983  -14.2449  -52.6931 O.2       22 UNK        -0.5000 
    124 C124       -2.4293  -15.8692  -51.3471 C.3       23 UNK        -0.0398 
    125 S125       -0.6355  -16.0738  -51.0724 S.3       23 UNK        -0.2404 
    126 C126       -0.6299  -17.3373  -49.7725 C.3       23 UNK        -0.0205 
    127 H127        2.9640  -16.6569  -51.2857 H         1 UNK         0.0600 
    128 H128        4.0486  -15.9436  -52.4793 H         1 UNK         0.0600 
    129 H129        2.2984  -15.8740  -52.7214 H         1 UNK         0.0600 
    130 H130        2.4615  -15.3896  -49.5295 H         1 UNK         0.3000 
    131 H131        3.4375  -12.6730  -49.3297 H         1 UNK         0.0600 
    132 H132        1.8220  -14.1246  -47.1854 H         1 UNK         0.0800 
    133 H133        2.9338  -12.8113  -46.9869 H         1 UNK         0.0800 
    134 H134        3.9131  -16.9603  -46.0790 H         1 UNK         0.0800 
    135 H135        2.4393  -16.0470  -45.9234 H         1 UNK         0.0800 
    136 H136        0.7739  -16.0344  -47.8474 H         1 UNK         0.1150 
    137 H137        1.0652  -19.3089  -50.5924 H         1 UNK         0.1150 
    138 H138        4.3086  -18.4546  -47.9226 H         1 UNK         0.1150 
    139 H139        3.6623  -20.0890  -50.9440 H         1 UNK         0.0800 
    140 H140        4.5505  -20.2341  -49.4472 H         1 UNK         0.0800 
    141 H141        1.4981  -21.0237  -47.5836 H         1 UNK         0.0800 
    142 H142        3.2062  -21.1306  -47.2569 H         1 UNK         0.0800 
    143 H143        3.0811  -23.6135  -47.1716 H         1 UNK         0.0600 
    144 H144        1.8882  -21.8947  -45.2439 H         1 UNK         0.3000 
    145 H145        1.2666  -24.3478  -42.7215 H         1 UNK         0.0600 
    146 H146        2.5887  -22.6811  -41.4282 H         1 UNK         0.0600 
    147 H147        3.6387  -23.6654  -42.4355 H         1 UNK         0.0600 
    148 H148        3.2551  -22.0203  -42.9210 H         1 UNK         0.0600 
    149 H149        0.8131  -21.5095  -42.9404 H         1 UNK         0.3000 
    150 H150       -2.5204  -21.7001  -44.1566 H         1 UNK         0.0600 
    151 H151       -2.7531  -22.1281  -41.7241 H         1 UNK         0.0600 
    152 H152       -2.9259  -20.4132  -42.0665 H         1 UNK         0.0600 
    153 H153       -1.4257  -21.0285  -41.3743 H         1 UNK         0.0600 
    154 H154       -0.7790  -19.5678  -43.2864 H         1 UNK         0.3000 
    155 H155        0.6075  -18.8950  -46.5135 H         1 UNK         0.0600 
    156 H156       -1.6207  -17.4676  -44.9522 H         1 UNK         0.0600 
    157 H157       -1.6254  -17.8376  -46.6733 H         1 UNK         0.0600 
    158 H158       -0.4834  -16.6671  -46.0232 H         1 UNK         0.0600 
    159 H159        0.7695  -17.4540  -44.0811 H         1 UNK         0.3000 
    160 H160        2.9211  -19.4519  -42.2244 H         1 UNK         0.0600 
    161 H161        4.0311  -17.0325  -43.7396 H         1 UNK         0.0600 
    162 H162        4.6889  -18.6616  -43.8721 H         1 UNK         0.0600 
    163 H163        4.7348  -17.8206  -42.3317 H         1 UNK         0.0600 
    164 H164        2.4387  -16.6740  -41.9866 H         1 UNK         0.3000 
    165 H165       -0.9146  -16.5746  -41.1125 H         1 UNK         0.0600 
    166 H166       -0.2312  -15.7180  -38.8878 H         1 UNK         0.0600 
    167 H167       -0.0772  -17.4663  -38.9294 H         1 UNK         0.0600 
    168 H168        1.3604  -16.4601  -39.0586 H         1 UNK         0.0600 
    169 H169        1.0779  -14.6273  -40.7205 H         1 UNK         0.3000 
    170 H170        1.1450  -12.8495  -42.0745 H         1 UNK         0.0600 
    171 H171        3.2412  -14.0711  -42.6549 H         1 UNK         0.0600 
    172 H172        2.7218  -14.2201  -44.3293 H         1 UNK         0.0600 
    173 H173        3.0800  -12.6347  -43.6528 H         1 UNK         0.0600 
    174 H174        0.2781  -13.3783  -44.8863 H         1 UNK         0.3000 
    175 H175       -1.9502  -10.7828  -44.8823 H         1 UNK         0.0600 
    176 H176        0.7830  -10.2524  -46.1583 H         1 UNK         0.0600 
    177 H177       -0.7495   -9.6105  -46.7502 H         1 UNK         0.0600 
    178 H178       -0.1454   -9.1330  -45.1708 H         1 UNK         0.0600 
    179 H179       -0.5862  -12.1430  -47.0419 H         1 UNK         0.3000 
    180 H180       -1.7337  -14.9913  -47.0416 H         1 UNK         0.0600 
    181 H181       -3.7525  -15.2423  -48.4864 H         1 UNK         0.0600 
    182 H182       -4.3374  -13.6695  -47.9467 H         1 UNK         0.0600 
    183 H183       -4.1785  -14.9956  -46.8033 H         1 UNK         0.0600 
    184 H184       -0.8078  -14.2216  -48.8829 H         1 UNK         0.3000 
    185 H185       -1.2714  -12.8804  -51.3558 H         1 UNK         0.0600 
    186 H186       -1.7826  -10.4829  -51.2732 H         1 UNK         0.0600 
    187 H187       -0.4981  -10.1902  -50.1107 H         1 UNK         0.0600 
    188 H188       -0.1074  -10.6907  -51.7557 H         1 UNK         0.0600 
    189 H189        0.7637  -13.6123  -50.8560 H         1 UNK         0.3000 
    190 H190       -0.3352  -22.6284  -46.6339 H         1 UNK         0.3000 
    191 H191       -1.4673  -24.0556  -48.7704 H         1 UNK         0.0600 
    192 H192       -3.6183  -23.6990  -47.4751 H         1 UNK         0.0600 
    193 H193       -2.6638  -22.2322  -47.6518 H         1 UNK         0.0600 
    194 H194       -2.6779  -23.1005  -46.1240 H         1 UNK         0.0600 
    195 H195       -1.5807  -24.9962  -45.2902 H         1 UNK         0.3000 
    196 H196       -2.2203  -26.8572  -44.2664 H         1 UNK         0.0600 
    197 H197       -0.6621  -28.2830  -46.5012 H         1 UNK         0.0600 
    198 H198       -0.0101  -27.6892  -44.9822 H         1 UNK         0.0600 
    199 H199       -1.1618  -29.0121  -44.9752 H         1 UNK         0.0600 
    200 H200       -2.5213  -29.0729  -46.8614 H         1 UNK         0.3000 
    201 H201       -5.4791  -28.9618  -46.7817 H         1 UNK         0.0600 
    202 H202       -3.5417  -31.0131  -47.9767 H         1 UNK         0.0600 
    203 H203       -5.2899  -31.1842  -47.8738 H         1 UNK         0.0600 
    204 H204       -4.3310  -31.1366  -46.4041 H         1 UNK         0.0600 
    205 H205       -2.9722  -27.6819  -48.7900 H         1 UNK         0.3000 
    206 H206       -4.3176  -28.1588  -51.3490 H         1 UNK         0.0600 
    207 H207       -1.8196  -28.2521  -51.1045 H         1 UNK         0.0600 
    208 H208       -2.3402  -27.0727  -52.2968 H         1 UNK         0.0600 
    209 H209       -1.8027  -26.5319  -50.7159 H         1 UNK         0.0600 
    210 H210       -4.5624  -25.8007  -48.9092 H         1 UNK         0.3000 
    211 H211       -5.6311  -23.8665  -48.6540 H         1 UNK         0.0600 
    212 H212       -7.6786  -23.4845  -49.9366 H         1 UNK         0.0600 
    213 H213       -7.5141  -25.2023  -49.6161 H         1 UNK         0.0600 
    214 H214       -7.1440  -24.5623  -51.2169 H         1 UNK         0.0600 
    215 H215       -3.1066  -23.6690  -50.0357 H         1 UNK         0.3000 
    216 H216       -2.9511  -21.9317  -52.1551 H         1 UNK         0.0600 
    217 H217       -1.0294  -21.9777  -49.7718 H         1 UNK         0.0600 
    218 H218       -0.6649  -21.4459  -51.4005 H         1 UNK         0.0600 
    219 H219       -1.0130  -23.1395  -51.1038 H         1 UNK         0.0600 
    220 H220       -3.6874  -21.0291  -48.8306 H         1 UNK         0.3000 
    221 H221       -3.2809  -18.2230  -48.9845 H         1 UNK         0.0600 
    222 H222       -4.6881  -18.1877  -46.9422 H         1 UNK         0.0600 
    223 H223       -3.5131  -19.4909  -46.8534 H         1 UNK         0.0600 
    224 H224       -5.1971  -19.8472  -47.2338 H         1 UNK         0.0600 
    225 H225       -5.8915  -20.2550  -50.1898 H         1 UNK         0.3000 
    226 H226       -7.5895  -17.8836  -50.8462 H         1 UNK         0.0600 
    227 H227       -8.7257  -19.6951  -49.5799 H         1 UNK         0.0600 
    228 H228       -9.3622  -19.5858  -51.2141 H         1 UNK         0.0600 
    229 H229       -8.2440  -20.8784  -50.7944 H         1 UNK         0.0600 
    230 H230       -5.9345  -20.7579  -52.1951 H         1 UNK         0.3000 
    231 H231       -6.7624  -20.2704  -54.9159 H         1 UNK         0.0600 
    232 H232       -4.7215  -22.2003  -53.6932 H         1 UNK         0.0600 
    233 H233       -5.2097  -22.1917  -55.3847 H         1 UNK         0.0600 
    234 H234       -6.3859  -22.5452  -54.1300 H         1 UNK         0.0600 
    235 H235       -3.3637  -20.6043  -53.8613 H         1 UNK         0.3000 
    236 H236       -2.2985  -19.2136  -56.0519 H         1 UNK         0.0600 
    237 H237       -1.0551  -20.9259  -54.7445 H         1 UNK         0.0600 
    238 H238       -0.1463  -19.4244  -54.8169 H         1 UNK         0.0600 
    239 H239       -1.0058  -19.8524  -53.3455 H         1 UNK         0.0600 
    240 H240       -2.8865  -18.0912  -52.7147 H         1 UNK         0.3000 
    241 H241       -2.1149  -15.3173  -53.3862 H         1 UNK         0.0600 
    242 H242       -5.9984  -15.5892  -54.0429 H         1 UNK         0.3800 
    243 H243       -4.8833  -16.9009  -54.2993 H         1 UNK         0.3800 
    244 H244       -2.9887  -16.6083  -50.7742 H         1 UNK         0.0800 
    245 H245       -2.7094  -14.9007  -50.9342 H         1 UNK         0.0800 
    246 H246       -1.2481  -17.0004  -48.9403 H         1 UNK         0.0800 
    247 H247       -1.0845  -18.2500  -50.1555 H         1 UNK         0.0800 
@<TRIPOS>BOND
     1    1    2 1    
     2    1  127 1    
     3    1  128 1    
     4    1  129 1    
     5    2    3 2    
     6    2    4 am   BACKBONE|DICT|INTERRES
     7    4    5 1    
     8    4  130 1    
     9    5    6 1    
    10    5   65 1    
    11    5  131 1    
    12    6    7 1    
    13    6  132 1    
    14    6  133 1    
    15    7    8 1    
    16    8    9 1    
    17    8  134 1    
    18    8  135 1    
    19    9   10 ar   
    20    9   14 ar   
    21   10   11 ar   
    22   10  136 1    
    23   11   12 ar   
    24   11  126 1    
    25   12   13 ar   
    26   12  137 1    
    27   13   14 ar   
    28   13   15 1    
    29   14  138 1    
    30   15   16 1    
    31   15  139 1    
    32   15  140 1    
    33   16   17 1    
    34   17   18 1    
    35   17  141 1    
    36   17  142 1    
    37   18   19 1    
    38   18   67 1    
    39   18  143 1    
    40   19   20 am   BACKBONE|DICT|INTERRES
    41   19  144 1    
    42   20   21 2    
    43   20   22 1    
    44   22   23 1    
    45   22   24 1    
    46   22  145 1    
    47   23  146 1    
    48   23  147 1    
    49   23  148 1    
    50   24   25 am   BACKBONE|DICT|INTERRES
    51   24  149 1    
    52   25   26 2    
    53   25   27 1    
    54   27   28 1    
    55   27   29 1    
    56   27  150 1    
    57   28  151 1    
    58   28  152 1    
    59   28  153 1    
    60   29   30 am   BACKBONE|DICT|INTERRES
    61   29  154 1    
    62   30   31 2    
    63   30   32 1    
    64   32   33 1    
    65   32   34 1    
    66   32  155 1    
    67   33  156 1    
    68   33  157 1    
    69   33  158 1    
    70   34   35 am   BACKBONE|DICT|INTERRES
    71   34  159 1    
    72   35   36 2    
    73   35   37 1    
    74   37   38 1    
    75   37   39 1    
    76   37  160 1    
    77   38  161 1    
    78   38  162 1    
    79   38  163 1    
    80   39   40 am   BACKBONE|DICT|INTERRES
    81   39  164 1    
    82   40   41 2    
    83   40   42 1    
    84   42   43 1    
    85   42   44 1    
    86   42  165 1    
    87   43  166 1    
    88   43  167 1    
    89   43  168 1    
    90   44   45 am   BACKBONE|DICT|INTERRES
    91   44  169 1    
    92   45   46 2    
    93   45   47 1    
    94   47   48 1    
    95   47   49 1    
    96   47  170 1    
    97   48  171 1    
    98   48  172 1    
    99   48  173 1    
   100   49   50 am   BACKBONE|DICT|INTERRES
   101   49  174 1    
   102   50   51 2    
   103   50   52 1    
   104   52   53 1    
   105   52   54 1    
   106   52  175 1    
   107   53  176 1    
   108   53  177 1    
   109   53  178 1    
   110   54   55 am   BACKBONE|DICT|INTERRES
   111   54  179 1    
   112   55   56 2    
   113   55   57 1    
   114   57   58 1    
   115   57   59 1    
   116   57  180 1    
   117   58  181 1    
   118   58  182 1    
   119   58  183 1    
   120   59   60 am   BACKBONE|DICT|INTERRES
   121   59  184 1    
   122   60   61 2    
   123   60   62 1    
   124   62   63 1    
   125   62   64 1    
   126   62  185 1    
   127   63  186 1    
   128   63  187 1    
   129   63  188 1    
   130   64   65 am   BACKBONE|DICT|INTERRES
   131   64  189 1    
   132   65   66 2    
   133   67   68 2    
   134   67   69 am   BACKBONE|DICT|INTERRES
   135   69   70 1    
   136   69  190 1    
   137   70   71 1    
   138   70   72 1    
   139   70  191 1    
   140   71  192 1    
   141   71  193 1    
   142   71  194 1    
   143   72   73 2    
   144   72   74 am   BACKBONE|DICT|INTERRES
   145   74   75 1    
   146   74  195 1    
   147   75   76 1    
   148   75   77 1    
   149   75  196 1    
   150   76  197 1    
   151   76  198 1    
   152   76  199 1    
   153   77   78 2    
   154   77   79 am   BACKBONE|DICT|INTERRES
   155   79   80 1    
   156   79  200 1    
   157   80   81 1    
   158   80   82 1    
   159   80  201 1    
   160   81  202 1    
   161   81  203 1    
   162   81  204 1    
   163   82   83 2    
   164   82   84 am   BACKBONE|DICT|INTERRES
   165   84   85 1    
   166   84  205 1    
   167   85   86 1    
   168   85   87 1    
   169   85  206 1    
   170   86  207 1    
   171   86  208 1    
   172   86  209 1    
   173   87   88 2    
   174   87   89 am   BACKBONE|DICT|INTERRES
   175   89   90 1    
   176   89  210 1    
   177   90   91 1    
   178   90   92 1    
   179   90  211 1    
   180   91  212 1    
   181   91  213 1    
   182   91  214 1    
   183   92   93 2    
   184   92   94 am   BACKBONE|DICT|INTERRES
   185   94   95 1    
   186   94  215 1    
   187   95   96 1    
   188   95   97 1    
   189   95  216 1    
   190   96  217 1    
   191   96  218 1    
   192   96  219 1    
   193   97   98 2    
   194   97   99 am   BACKBONE|DICT|INTERRES
   195   99  100 1    
   196   99  220 1    
   197  100  101 1    
   198  100  102 1    
   199  100  221 1    
   200  101  222 1    
   201  101  223 1    
   202  101  224 1    
   203  102  103 2    
   204  102  104 am   BACKBONE|DICT|INTERRES
   205  104  105 1    
   206  104  225 1    
   207  105  106 1    
   208  105  107 1    
   209  105  226 1    
   210  106  227 1    
   211  106  228 1    
   212  106  229 1    
   213  107  108 2    
   214  107  109 am   BACKBONE|DICT|INTERRES
   215  109  110 1    
   216  109  230 1    
   217  110  111 1    
   218  110  112 1    
   219  110  231 1    
   220  111  232 1    
   221  111  233 1    
   222  111  234 1    
   223  112  113 2    
   224  112  114 am   BACKBONE|DICT|INTERRES
   225  114  115 1    
   226  114  235 1    
   227  115  116 1    
   228  115  117 1    
   229  115  236 1    
   230  116  237 1    
   231  116  238 1    
   232  116  239 1    
   233  117  118 2    
   234  117  119 am   BACKBONE|DICT|INTERRES
   235  119  120 1    
   236  119  240 1    
   237  120  121 1    
   238  120  124 1    
   239  120  241 1    
   240  121  122 am   BACKBONE|DICT|INTERRES
   241  121  123 2    
   242  122  242 1    
   243  122  243 1    
   244  124  125 1    
   245  124  244 1    
   246  124  245 1    
   247  125  126 1    
   248  126  246 1    
   249  126  247 1    
@<TRIPOS>SUBSTRUCTURE
     1 UNK         1 GROUP             0       ****    0 ROOT    
