@<TRIPOS>MOLECULE
3R540
247   249    1
SMALL
USER_CHARGES


@<TRIPOS>ATOM
      1 CA          3.1460  -11.8952  -50.7530 C.3       0 UNK        -0.1800 
      2 C           4.2126  -12.2518  -49.7269 C.2       0 UNK         0.5000 
      3 O           5.3320  -12.5987  -50.1035 O.2       0 UNK        -0.5000 
      4 N           3.8647  -12.1649  -48.4396 N.am      1 UNK        -0.5000 
      5 CA          4.7288  -12.4461  -47.2920 C.3       1 UNK         0.1400 
      6 C6          4.4169  -13.8198  -46.6388 C.3       23 UNK        -0.0398 
      7 S7          4.7106  -15.2332  -47.7503 S.3       23 UNK        -0.2404 
      8 C8          3.0037  -15.7579  -48.0934 C.3       23 UNK        -0.0205 
      9 C9          2.9654  -16.8300  -49.1692 C.ar      23 UNK        -0.0193 
     10 C10         2.5217  -16.5213  -50.4578 C.ar      23 UNK        -0.1150 
     11 C11         2.5242  -17.4935  -51.4625 C.ar      23 UNK        -0.0193 
     12 C12         2.9804  -18.7830  -51.1690 C.ar      23 UNK        -0.1150 
     13 C13         3.4129  -19.1073  -49.8792 C.ar      23 UNK        -0.0193 
     14 C14         3.3914  -18.1293  -48.8809 C.ar      23 UNK        -0.1150 
     15 C15         3.9409  -20.5020  -49.5711 C.3       23 UNK        -0.0205 
     16 S16         2.6241  -21.7571  -49.5503 S.3       23 UNK        -0.2404 
     17 C17         1.5463  -21.1281  -48.2211 C.3       23 UNK        -0.0398 
     18 CA          0.6815  -22.2180  -47.5429 C.3       11 UNK         0.1400 
     19 N           0.0158  -21.6903  -46.3489 N.am      11 UNK        -0.5000 
     20 C          -0.7064  -22.4141  -45.4821 C.2       10 UNK         0.5000 
     21 O          -0.8344  -23.6374  -45.5500 O.2       10 UNK        -0.5000 
     22 CA         -1.4504  -21.6302  -44.3849 C.3       10 UNK         0.1400 
     23 CB         -0.4954  -21.2455  -43.2454 C.3       10 UNK        -0.1800 
     24 N          -2.1123  -20.4289  -44.9003 N.am      10 UNK        -0.5000 
     25 C          -3.1230  -20.4391  -45.7821 C.2       9 UNK         0.5000 
     26 O          -3.6350  -21.4679  -46.2184 O.2       9 UNK        -0.5000 
     27 CA         -3.6166  -19.0785  -46.3041 C.3       9 UNK         0.1400 
     28 CB         -4.5712  -18.4187  -45.2986 C.3       9 UNK        -0.1800 
     29 N          -2.5222  -18.1619  -46.6164 N.am      9 UNK        -0.5000 
     30 C          -1.5778  -18.3775  -47.5425 C.2       8 UNK         0.5000 
     31 O          -1.5375  -19.3720  -48.2627 O.2       8 UNK        -0.5000 
     32 CA         -0.4433  -17.3443  -47.6222 C.3       8 UNK         0.1400 
     33 CB         -0.8808  -16.0864  -48.3883 C.3       8 UNK        -0.1800 
     34 N           0.0434  -16.9795  -46.2914 N.am      8 UNK        -0.5000 
     35 C           0.7130  -17.8142  -45.4836 C.2       7 UNK         0.5000 
     36 O           1.0163  -18.9668  -45.7902 O.2       7 UNK        -0.5000 
     37 CA          1.0818  -17.2800  -44.0887 C.3       7 UNK         0.1400 
     38 CB          2.4011  -16.4982  -44.1457 C.3       7 UNK        -0.1800 
     39 N           0.0363  -16.4400  -43.4994 N.am      7 UNK        -0.5000 
     40 C          -1.1768  -16.8894  -43.1500 C.2       6 UNK         0.5000 
     41 O          -1.5318  -18.0618  -43.2728 O.2       6 UNK        -0.5000 
     42 CA         -2.1812  -15.8444  -42.6297 C.3       6 UNK         0.1400 
     43 CB         -1.8796  -15.4701  -41.1707 C.3       6 UNK        -0.1800 
     44 N          -2.2473  -14.6289  -43.4487 N.am      6 UNK        -0.5000 
     45 C          -2.5517  -14.6008  -44.7544 C.2       5 UNK         0.5000 
     46 O          -2.7409  -15.6116  -45.4271 O.2       5 UNK        -0.5000 
     47 CA         -2.6532  -13.2306  -45.4494 C.3       5 UNK         0.1400 
     48 CB         -4.1129  -12.9443  -45.8337 C.3       5 UNK        -0.1800 
     49 N          -2.1587  -12.1115  -44.6426 N.am      5 UNK        -0.5000 
     50 C          -0.8905  -11.7173  -44.4603 C.2       4 UNK         0.5000 
     51 O          -0.6331  -10.7270  -43.7746 O.2       4 UNK        -0.5000 
     52 CA          0.2728  -12.4887  -45.1321 C.3       4 UNK         0.1400 
     53 CB          0.5325  -11.9624  -46.5523 C.3       4 UNK        -0.1800 
     54 N           1.5010  -12.3668  -44.3425 N.am      4 UNK        -0.5000 
     55 C           1.6776  -12.9568  -43.1507 C.2       3 UNK         0.5000 
     56 O           0.8926  -13.7973  -42.7083 O.2       3 UNK        -0.5000 
     57 CA          2.9199  -12.5620  -42.3226 C.3       3 UNK         0.1400 
     58 CB          3.5319  -13.7654  -41.5844 C.3       3 UNK        -0.1800 
     59 N           3.9614  -11.9472  -43.1453 N.am      3 UNK        -0.5000 
     60 C           4.2610  -10.6425  -43.1960 C.2       2 UNK         0.5000 
     61 O           3.7047   -9.7810  -42.5150 O.2       2 UNK        -0.5000 
     62 CA          5.3581  -10.2314  -44.2026 C.3       2 UNK         0.1400 
     63 CB          6.7210  -10.1314  -43.5007 C.3       2 UNK        -0.1800 
     64 N           5.4713  -11.1504  -45.3431 N.am      2 UNK        -0.5000 
     65 C           4.5121  -11.3252  -46.2618 C.2       1 UNK         0.5000 
     66 O           3.4578  -10.6848  -46.2664 O.2       1 UNK        -0.5000 
     67 C          -0.3390  -22.8469  -48.5161 C.2       11 UNK         0.5000 
     68 O          -0.1517  -23.9815  -48.9561 O.2       11 UNK        -0.5000 
     69 N          -1.4291  -22.1192  -48.7877 N.am      12 UNK        -0.5000 
     70 CA         -2.5366  -22.5595  -49.6274 C.3       12 UNK         0.1400 
     71 CB         -3.4980  -21.3905  -49.8451 C.3       12 UNK        -0.1800 
     72 C          -3.2838  -23.7759  -49.0634 C.2       12 UNK         0.5000 
     73 O          -3.6968  -24.6304  -49.8417 O.2       12 UNK        -0.5000 
     74 N          -3.4411  -23.8534  -47.7360 N.am      13 UNK        -0.5000 
     75 CA         -4.0480  -24.9917  -47.0460 C.3       13 UNK         0.1400 
     76 CB         -4.2931  -24.6433  -45.5705 C.3       13 UNK        -0.1800 
     77 C          -3.1974  -26.2663  -47.1783 C.2       13 UNK         0.5000 
     78 O          -3.7495  -27.3363  -47.4343 O.2       13 UNK        -0.5000 
     79 N          -1.8699  -26.1204  -47.0570 N.am      14 UNK        -0.5000 
     80 CA         -0.8962  -27.1921  -47.2760 C.3       14 UNK         0.1400 
     81 CB          0.4869  -26.7349  -46.7878 C.3       14 UNK        -0.1800 
     82 C          -0.8401  -27.6517  -48.7467 C.2       14 UNK         0.5000 
     83 O          -0.7249  -28.8501  -49.0057 O.2       14 UNK        -0.5000 
     84 N          -0.9535  -26.6967  -49.6797 N.am      15 UNK        -0.5000 
     85 CA         -1.0021  -26.9316  -51.1252 C.3       15 UNK         0.1400 
     86 CB         -0.6687  -25.6158  -51.8465 C.3       15 UNK        -0.1800 
     87 C          -2.3538  -27.4846  -51.6262 C.2       15 UNK         0.5000 
     88 O          -2.4232  -27.9411  -52.7680 O.2       15 UNK        -0.5000 
     89 N          -3.3964  -27.4124  -50.7847 N.am      16 UNK        -0.5000 
     90 CA         -4.8034  -27.7226  -51.0660 C.3       16 UNK         0.1400 
     91 CB         -4.9942  -29.2189  -51.3892 C.3       16 UNK        -0.1800 
     92 C          -5.4177  -26.7825  -52.1283 C.2       16 UNK         0.5000 
     93 O          -6.2463  -27.2048  -52.9363 O.2       16 UNK        -0.5000 
     94 N          -5.0075  -25.5098  -52.0902 N.am      17 UNK        -0.5000 
     95 CA         -5.4085  -24.4329  -52.9912 C.3       17 UNK         0.1400 
     96 CB         -4.1472  -23.6630  -53.4131 C.3       17 UNK        -0.1800 
     97 C          -6.4571  -23.5377  -52.3031 C.2       17 UNK         0.5000 
     98 O          -6.2630  -22.3264  -52.1568 O.2       17 UNK        -0.5000 
     99 N          -7.5398  -24.1807  -51.8402 N.am      18 UNK        -0.5000 
    100 CA        -8.7378  -23.6123  -51.2032 C.3       18 UNK         0.1400 
    101 CB        -9.4906  -22.7109  -52.2041 C.3       18 UNK        -0.1800 
    102 C         -8.4975  -22.8816  -49.8628 C.2       18 UNK         0.5000 
    103 O         -9.4328  -22.2773  -49.3368 O.2       18 UNK        -0.5000 
    104 N         -7.2603  -22.9298  -49.3436 N.am      19 UNK        -0.5000 
    105 CA        -6.7561  -22.1819  -48.1849 C.3       19 UNK         0.1400 
    106 CB        -7.4123  -22.6759  -46.8795 C.3       19 UNK        -0.1800 
    107 C         -6.8433  -20.6485  -48.3653 C.2       19 UNK         0.5000 
    108 O         -6.9677  -19.9252  -47.3762 O.2       19 UNK        -0.5000 
    109 N         -6.7895  -20.1818  -49.6226 N.am      20 UNK        -0.5000 
    110 CA        -7.0146  -18.7814  -49.9873 C.3       20 UNK         0.1400 
    111 CB        -8.4667  -18.6242  -50.4699 C.3       20 UNK        -0.1800 
    112 C         -6.0343  -18.2480  -51.0458 C.2       20 UNK         0.5000 
    113 O         -5.8441  -17.0323  -51.1049 O.2       20 UNK        -0.5000 
    114 N         -5.4512  -19.1284  -51.8722 N.am      21 UNK        -0.5000 
    115 CA        -4.5106  -18.7603  -52.9326 C.3       21 UNK         0.1400 
    116 CB        -4.7667  -19.6750  -54.1463 C.3       21 UNK        -0.1800 
    117 C         -3.0585  -18.7921  -52.4059 C.2       21 UNK         0.5000 
    118 O         -2.7434  -18.0776  -51.4539 O.2       21 UNK        -0.5000 
    119 N         -2.2107  -19.6238  -53.0189 N.am      22 UNK        -0.5000 
    120 CA        -0.8273  -19.9233  -52.6277 C.3       22 UNK         0.1400 
    121 C         -0.5877  -21.4506  -52.7540 C.2       22 UNK         0.5000 
    122 N          0.3463  -22.0067  -51.9979 N.am      22 UNK        -0.7600 
    123 O         -1.2142  -22.1353  -53.5593 O.2       22 UNK        -0.5000 
    124 C124        0.2003  -19.1545  -53.4995 C.3       23 UNK        -0.0398 
    125 S125        0.2886  -17.3718  -53.1191 S.3       23 UNK        -0.2404 
    126 C126        2.0775  -17.1271  -52.8709 C.3       23 UNK        -0.0205 
    127 H127        3.4829  -11.0640  -51.3725 H         1 UNK         0.0600 
    128 H128        2.2068  -11.6082  -50.2790 H         1 UNK         0.0600 
    129 H129        2.9511  -12.7494  -51.4018 H         1 UNK         0.0600 
    130 H130        2.9691  -11.7691  -48.1868 H         1 UNK         0.3000 
    131 H131        5.7775  -12.4184  -47.5953 H         1 UNK         0.0600 
    132 H132        5.0479  -13.9769  -45.7625 H         1 UNK         0.0800 
    133 H133        3.3880  -13.8513  -46.2759 H         1 UNK         0.0800 
    134 H134        2.5563  -16.1424  -47.1784 H         1 UNK         0.0800 
    135 H135        2.4121  -14.8922  -48.3948 H         1 UNK         0.0800 
    136 H136        2.1887  -15.5183  -50.6854 H         1 UNK         0.1150 
    137 H137        3.0123  -19.5355  -51.9436 H         1 UNK         0.1150 
    138 H138        3.7334  -18.3676  -47.8833 H         1 UNK         0.1150 
    139 H139        4.6793  -20.7792  -50.3247 H         1 UNK         0.0800 
    140 H140        4.4646  -20.5164  -48.6139 H         1 UNK         0.0800 
    141 H141        0.9261  -20.3261  -48.6235 H         1 UNK         0.0800 
    142 H142        2.1868  -20.6642  -47.4701 H         1 UNK         0.0800 
    143 H143        1.3469  -23.0166  -47.2081 H         1 UNK         0.0600 
    144 H144        0.1025  -20.6905  -46.1940 H         1 UNK         0.3000 
    145 H145       -2.2214  -22.2854  -43.9744 H         1 UNK         0.0600 
    146 H146       -1.0321  -20.7627  -42.4286 H         1 UNK         0.0600 
    147 H147       -0.0017  -22.1271  -42.8346 H         1 UNK         0.0600 
    148 H148        0.2821  -20.5605  -43.5845 H         1 UNK         0.0600 
    149 H149       -1.7847  -19.5368  -44.5411 H         1 UNK         0.3000 
    150 H150       -4.1691  -19.2568  -47.2284 H         1 UNK         0.0600 
    151 H151       -5.4081  -19.0784  -45.0660 H         1 UNK         0.0600 
    152 H152       -4.9879  -17.4952  -45.7010 H         1 UNK         0.0600 
    153 H153       -4.0689  -18.1785  -44.3614 H         1 UNK         0.0600 
    154 H154       -2.4957  -17.2942  -46.0850 H         1 UNK         0.3000 
    155 H155        0.3816  -17.8014  -48.1725 H         1 UNK         0.0600 
    156 H156       -1.1948  -16.3443  -49.4010 H         1 UNK         0.0600 
    157 H157       -0.0640  -15.3706  -48.4755 H         1 UNK         0.0600 
    158 H158       -1.7187  -15.5839  -47.9053 H         1 UNK         0.0600 
    159 H159       -0.2315  -16.0786  -45.9333 H         1 UNK         0.3000 
    160 H160        1.2281  -18.1432  -43.4359 H         1 UNK         0.0600 
    161 H161        2.2984  -15.5707  -44.7091 H         1 UNK         0.0600 
    162 H162        3.1890  -17.0866  -44.6182 H         1 UNK         0.0600 
    163 H163        2.7413  -16.2496  -43.1418 H         1 UNK         0.0600 
    164 H164        0.2707  -15.4688  -43.3071 H         1 UNK         0.3000 
    165 H165       -3.1702  -16.3062  -42.6586 H         1 UNK         0.0600 
    166 H166       -2.6503  -14.8148  -40.7645 H         1 UNK         0.0600 
    167 H167       -1.8445  -16.3589  -40.5393 H         1 UNK         0.0600 
    168 H168       -0.9207  -14.9606  -41.0725 H         1 UNK         0.0600 
    169 H169       -2.0819  -13.7543  -42.9722 H         1 UNK         0.3000 
    170 H170       -2.0814  -13.2960  -46.3752 H         1 UNK         0.0600 
    171 H171       -4.5152  -13.7356  -46.4682 H         1 UNK         0.0600 
    172 H172       -4.7547  -12.8711  -44.9548 H         1 UNK         0.0600 
    173 H173       -4.1985  -12.0111  -46.3909 H         1 UNK         0.0600 
    174 H174       -2.8793  -11.5726  -44.1849 H         1 UNK         0.3000 
    175 H175        0.0309  -13.5492  -45.1984 H         1 UNK         0.0600 
    176 H176        0.8168  -10.9096  -46.5424 H         1 UNK         0.0600 
    177 H177        1.3279  -12.5254  -47.0387 H         1 UNK         0.0600 
    178 H178       -0.3518  -12.0483  -47.1831 H         1 UNK         0.0600 
    179 H179        2.1540  -11.6521  -44.6357 H         1 UNK         0.3000 
    180 H180        2.5695  -11.8547  -41.5685 H         1 UNK         0.0600 
    181 H181        3.9569  -14.4892  -42.2791 H         1 UNK         0.0600 
    182 H182        2.7908  -14.2828  -40.9738 H         1 UNK         0.0600 
    183 H183        4.3298  -13.4445  -40.9146 H         1 UNK         0.0600 
    184 H184        4.4833  -12.5728  -43.7397 H         1 UNK         0.3000 
    185 H185        5.0977   -9.2429  -44.5871 H         1 UNK         0.0600 
    186 H186        6.6784   -9.4345  -42.6625 H         1 UNK         0.0600 
    187 H187        7.0446  -11.0965  -43.1088 H         1 UNK         0.0600 
    188 H188        7.4908   -9.7696  -44.1827 H         1 UNK         0.0600 
    189 H189        6.3196  -11.6965  -45.3975 H         1 UNK         0.3000 
    190 H190       -1.4947  -21.1714  -48.4198 H         1 UNK         0.3000 
    191 H191       -2.1256  -22.8455  -50.5960 H         1 UNK         0.0600 
    192 H192       -2.9759  -20.5487  -50.2906 H         1 UNK         0.0600 
    193 H193       -4.3132  -21.6670  -50.5116 H         1 UNK         0.0600 
    194 H194       -3.9264  -21.0412  -48.9075 H         1 UNK         0.0600 
    195 H195       -3.1579  -23.0665  -47.1586 H         1 UNK         0.3000 
    196 H196       -5.0167  -25.1873  -47.5109 H         1 UNK         0.0600 
    197 H197       -4.7716  -25.4727  -45.0485 H         1 UNK         0.0600 
    198 H198       -4.9477  -23.7777  -45.4725 H         1 UNK         0.0600 
    199 H199       -3.3638  -24.4186  -45.0476 H         1 UNK         0.0600 
    200 H200       -1.4993  -25.2060  -46.8203 H         1 UNK         0.3000 
    201 H201       -1.2005  -28.0497  -46.6724 H         1 UNK         0.0600 
    202 H202        0.4621  -26.4657  -45.7317 H         1 UNK         0.0600 
    203 H203        0.8470  -25.8688  -47.3433 H         1 UNK         0.0600 
    204 H204        1.2243  -27.5299  -46.9049 H         1 UNK         0.0600 
    205 H205       -0.9580  -25.7263  -49.3782 H         1 UNK         0.3000 
    206 H206       -0.2338  -27.6640  -51.3809 H         1 UNK         0.0600 
    207 H207        0.3003  -25.2283  -51.5317 H         1 UNK         0.0600 
    208 H208       -0.6268  -25.7588  -52.9269 H         1 UNK         0.0600 
    209 H209       -1.4186  -24.8497  -51.6489 H         1 UNK         0.0600 
    210 H210       -3.2254  -26.9820  -49.8855 H         1 UNK         0.3000 
    211 H211       -5.3420  -27.5184  -50.1395 H         1 UNK         0.0600 
    212 H212       -4.5467  -29.4901  -52.3455 H         1 UNK         0.0600 
    213 H213       -6.0532  -29.4740  -51.4419 H         1 UNK         0.0600 
    214 H214       -4.5479  -29.8477  -50.6187 H         1 UNK         0.0600 
    215 H215       -4.3881  -25.2373  -51.3270 H         1 UNK         0.3000 
    216 H216       -5.8664  -24.8467  -53.8918 H         1 UNK         0.0600 
    217 H217       -4.3768  -22.9481  -54.2019 H         1 UNK         0.0600 
    218 H218       -3.3855  -24.3369  -53.8062 H         1 UNK         0.0600 
    219 H219       -3.7047  -23.1159  -52.5801 H         1 UNK         0.0600 
    220 H220       -7.5693  -25.1812  -51.9851 H         1 UNK         0.3000 
    221 H221       -9.3845  -24.4591  -50.9693 H         1 UNK         0.0600 
    222 H222       -8.9274  -21.8068  -52.4380 H         1 UNK         0.0600 
    223 H223       -9.6852  -23.2361  -53.1391 H         1 UNK         0.0600 
    224 H224      -10.4560  -22.3980  -51.8046 H         1 UNK         0.0600 
    225 H225       -6.5706  -23.4522  -49.8644 H         1 UNK         0.3000 
    226 H226       -5.6958  -22.4090  -48.1100 H         1 UNK         0.0600 
    227 H227       -7.3237  -23.7575  -46.7789 H         1 UNK         0.0600 
    228 H228       -6.9294  -22.2303  -46.0089 H         1 UNK         0.0600 
    229 H229       -8.4705  -22.4184  -46.8332 H         1 UNK         0.0600 
    230 H230       -6.7073  -20.8481  -50.3790 H         1 UNK         0.3000 
    231 H231       -6.8790  -18.1435  -49.1114 H         1 UNK         0.0600 
    232 H232       -8.6684  -19.2475  -51.3420 H         1 UNK         0.0600 
    233 H233       -8.6809  -17.5907  -50.7454 H         1 UNK         0.0600 
    234 H234       -9.1733  -18.9053  -49.6887 H         1 UNK         0.0600 
    235 H235       -5.6528  -20.1146  -51.7850 H         1 UNK         0.3000 
    236 H236       -4.7003  -17.7357  -53.2591 H         1 UNK         0.0600 
    237 H237       -5.7937  -19.5744  -54.4981 H         1 UNK         0.0600 
    238 H238       -4.1172  -19.4195  -54.9846 H         1 UNK         0.0600 
    239 H239       -4.6082  -20.7233  -53.8994 H         1 UNK         0.0600 
    240 H240       -2.5619  -20.2205  -53.7557 H         1 UNK         0.3000 
    241 H241       -0.6812  -19.6602  -51.5775 H         1 UNK         0.0600 
    242 H242        0.5145  -22.9945  -52.0948 H         1 UNK         0.3800 
    243 H243        0.8983  -21.4779  -51.3404 H         1 UNK         0.3800 
    244 H244        1.1957  -19.5833  -53.3821 H         1 UNK         0.0800 
    245 H245       -0.0416  -19.2667  -54.5577 H         1 UNK         0.0800 
    246 H246        2.3103  -16.0786  -53.0632 H         1 UNK         0.0800 
    247 H247        2.6413  -17.6952  -53.6123 H         1 UNK         0.0800 
@<TRIPOS>BOND
     1    1    2 1    
     2    1  127 1    
     3    1  128 1    
     4    1  129 1    
     5    2    3 2    
     6    2    4 am   BACKBONE|DICT|INTERRES
     7    4    5 1    
     8    4  130 1    
     9    5    6 1    
    10    5   65 1    
    11    5  131 1    
    12    6    7 1    
    13    6  132 1    
    14    6  133 1    
    15    7    8 1    
    16    8    9 1    
    17    8  134 1    
    18    8  135 1    
    19    9   10 ar   
    20    9   14 ar   
    21   10   11 ar   
    22   10  136 1    
    23   11   12 ar   
    24   11  126 1    
    25   12   13 ar   
    26   12  137 1    
    27   13   14 ar   
    28   13   15 1    
    29   14  138 1    
    30   15   16 1    
    31   15  139 1    
    32   15  140 1    
    33   16   17 1    
    34   17   18 1    
    35   17  141 1    
    36   17  142 1    
    37   18   19 1    
    38   18   67 1    
    39   18  143 1    
    40   19   20 am   BACKBONE|DICT|INTERRES
    41   19  144 1    
    42   20   21 2    
    43   20   22 1    
    44   22   23 1    
    45   22   24 1    
    46   22  145 1    
    47   23  146 1    
    48   23  147 1    
    49   23  148 1    
    50   24   25 am   BACKBONE|DICT|INTERRES
    51   24  149 1    
    52   25   26 2    
    53   25   27 1    
    54   27   28 1    
    55   27   29 1    
    56   27  150 1    
    57   28  151 1    
    58   28  152 1    
    59   28  153 1    
    60   29   30 am   BACKBONE|DICT|INTERRES
    61   29  154 1    
    62   30   31 2    
    63   30   32 1    
    64   32   33 1    
    65   32   34 1    
    66   32  155 1    
    67   33  156 1    
    68   33  157 1    
    69   33  158 1    
    70   34   35 am   BACKBONE|DICT|INTERRES
    71   34  159 1    
    72   35   36 2    
    73   35   37 1    
    74   37   38 1    
    75   37   39 1    
    76   37  160 1    
    77   38  161 1    
    78   38  162 1    
    79   38  163 1    
    80   39   40 am   BACKBONE|DICT|INTERRES
    81   39  164 1    
    82   40   41 2    
    83   40   42 1    
    84   42   43 1    
    85   42   44 1    
    86   42  165 1    
    87   43  166 1    
    88   43  167 1    
    89   43  168 1    
    90   44   45 am   BACKBONE|DICT|INTERRES
    91   44  169 1    
    92   45   46 2    
    93   45   47 1    
    94   47   48 1    
    95   47   49 1    
    96   47  170 1    
    97   48  171 1    
    98   48  172 1    
    99   48  173 1    
   100   49   50 am   BACKBONE|DICT|INTERRES
   101   49  174 1    
   102   50   51 2    
   103   50   52 1    
   104   52   53 1    
   105   52   54 1    
   106   52  175 1    
   107   53  176 1    
   108   53  177 1    
   109   53  178 1    
   110   54   55 am   BACKBONE|DICT|INTERRES
   111   54  179 1    
   112   55   56 2    
   113   55   57 1    
   114   57   58 1    
   115   57   59 1    
   116   57  180 1    
   117   58  181 1    
   118   58  182 1    
   119   58  183 1    
   120   59   60 am   BACKBONE|DICT|INTERRES
   121   59  184 1    
   122   60   61 2    
   123   60   62 1    
   124   62   63 1    
   125   62   64 1    
   126   62  185 1    
   127   63  186 1    
   128   63  187 1    
   129   63  188 1    
   130   64   65 am   BACKBONE|DICT|INTERRES
   131   64  189 1    
   132   65   66 2    
   133   67   68 2    
   134   67   69 am   BACKBONE|DICT|INTERRES
   135   69   70 1    
   136   69  190 1    
   137   70   71 1    
   138   70   72 1    
   139   70  191 1    
   140   71  192 1    
   141   71  193 1    
   142   71  194 1    
   143   72   73 2    
   144   72   74 am   BACKBONE|DICT|INTERRES
   145   74   75 1    
   146   74  195 1    
   147   75   76 1    
   148   75   77 1    
   149   75  196 1    
   150   76  197 1    
   151   76  198 1    
   152   76  199 1    
   153   77   78 2    
   154   77   79 am   BACKBONE|DICT|INTERRES
   155   79   80 1    
   156   79  200 1    
   157   80   81 1    
   158   80   82 1    
   159   80  201 1    
   160   81  202 1    
   161   81  203 1    
   162   81  204 1    
   163   82   83 2    
   164   82   84 am   BACKBONE|DICT|INTERRES
   165   84   85 1    
   166   84  205 1    
   167   85   86 1    
   168   85   87 1    
   169   85  206 1    
   170   86  207 1    
   171   86  208 1    
   172   86  209 1    
   173   87   88 2    
   174   87   89 am   BACKBONE|DICT|INTERRES
   175   89   90 1    
   176   89  210 1    
   177   90   91 1    
   178   90   92 1    
   179   90  211 1    
   180   91  212 1    
   181   91  213 1    
   182   91  214 1    
   183   92   93 2    
   184   92   94 am   BACKBONE|DICT|INTERRES
   185   94   95 1    
   186   94  215 1    
   187   95   96 1    
   188   95   97 1    
   189   95  216 1    
   190   96  217 1    
   191   96  218 1    
   192   96  219 1    
   193   97   98 2    
   194   97   99 am   BACKBONE|DICT|INTERRES
   195   99  100 1    
   196   99  220 1    
   197  100  101 1    
   198  100  102 1    
   199  100  221 1    
   200  101  222 1    
   201  101  223 1    
   202  101  224 1    
   203  102  103 2    
   204  102  104 am   BACKBONE|DICT|INTERRES
   205  104  105 1    
   206  104  225 1    
   207  105  106 1    
   208  105  107 1    
   209  105  226 1    
   210  106  227 1    
   211  106  228 1    
   212  106  229 1    
   213  107  108 2    
   214  107  109 am   BACKBONE|DICT|INTERRES
   215  109  110 1    
   216  109  230 1    
   217  110  111 1    
   218  110  112 1    
   219  110  231 1    
   220  111  232 1    
   221  111  233 1    
   222  111  234 1    
   223  112  113 2    
   224  112  114 am   BACKBONE|DICT|INTERRES
   225  114  115 1    
   226  114  235 1    
   227  115  116 1    
   228  115  117 1    
   229  115  236 1    
   230  116  237 1    
   231  116  238 1    
   232  116  239 1    
   233  117  118 2    
   234  117  119 am   BACKBONE|DICT|INTERRES
   235  119  120 1    
   236  119  240 1    
   237  120  121 1    
   238  120  124 1    
   239  120  241 1    
   240  121  122 am   BACKBONE|DICT|INTERRES
   241  121  123 2    
   242  122  242 1    
   243  122  243 1    
   244  124  125 1    
   245  124  244 1    
   246  124  245 1    
   247  125  126 1    
   248  126  246 1    
   249  126  247 1    
@<TRIPOS>SUBSTRUCTURE
     1 UNK         1 GROUP             0       ****    0 ROOT    
