@<TRIPOS>MOLECULE
3R540
247   249    1
SMALL
USER_CHARGES


@<TRIPOS>ATOM
      1 CA         -2.5699  -11.8109  -49.9174 C.3       0 UNK        -0.1800 
      2 C          -1.8547  -12.5435  -48.7926 C.2       0 UNK         0.5000 
      3 O          -0.7780  -13.0991  -49.0117 O.2       0 UNK        -0.5000 
      4 N          -2.4328  -12.5233  -47.5827 N.am      1 UNK        -0.5000 
      5 CA         -1.9223  -13.2161  -46.3900 C.3       1 UNK         0.1400 
      6 C6         -2.9194  -13.1401  -45.2012 C.3       23 UNK        -0.0398 
      7 S7         -2.9434  -14.6766  -44.2117 S.3       23 UNK        -0.2404 
      8 C8         -4.6634  -15.2551  -44.4096 C.3       23 UNK        -0.0205 
      9 C9         -4.8953  -16.0967  -45.6622 C.ar      23 UNK        -0.0193 
     10 C10        -4.7010  -15.5553  -46.9372 C.ar      23 UNK        -0.1150 
     11 C11        -4.9702  -16.3064  -48.0824 C.ar      23 UNK        -0.0193 
     12 C12        -5.4615  -17.6066  -47.9518 C.ar      23 UNK        -0.1150 
     13 C13        -5.6831  -18.1567  -46.6868 C.ar      23 UNK        -0.0193 
     14 C14        -5.3795  -17.4054  -45.5465 C.ar      23 UNK        -0.1150 
     15 C15        -6.3164  -19.5344  -46.5661 C.3       23 UNK        -0.0205 
     16 S16        -5.1434  -20.8667  -46.9459 S.3       23 UNK        -0.2404 
     17 C17        -4.3868  -21.1505  -45.3120 C.3       23 UNK        -0.0398 
     18 CA         -3.0927  -21.9994  -45.3919 C.3       11 UNK         0.1400 
     19 N          -2.2955  -21.9664  -44.1642 N.am      11 UNK        -0.5000 
     20 C          -2.6458  -22.3286  -42.9217 C.2       10 UNK         0.5000 
     21 O          -3.7532  -22.7790  -42.6275 O.2       10 UNK        -0.5000 
     22 CA         -1.5755  -22.1643  -41.8293 C.3       10 UNK         0.1400 
     23 CB         -0.5947  -23.3451  -41.8578 C.3       10 UNK        -0.1800 
     24 N          -0.8321  -20.9189  -42.0174 N.am      10 UNK        -0.5000 
     25 C          -0.9579  -19.8286  -41.2483 C.2       9 UNK         0.5000 
     26 O          -1.6140  -19.7935  -40.2065 O.2       9 UNK        -0.5000 
     27 CA         -0.2523  -18.5455  -41.7378 C.3       9 UNK         0.1400 
     28 CB          1.1466  -18.4275  -41.1152 C.3       9 UNK        -0.1800 
     29 N          -0.1361  -18.4647  -43.1959 N.am      9 UNK        -0.5000 
     30 C          -1.1749  -18.4435  -44.0447 C.2       8 UNK         0.5000 
     31 O          -2.3500  -18.4003  -43.6823 O.2       8 UNK        -0.5000 
     32 CA         -0.8600  -18.5333  -45.5488 C.3       8 UNK         0.1400 
     33 CB         -0.9956  -17.1479  -46.1950 C.3       8 UNK        -0.1800 
     34 N           0.4531  -19.1063  -45.8787 N.am      8 UNK        -0.5000 
     35 C           0.8634  -20.3500  -45.5830 C.2       7 UNK         0.5000 
     36 O           0.2079  -21.1303  -44.8932 O.2       7 UNK        -0.5000 
     37 CA          2.2287  -20.8057  -46.1207 C.3       7 UNK         0.1400 
     38 CB          2.1062  -21.2961  -47.5701 C.3       7 UNK        -0.1800 
     39 N           3.2148  -19.7302  -46.0575 N.am      7 UNK        -0.5000 
     40 C           4.3517  -19.7751  -45.3500 C.2       6 UNK         0.5000 
     41 O           4.7281  -20.7617  -44.7157 O.2       6 UNK        -0.5000 
     42 CA          5.2206  -18.4997  -45.3320 C.3       6 UNK         0.1400 
     43 CB          6.3360  -18.5964  -46.3840 C.3       6 UNK        -0.1800 
     44 N           4.4684  -17.2629  -45.5528 N.am      6 UNK        -0.5000 
     45 C           3.4846  -16.8069  -44.7660 C.2       5 UNK         0.5000 
     46 O           3.1216  -17.3631  -43.7294 O.2       5 UNK        -0.5000 
     47 CA          2.7571  -15.5322  -45.2269 C.3       5 UNK         0.1400 
     48 CB          3.4356  -14.3000  -44.6073 C.3       5 UNK        -0.1800 
     49 N           2.6412  -15.3300  -46.6789 N.am      5 UNK        -0.5000 
     50 C           2.2422  -16.2102  -47.6106 C.2       4 UNK         0.5000 
     51 O           2.0571  -17.4062  -47.3805 O.2       4 UNK        -0.5000 
     52 CA          2.0000  -15.6728  -49.0371 C.3       4 UNK         0.1400 
     53 CB          0.7174  -16.2550  -49.6553 C.3       4 UNK        -0.1800 
     54 N           1.9097  -14.2125  -49.0864 N.am      4 UNK        -0.5000 
     55 C           2.9315  -13.3815  -49.3212 C.2       3 UNK         0.5000 
     56 O           4.0914  -13.7528  -49.4919 O.2       3 UNK        -0.5000 
     57 CA          2.5991  -11.8818  -49.3367 C.3       3 UNK         0.1400 
     58 CB          1.9298  -11.4835  -50.6618 C.3       3 UNK        -0.1800 
     59 N           1.7250  -11.5184  -48.2219 N.am      3 UNK        -0.5000 
     60 C           2.1557  -11.2250  -46.9874 C.2       2 UNK         0.5000 
     61 O           3.3426  -11.2334  -46.6612 O.2       2 UNK        -0.5000 
     62 CA          1.0903  -10.8487  -45.9394 C.3       2 UNK         0.1400 
     63 CB          0.9268   -9.3230  -45.8683 C.3       2 UNK        -0.1800 
     64 N          -0.2144  -11.4532  -46.2091 N.am      2 UNK        -0.5000 
     65 C          -0.5194  -12.7347  -45.9606 C.2       1 UNK         0.5000 
     66 O           0.2567  -13.5264  -45.4324 O.2       1 UNK        -0.5000 
     67 C          -3.3372  -23.4385  -45.8918 C.2       11 UNK         0.5000 
     68 O          -2.9139  -23.7733  -47.0002 O.2       11 UNK        -0.5000 
     69 N          -3.9834  -24.2609  -45.0569 N.am      12 UNK        -0.5000 
     70 CA         -4.3742  -25.6450  -45.3351 C.3       12 UNK         0.1400 
     71 CB         -5.4704  -26.0492  -44.3368 C.3       12 UNK        -0.1800 
     72 C          -3.2054  -26.6502  -45.2959 C.2       12 UNK         0.5000 
     73 O          -3.3887  -27.8036  -45.6861 O.2       12 UNK        -0.5000 
     74 N          -2.0263  -26.2065  -44.8371 N.am      13 UNK        -0.5000 
     75 CA         -0.7784  -26.9766  -44.8380 C.3       13 UNK         0.1400 
     76 CB          0.2382  -26.2721  -43.9268 C.3       13 UNK        -0.1800 
     77 C          -0.1835  -27.1793  -46.2479 C.2       13 UNK         0.5000 
     78 O           0.6980  -28.0229  -46.4165 O.2       13 UNK        -0.5000 
     79 N          -0.6675  -26.4062  -47.2252 N.am      14 UNK        -0.5000 
     80 CA         -0.3136  -26.4792  -48.6360 C.3       14 UNK         0.1400 
     81 CB          0.7120  -25.3734  -48.9422 C.3       14 UNK        -0.1800 
     82 C          -1.5964  -26.3455  -49.4760 C.2       14 UNK         0.5000 
     83 O          -2.7017  -26.3788  -48.9274 O.2       14 UNK        -0.5000 
     84 N          -1.4390  -26.1875  -50.7967 N.am      15 UNK        -0.5000 
     85 CA         -2.5176  -25.9957  -51.7718 C.3       15 UNK         0.1400 
     86 CB         -1.9611  -26.2789  -53.1791 C.3       15 UNK        -0.1800 
     87 C          -3.1594  -24.5945  -51.6661 C.2       15 UNK         0.5000 
     88 O          -3.0168  -23.7820  -52.5827 O.2       15 UNK        -0.5000 
     89 N          -3.8091  -24.3346  -50.5212 N.am      16 UNK        -0.5000 
     90 CA         -4.4600  -23.0905  -50.1007 C.3       16 UNK         0.1400 
     91 CB         -5.7552  -22.8562  -50.8979 C.3       16 UNK        -0.1800 
     92 C          -3.4819  -21.9061  -50.1710 C.2       16 UNK         0.5000 
     93 O          -3.4879  -21.1461  -51.1425 O.2       16 UNK        -0.5000 
     94 N          -2.5885  -21.8464  -49.1745 N.am      17 UNK        -0.5000 
     95 CA         -1.4627  -20.9092  -49.0695 C.3       17 UNK         0.1400 
     96 CB         -1.9543  -19.4485  -49.0015 C.3       17 UNK        -0.1800 
     97 C          -0.4018  -21.1289  -50.1698 C.2       17 UNK         0.5000 
     98 O           0.3333  -20.2030  -50.5111 O.2       17 UNK        -0.5000 
     99 N          -0.3546  -22.3616  -50.7018 N.am      18 UNK        -0.5000 
    100 CA         0.5159  -22.8456  -51.7800 C.3       18 UNK         0.1400 
    101 CB         1.9931  -22.8220  -51.3306 C.3       18 UNK        -0.1800 
    102 C          0.3063  -22.1138  -53.1241 C.2       18 UNK         0.5000 
    103 O          1.2085  -22.1198  -53.9640 O.2       18 UNK        -0.5000 
    104 N         -0.8609  -21.4824  -53.3037 N.am      19 UNK        -0.5000 
    105 CA        -1.1246  -20.5510  -54.3975 C.3       19 UNK         0.1400 
    106 CB        -0.5587  -19.1661  -54.0229 C.3       19 UNK        -0.1800 
    107 C         -2.6113  -20.4931  -54.7857 C.2       19 UNK         0.5000 
    108 O         -3.0199  -19.5183  -55.4176 O.2       19 UNK        -0.5000 
    109 N         -3.4016  -21.5130  -54.4137 N.am      20 UNK        -0.5000 
    110 CA        -4.8344  -21.6459  -54.7095 C.3       20 UNK         0.1400 
    111 CB        -5.0558  -21.9013  -56.2154 C.3       20 UNK        -0.1800 
    112 C         -5.6619  -20.4597  -54.1654 C.2       20 UNK         0.5000 
    113 O         -6.4553  -19.8648  -54.8969 O.2       20 UNK        -0.5000 
    114 N         -5.4225  -20.1355  -52.8877 N.am      21 UNK        -0.5000 
    115 CA        -5.9410  -18.9960  -52.1309 C.3       21 UNK         0.1400 
    116 CB        -7.4831  -18.9852  -52.0724 C.3       21 UNK        -0.1800 
    117 C         -5.3182  -17.6699  -52.6055 C.2       21 UNK         0.5000 
    118 O         -6.0344  -16.7083  -52.8906 O.2       21 UNK        -0.5000 
    119 N         -3.9788  -17.6485  -52.6349 N.am      22 UNK        -0.5000 
    120 CA        -3.1338  -16.4658  -52.8870 C.3       22 UNK         0.1400 
    121 C         -3.2384  -15.8929  -54.3341 C.2       22 UNK         0.5000 
    122 N         -3.4607  -16.7153  -55.3507 N.am      22 UNK        -0.7600 
    123 O         -3.1004  -14.6916  -54.5519 O.2       22 UNK        -0.5000 
    124 C124       -3.2762  -15.3636  -51.7961 C.3       23 UNK        -0.0398 
    125 S125       -3.0962  -15.9913  -50.0894 S.3       23 UNK        -0.2404 
    126 C126       -4.7747  -15.6958  -49.4587 C.3       23 UNK        -0.0205 
    127 H127       -2.8781  -12.5180  -50.6869 H         1 UNK         0.0600 
    128 H128       -3.4575  -11.2873  -49.5610 H         1 UNK         0.0600 
    129 H129       -1.9017  -11.0794  -50.3725 H         1 UNK         0.0600 
    130 H130       -3.3024  -12.0233  -47.4660 H         1 UNK         0.3000 
    131 H131       -1.8139  -14.2614  -46.6885 H         1 UNK         0.0600 
    132 H132       -3.9301  -12.9400  -45.5560 H         1 UNK         0.0800 
    133 H133       -2.6944  -12.3030  -44.5373 H         1 UNK         0.0800 
    134 H134       -5.3486  -14.4067  -44.4086 H         1 UNK         0.0800 
    135 H135       -4.9136  -15.8379  -43.5219 H         1 UNK         0.0800 
    136 H136       -4.3527  -14.5426  -47.0521 H         1 UNK         0.1150 
    137 H137       -5.6927  -18.1855  -48.8344 H         1 UNK         0.1150 
    138 H138       -5.5549  -17.8283  -44.5673 H         1 UNK         0.1150 
    139 H139       -6.7418  -19.6844  -45.5726 H         1 UNK         0.0800 
    140 H140       -7.1526  -19.6009  -47.2637 H         1 UNK         0.0800 
    141 H141       -5.1256  -21.6123  -44.6554 H         1 UNK         0.0800 
    142 H142       -4.1554  -20.1783  -44.8744 H         1 UNK         0.0800 
    143 H143       -2.4518  -21.5262  -46.1367 H         1 UNK         0.0600 
    144 H144       -1.3343  -21.6644  -44.3160 H         1 UNK         0.3000 
    145 H145       -2.0847  -22.1704  -40.8634 H         1 UNK         0.0600 
    146 H146        0.1292  -23.2723  -41.0461 H         1 UNK         0.0600 
    147 H147       -1.1222  -24.2921  -41.7385 H         1 UNK         0.0600 
    148 H148       -0.0398  -23.3861  -42.7956 H         1 UNK         0.0600 
    149 H149       -0.2851  -20.8437  -42.8664 H         1 UNK         0.3000 
    150 H150       -0.8498  -17.6946  -41.4044 H         1 UNK         0.0600 
    151 H151        1.0983  -18.4873  -40.0272 H         1 UNK         0.0600 
    152 H152        1.6096  -17.4730  -41.3663 H         1 UNK         0.0600 
    153 H153        1.8091  -19.2223  -41.4605 H         1 UNK         0.0600 
    154 H154        0.7998  -18.4772  -43.5777 H         1 UNK         0.3000 
    155 H155       -1.6145  -19.1847  -45.9923 H         1 UNK         0.0600 
    156 H156       -0.3351  -16.4161  -45.7300 H         1 UNK         0.0600 
    157 H157       -2.0166  -16.7791  -46.0999 H         1 UNK         0.0600 
    158 H158       -0.7692  -17.1753  -47.2574 H         1 UNK         0.0600 
    159 H159        1.0544  -18.5160  -46.4508 H         1 UNK         0.3000 
    160 H160        2.5418  -21.6531  -45.5074 H         1 UNK         0.0600 
    161 H161        3.0499  -21.7109  -47.9244 H         1 UNK         0.0600 
    162 H162        1.8292  -20.4835  -48.2422 H         1 UNK         0.0600 
    163 H163        1.3541  -22.0808  -47.6601 H         1 UNK         0.0600 
    164 H164        2.9775  -18.8680  -46.5396 H         1 UNK         0.3000 
    165 H165        5.6832  -18.4341  -44.3452 H         1 UNK         0.0600 
    166 H166        7.0102  -17.7418  -46.3251 H         1 UNK         0.0600 
    167 H167        6.9377  -19.4940  -46.2347 H         1 UNK         0.0600 
    168 H168        5.9307  -18.6373  -47.3959 H         1 UNK         0.0600 
    169 H169        4.6830  -16.7450  -46.3920 H         1 UNK         0.3000 
    170 H170        1.7425  -15.5972  -44.8321 H         1 UNK         0.0600 
    171 H171        3.5272  -14.4036  -43.5252 H         1 UNK         0.0600 
    172 H172        4.4376  -14.1483  -45.0104 H         1 UNK         0.0600 
    173 H173        2.8609  -13.3938  -44.7935 H         1 UNK         0.0600 
    174 H174        2.7571  -14.3768  -46.9886 H         1 UNK         0.3000 
    175 H175        2.8418  -16.0098  -49.6451 H         1 UNK         0.0600 
    176 H176       -0.1698  -15.9334  -49.1101 H         1 UNK         0.0600 
    177 H177        0.5997  -15.9340  -50.6902 H         1 UNK         0.0600 
    178 H178        0.7317  -17.3458  -49.6582 H         1 UNK         0.0600 
    179 H179        0.9786  -13.8194  -48.9696 H         1 UNK         0.3000 
    180 H180        3.5364  -11.3266  -49.2563 H         1 UNK         0.0600 
    181 H181        0.9816  -12.0007  -50.8117 H         1 UNK         0.0600 
    182 H182        2.5717  -11.7247  -51.5098 H         1 UNK         0.0600 
    183 H183        1.7348  -10.4116  -50.6968 H         1 UNK         0.0600 
    184 H184        0.7301  -11.5652  -48.3942 H         1 UNK         0.3000 
    185 H185        1.4440  -11.1971  -44.9667 H         1 UNK         0.0600 
    186 H186        1.8776   -8.8384  -45.6424 H         1 UNK         0.0600 
    187 H187        0.5648   -8.9115  -46.8113 H         1 UNK         0.0600 
    188 H188        0.2243   -9.0378  -45.0850 H         1 UNK         0.0600 
    189 H189       -0.9105  -10.8661  -46.6449 H         1 UNK         0.3000 
    190 H190       -4.2231  -23.8968  -44.1387 H         1 UNK         0.3000 
    191 H191       -4.7951  -25.6837  -46.3422 H         1 UNK         0.0600 
    192 H192       -5.1081  -26.0160  -43.3085 H         1 UNK         0.0600 
    193 H193       -5.8238  -27.0632  -44.5289 H         1 UNK         0.0600 
    194 H194       -6.3336  -25.3874  -44.4101 H         1 UNK         0.0600 
    195 H195       -1.9693  -25.2479  -44.5294 H         1 UNK         0.3000 
    196 H196       -0.9831  -27.9660  -44.4239 H         1 UNK         0.0600 
    197 H197        0.4683  -25.2675  -44.2832 H         1 UNK         0.0600 
    198 H198        1.1765  -26.8268  -43.8846 H         1 UNK         0.0600 
    199 H199       -0.1345  -26.1960  -42.9057 H         1 UNK         0.0600 
    200 H200       -1.4500  -25.7977  -47.0187 H         1 UNK         0.3000 
    201 H201        0.1232  -27.4529  -48.8667 H         1 UNK         0.0600 
    202 H202        1.0670  -25.4327  -49.9707 H         1 UNK         0.0600 
    203 H203        1.5884  -25.4641  -48.3001 H         1 UNK         0.0600 
    204 H204        0.2902  -24.3805  -48.7845 H         1 UNK         0.0600 
    205 H205       -0.5028  -26.1920  -51.1733 H         1 UNK         0.3000 
    206 H206       -3.3028  -26.7280  -51.5718 H         1 UNK         0.0600 
    207 H207       -1.5781  -27.2967  -53.2544 H         1 UNK         0.0600 
    208 H208       -2.7392  -26.1704  -53.9359 H         1 UNK         0.0600 
    209 H209       -1.1522  -25.5955  -53.4406 H         1 UNK         0.0600 
    210 H210       -3.7622  -25.0604  -49.8099 H         1 UNK         0.3000 
    211 H211       -4.7418  -23.2160  -49.0542 H         1 UNK         0.0600 
    212 H212       -5.5726  -22.8262  -51.9693 H         1 UNK         0.0600 
    213 H213       -6.2262  -21.9148  -50.6124 H         1 UNK         0.0600 
    214 H214       -6.4772  -23.6506  -50.7095 H         1 UNK         0.0600 
    215 H215       -2.6552  -22.5466  -48.4394 H         1 UNK         0.3000 
    216 H216       -0.9676  -21.1323  -48.1242 H         1 UNK         0.0600 
    217 H217       -2.6918  -19.3092  -48.2113 H         1 UNK         0.0600 
    218 H218       -2.4040  -19.1203  -49.9384 H         1 UNK         0.0600 
    219 H219       -1.1242  -18.7744  -48.7979 H         1 UNK         0.0600 
    220 H220       -1.0369  -23.0235  -50.3645 H         1 UNK         0.3000 
    221 H221        0.2361  -23.8847  -51.9549 H         1 UNK         0.0600 
    222 H222        2.3794  -21.8039  -51.2718 H         1 UNK         0.0600 
    223 H223        2.1245  -23.2793  -50.3510 H         1 UNK         0.0600 
    224 H224        2.6242  -23.3693  -52.0315 H         1 UNK         0.0600 
    225 H225       -1.5652  -21.5385  -52.5780 H         1 UNK         0.3000 
    226 H226       -0.6113  -20.8970  -55.2968 H         1 UNK         0.0600 
    227 H227       -0.9761  -18.8151  -53.0795 H         1 UNK         0.0600 
    228 H228        0.5245  -19.2032  -53.9069 H         1 UNK         0.0600 
    229 H229       -0.7709  -18.4169  -54.7865 H         1 UNK         0.0600 
    230 H230       -3.0081  -22.2711  -53.8626 H         1 UNK         0.3000 
    231 H231       -5.1770  -22.5359  -54.1823 H         1 UNK         0.0600 
    232 H232       -4.4775  -22.7594  -56.5578 H         1 UNK         0.0600 
    233 H233       -4.7700  -21.0410  -56.8215 H         1 UNK         0.0600 
    234 H234       -6.1049  -22.1136  -56.4243 H         1 UNK         0.0600 
    235 H235       -4.7091  -20.6687  -52.3927 H         1 UNK         0.3000 
    236 H236       -5.5888  -19.1410  -51.1085 H         1 UNK         0.0600 
    237 H237       -7.8362  -18.2235  -51.3764 H         1 UNK         0.0600 
    238 H238       -7.9305  -18.7680  -53.0422 H         1 UNK         0.0600 
    239 H239       -7.8711  -19.9440  -51.7288 H         1 UNK         0.0600 
    240 H240       -3.4861  -18.4953  -52.3936 H         1 UNK         0.3000 
    241 H241       -2.1080  -16.8243  -52.8155 H         1 UNK         0.0600 
    242 H242       -3.4928  -17.7244  -55.2237 H         1 UNK         0.3800 
    243 H243       -3.5261  -16.3366  -56.2814 H         1 UNK         0.3800 
    244 H244       -2.5072  -14.6027  -51.9379 H         1 UNK         0.0800 
    245 H245       -4.2306  -14.8456  -51.9019 H         1 UNK         0.0800 
    246 H246       -4.9594  -14.6211  -49.4223 H         1 UNK         0.0800 
    247 H247       -5.5096  -16.1089  -50.1497 H         1 UNK         0.0800 
@<TRIPOS>BOND
     1    1    2 1    
     2    1  127 1    
     3    1  128 1    
     4    1  129 1    
     5    2    3 2    
     6    2    4 am   BACKBONE|DICT|INTERRES
     7    4    5 1    
     8    4  130 1    
     9    5    6 1    
    10    5   65 1    
    11    5  131 1    
    12    6    7 1    
    13    6  132 1    
    14    6  133 1    
    15    7    8 1    
    16    8    9 1    
    17    8  134 1    
    18    8  135 1    
    19    9   10 ar   
    20    9   14 ar   
    21   10   11 ar   
    22   10  136 1    
    23   11   12 ar   
    24   11  126 1    
    25   12   13 ar   
    26   12  137 1    
    27   13   14 ar   
    28   13   15 1    
    29   14  138 1    
    30   15   16 1    
    31   15  139 1    
    32   15  140 1    
    33   16   17 1    
    34   17   18 1    
    35   17  141 1    
    36   17  142 1    
    37   18   19 1    
    38   18   67 1    
    39   18  143 1    
    40   19   20 am   BACKBONE|DICT|INTERRES
    41   19  144 1    
    42   20   21 2    
    43   20   22 1    
    44   22   23 1    
    45   22   24 1    
    46   22  145 1    
    47   23  146 1    
    48   23  147 1    
    49   23  148 1    
    50   24   25 am   BACKBONE|DICT|INTERRES
    51   24  149 1    
    52   25   26 2    
    53   25   27 1    
    54   27   28 1    
    55   27   29 1    
    56   27  150 1    
    57   28  151 1    
    58   28  152 1    
    59   28  153 1    
    60   29   30 am   BACKBONE|DICT|INTERRES
    61   29  154 1    
    62   30   31 2    
    63   30   32 1    
    64   32   33 1    
    65   32   34 1    
    66   32  155 1    
    67   33  156 1    
    68   33  157 1    
    69   33  158 1    
    70   34   35 am   BACKBONE|DICT|INTERRES
    71   34  159 1    
    72   35   36 2    
    73   35   37 1    
    74   37   38 1    
    75   37   39 1    
    76   37  160 1    
    77   38  161 1    
    78   38  162 1    
    79   38  163 1    
    80   39   40 am   BACKBONE|DICT|INTERRES
    81   39  164 1    
    82   40   41 2    
    83   40   42 1    
    84   42   43 1    
    85   42   44 1    
    86   42  165 1    
    87   43  166 1    
    88   43  167 1    
    89   43  168 1    
    90   44   45 am   BACKBONE|DICT|INTERRES
    91   44  169 1    
    92   45   46 2    
    93   45   47 1    
    94   47   48 1    
    95   47   49 1    
    96   47  170 1    
    97   48  171 1    
    98   48  172 1    
    99   48  173 1    
   100   49   50 am   BACKBONE|DICT|INTERRES
   101   49  174 1    
   102   50   51 2    
   103   50   52 1    
   104   52   53 1    
   105   52   54 1    
   106   52  175 1    
   107   53  176 1    
   108   53  177 1    
   109   53  178 1    
   110   54   55 am   BACKBONE|DICT|INTERRES
   111   54  179 1    
   112   55   56 2    
   113   55   57 1    
   114   57   58 1    
   115   57   59 1    
   116   57  180 1    
   117   58  181 1    
   118   58  182 1    
   119   58  183 1    
   120   59   60 am   BACKBONE|DICT|INTERRES
   121   59  184 1    
   122   60   61 2    
   123   60   62 1    
   124   62   63 1    
   125   62   64 1    
   126   62  185 1    
   127   63  186 1    
   128   63  187 1    
   129   63  188 1    
   130   64   65 am   BACKBONE|DICT|INTERRES
   131   64  189 1    
   132   65   66 2    
   133   67   68 2    
   134   67   69 am   BACKBONE|DICT|INTERRES
   135   69   70 1    
   136   69  190 1    
   137   70   71 1    
   138   70   72 1    
   139   70  191 1    
   140   71  192 1    
   141   71  193 1    
   142   71  194 1    
   143   72   73 2    
   144   72   74 am   BACKBONE|DICT|INTERRES
   145   74   75 1    
   146   74  195 1    
   147   75   76 1    
   148   75   77 1    
   149   75  196 1    
   150   76  197 1    
   151   76  198 1    
   152   76  199 1    
   153   77   78 2    
   154   77   79 am   BACKBONE|DICT|INTERRES
   155   79   80 1    
   156   79  200 1    
   157   80   81 1    
   158   80   82 1    
   159   80  201 1    
   160   81  202 1    
   161   81  203 1    
   162   81  204 1    
   163   82   83 2    
   164   82   84 am   BACKBONE|DICT|INTERRES
   165   84   85 1    
   166   84  205 1    
   167   85   86 1    
   168   85   87 1    
   169   85  206 1    
   170   86  207 1    
   171   86  208 1    
   172   86  209 1    
   173   87   88 2    
   174   87   89 am   BACKBONE|DICT|INTERRES
   175   89   90 1    
   176   89  210 1    
   177   90   91 1    
   178   90   92 1    
   179   90  211 1    
   180   91  212 1    
   181   91  213 1    
   182   91  214 1    
   183   92   93 2    
   184   92   94 am   BACKBONE|DICT|INTERRES
   185   94   95 1    
   186   94  215 1    
   187   95   96 1    
   188   95   97 1    
   189   95  216 1    
   190   96  217 1    
   191   96  218 1    
   192   96  219 1    
   193   97   98 2    
   194   97   99 am   BACKBONE|DICT|INTERRES
   195   99  100 1    
   196   99  220 1    
   197  100  101 1    
   198  100  102 1    
   199  100  221 1    
   200  101  222 1    
   201  101  223 1    
   202  101  224 1    
   203  102  103 2    
   204  102  104 am   BACKBONE|DICT|INTERRES
   205  104  105 1    
   206  104  225 1    
   207  105  106 1    
   208  105  107 1    
   209  105  226 1    
   210  106  227 1    
   211  106  228 1    
   212  106  229 1    
   213  107  108 2    
   214  107  109 am   BACKBONE|DICT|INTERRES
   215  109  110 1    
   216  109  230 1    
   217  110  111 1    
   218  110  112 1    
   219  110  231 1    
   220  111  232 1    
   221  111  233 1    
   222  111  234 1    
   223  112  113 2    
   224  112  114 am   BACKBONE|DICT|INTERRES
   225  114  115 1    
   226  114  235 1    
   227  115  116 1    
   228  115  117 1    
   229  115  236 1    
   230  116  237 1    
   231  116  238 1    
   232  116  239 1    
   233  117  118 2    
   234  117  119 am   BACKBONE|DICT|INTERRES
   235  119  120 1    
   236  119  240 1    
   237  120  121 1    
   238  120  124 1    
   239  120  241 1    
   240  121  122 am   BACKBONE|DICT|INTERRES
   241  121  123 2    
   242  122  242 1    
   243  122  243 1    
   244  124  125 1    
   245  124  244 1    
   246  124  245 1    
   247  125  126 1    
   248  126  246 1    
   249  126  247 1    
@<TRIPOS>SUBSTRUCTURE
     1 UNK         1 GROUP             0       ****    0 ROOT    
