@<TRIPOS>MOLECULE
3R540
247   249    1
SMALL
USER_CHARGES


@<TRIPOS>ATOM
      1 CA         -3.1909  -17.9246  -43.1207 C.3       0 UNK        -0.1800 
      2 C          -2.7411  -16.4786  -43.0064 C.2       0 UNK         0.5000 
      3 O          -2.1755  -16.0860  -41.9859 O.2       0 UNK        -0.5000 
      4 N          -2.9739  -15.6835  -44.0559 N.am      1 UNK        -0.5000 
      5 CA         -2.6504  -14.2553  -44.1557 C.3       1 UNK         0.1400 
      6 C6         -3.6137  -13.5272  -45.1316 C.3       23 UNK        -0.0398 
      7 S7         -3.6607  -14.2372  -46.8165 S.3       23 UNK        -0.2404 
      8 C8         -5.1159  -15.3475  -46.7570 C.3       23 UNK        -0.0205 
      9 C9         -4.8290  -16.7679  -47.2457 C.ar      23 UNK        -0.0193 
     10 C10        -3.9289  -17.0076  -48.2912 C.ar      23 UNK        -0.1150 
     11 C11        -3.6726  -18.3054  -48.7368 C.ar      23 UNK        -0.0193 
     12 C12        -4.3500  -19.3726  -48.1478 C.ar      23 UNK        -0.1150 
     13 C13        -5.2614  -19.1581  -47.1124 C.ar      23 UNK        -0.0193 
     14 C14        -5.4964  -17.8534  -46.6642 C.ar      23 UNK        -0.1150 
     15 C15        -5.9913  -20.3464  -46.4986 C.3       23 UNK        -0.0205 
     16 S16        -5.4618  -20.7307  -44.7960 S.3       23 UNK        -0.2404 
     17 C17        -3.6487  -20.9151  -44.9408 C.3       23 UNK        -0.0398 
     18 CA         -3.1170  -22.3095  -45.3481 C.3       11 UNK         0.1400 
     19 N          -1.6664  -22.2435  -45.5992 N.am      11 UNK        -0.5000 
     20 C          -0.8705  -23.2546  -45.9865 C.2       10 UNK         0.5000 
     21 O          -1.2951  -24.3863  -46.2209 O.2       10 UNK        -0.5000 
     22 CA          0.6449  -22.9911  -46.1247 C.3       10 UNK         0.1400 
     23 CB          1.0836  -23.1414  -47.5889 C.3       10 UNK        -0.1800 
     24 N           1.0773  -21.6817  -45.6343 N.am      10 UNK        -0.5000 
     25 C           1.1113  -21.3026  -44.3463 C.2       9 UNK         0.5000 
     26 O           0.8288  -22.0545  -43.4130 O.2       9 UNK        -0.5000 
     27 CA          1.4653  -19.8254  -44.0521 C.3       9 UNK         0.1400 
     28 CB          2.9360  -19.6963  -43.6307 C.3       9 UNK        -0.1800 
     29 N           1.2147  -18.9264  -45.1830 N.am      9 UNK        -0.5000 
     30 C           0.0191  -18.7557  -45.7671 C.2       8 UNK         0.5000 
     31 O          -1.0182  -19.2288  -45.3084 O.2       8 UNK        -0.5000 
     32 CA         -0.0338  -18.0154  -47.1169 C.3       8 UNK         0.1400 
     33 CB         -0.7683  -16.6791  -46.9688 C.3       8 UNK        -0.1800 
     34 N           1.2750  -17.7980  -47.7395 N.am      8 UNK        -0.5000 
     35 C           2.0815  -18.7759  -48.1853 C.2       7 UNK         0.5000 
     36 O           1.7842  -19.9692  -48.1252 O.2       7 UNK        -0.5000 
     37 CA          3.4768  -18.3802  -48.7155 C.3       7 UNK         0.1400 
     38 CB          3.5112  -18.3988  -50.2499 C.3       7 UNK        -0.1800 
     39 N           3.9413  -17.0714  -48.2567 N.am      7 UNK        -0.5000 
     40 C           4.1828  -16.7274  -46.9844 C.2       6 UNK         0.5000 
     41 O           4.0881  -17.5059  -46.0350 O.2       6 UNK        -0.5000 
     42 CA          4.5340  -15.2470  -46.7318 C.3       6 UNK         0.1400 
     43 CB          6.0571  -15.0546  -46.6922 C.3       6 UNK        -0.1800 
     44 N           3.9547  -14.3132  -47.7091 N.am      6 UNK        -0.5000 
     45 C           2.6428  -14.1722  -47.9425 C.2       5 UNK         0.5000 
     46 O           1.7799  -14.8649  -47.4061 O.2       5 UNK        -0.5000 
     47 CA          2.2105  -13.1032  -48.9561 C.3       5 UNK         0.1400 
     48 CB          1.4275  -13.7377  -50.1190 C.3       5 UNK        -0.1800 
     49 N           1.3619  -12.1260  -48.2809 N.am      5 UNK        -0.5000 
     50 C           1.8235  -11.1210  -47.5267 C.2       4 UNK         0.5000 
     51 O           3.0199  -10.8424  -47.4297 O.2       4 UNK        -0.5000 
     52 CA          0.7903  -10.2973  -46.7357 C.3       4 UNK         0.1400 
     53 CB         -0.6461  -10.3936  -47.2895 C.3       4 UNK        -0.1800 
     54 N           0.8029  -10.7497  -45.3479 N.am      4 UNK        -0.5000 
     55 C           1.5868  -10.2475  -44.3818 C.2       3 UNK         0.5000 
     56 O           2.2961   -9.2508  -44.5266 O.2       3 UNK        -0.5000 
     57 CA          1.5860  -10.9697  -43.0167 C.3       3 UNK         0.1400 
     58 CB          0.6620  -10.2453  -42.0256 C.3       3 UNK        -0.1800 
     59 N           1.1790  -12.3726  -43.1011 N.am      3 UNK        -0.5000 
     60 C           1.8826  -13.3455  -43.6964 C.2       2 UNK         0.5000 
     61 O           3.0266  -13.1906  -44.1228 O.2       2 UNK        -0.5000 
     62 CA          1.1893  -14.7141  -43.8650 C.3       2 UNK         0.1400 
     63 CB          1.7799  -15.7525  -42.8997 C.3       2 UNK        -0.1800 
     64 N          -0.2701  -14.6969  -43.7048 N.am      2 UNK        -0.5000 
     65 C          -1.1487  -14.0102  -44.4498 C.2       1 UNK         0.5000 
     66 O          -0.8046  -13.2099  -45.3197 O.2       1 UNK        -0.5000 
     67 C          -3.5149  -23.4069  -44.3302 C.2       11 UNK         0.5000 
     68 O          -4.5996  -23.9775  -44.4480 O.2       11 UNK        -0.5000 
     69 N          -2.6027  -23.7533  -43.4085 N.am      12 UNK        -0.5000 
     70 CA         -2.7209  -24.8862  -42.4836 C.3       12 UNK         0.1400 
     71 CB         -1.5182  -24.8679  -41.5282 C.3       12 UNK        -0.1800 
     72 C          -2.8348  -26.2628  -43.1794 C.2       12 UNK         0.5000 
     73 O          -3.3917  -27.1903  -42.5916 O.2       12 UNK        -0.5000 
     74 N          -2.3334  -26.3621  -44.4177 N.am      13 UNK        -0.5000 
     75 CA         -2.4417  -27.5180  -45.3082 C.3       13 UNK         0.1400 
     76 CB         -1.0225  -27.9523  -45.7160 C.3       13 UNK        -0.1800 
     77 C          -3.3158  -27.1825  -46.5371 C.2       13 UNK         0.5000 
     78 O          -3.1450  -27.7904  -47.5951 O.2       13 UNK        -0.5000 
     79 N          -4.2141  -26.1944  -46.3904 N.am      14 UNK        -0.5000 
     80 CA         -5.1355  -25.6454  -47.3947 C.3       14 UNK         0.1400 
     81 CB         -6.1253  -26.7208  -47.8880 C.3       14 UNK        -0.1800 
     82 C          -4.4453  -24.9149  -48.5661 C.2       14 UNK         0.5000 
     83 O          -5.1082  -24.6063  -49.5587 O.2       14 UNK        -0.5000 
     84 N          -3.1356  -24.6446  -48.4452 N.am      15 UNK        -0.5000 
     85 CA         -2.2804  -23.9429  -49.4083 C.3       15 UNK         0.1400 
     86 CB         -2.6319  -22.4439  -49.4130 C.3       15 UNK        -0.1800 
     87 C          -2.2784  -24.5687  -50.8178 C.2       15 UNK         0.5000 
     88 O          -2.1879  -23.8425  -51.8087 O.2       15 UNK        -0.5000 
     89 N          -2.4213  -25.9023  -50.8755 N.am      16 UNK        -0.5000 
     90 CA         -2.6009  -26.7130  -52.0859 C.3       16 UNK         0.1400 
     91 CB         -1.2986  -26.7560  -52.9118 C.3       16 UNK        -0.1800 
     92 C          -3.8387  -26.2779  -52.9035 C.2       16 UNK         0.5000 
     93 O          -3.7653  -26.1564  -54.1267 O.2       16 UNK        -0.5000 
     94 N          -4.9450  -26.0334  -52.1839 N.am      17 UNK        -0.5000 
     95 CA         -6.2187  -25.4780  -52.6507 C.3       17 UNK         0.1400 
     96 CB         -6.8802  -26.3782  -53.7164 C.3       17 UNK        -0.1800 
     97 C          -6.0717  -24.0051  -53.0828 C.2       17 UNK         0.5000 
     98 O          -6.5042  -23.6312  -54.1746 O.2       17 UNK        -0.5000 
     99 N          -5.4601  -23.2031  -52.1965 N.am      18 UNK        -0.5000 
    100 CA        -5.1946  -21.7646  -52.3348 C.3       18 UNK         0.1400 
    101 CB        -6.5087  -20.9618  -52.2487 C.3       18 UNK        -0.1800 
    102 C         -4.3463  -21.4137  -53.5768 C.2       18 UNK         0.5000 
    103 O         -4.6607  -20.4672  -54.3011 O.2       18 UNK        -0.5000 
    104 N         -3.2843  -22.1956  -53.8002 N.am      19 UNK        -0.5000 
    105 CA        -2.3302  -22.0207  -54.8934 C.3       19 UNK         0.1400 
    106 CB        -2.0042  -23.4005  -55.4833 C.3       19 UNK        -0.1800 
    107 C         -1.0391  -21.3189  -54.4335 C.2       19 UNK         0.5000 
    108 O         -0.2910  -20.8307  -55.2825 O.2       19 UNK        -0.5000 
    109 N         -0.7823  -21.2766  -53.1171 N.am      20 UNK        -0.5000 
    110 CA         0.4161  -20.7045  -52.4933 C.3       20 UNK         0.1400 
    111 CB         0.5820  -21.3036  -51.0845 C.3       20 UNK        -0.1800 
    112 C          0.4100  -19.1586  -52.4868 C.2       20 UNK         0.5000 
    113 O          0.4322  -18.5403  -51.4208 O.2       20 UNK        -0.5000 
    114 N          0.3782  -18.5689  -53.6895 N.am      21 UNK        -0.5000 
    115 CA         0.3517  -17.1417  -54.0287 C.3       21 UNK         0.1400 
    116 CB         1.6183  -16.4161  -53.5298 C.3       21 UNK        -0.1800 
    117 C         -0.9357  -16.4309  -53.5724 C.2       21 UNK         0.5000 
    118 O         -1.7243  -16.0024  -54.4155 O.2       21 UNK        -0.5000 
    119 N         -1.1176  -16.3323  -52.2516 N.am      22 UNK        -0.5000 
    120 CA        -2.2934  -15.7853  -51.5541 C.3       22 UNK         0.1400 
    121 C         -2.5609  -14.2648  -51.7761 C.2       22 UNK         0.5000 
    122 N         -1.5978  -13.4882  -52.2572 N.am      22 UNK        -0.7600 
    123 O         -3.6451  -13.7704  -51.4801 O.2       22 UNK        -0.5000 
    124 C124       -3.5739  -16.6530  -51.7497 C.3       23 UNK        -0.0398 
    125 S125       -3.3531  -18.4543  -51.4983 S.3       23 UNK        -0.2404 
    126 C126       -2.6437  -18.5635  -49.8271 C.3       23 UNK        -0.0205 
    127 H127       -2.3470  -18.5915  -42.9448 H         1 UNK         0.0600 
    128 H128       -3.5953  -18.1375  -44.1103 H         1 UNK         0.0600 
    129 H129       -3.9618  -18.1418  -42.3817 H         1 UNK         0.0600 
    130 H130       -3.3935  -16.0767  -44.8865 H         1 UNK         0.3000 
    131 H131       -2.8229  -13.8107  -43.1733 H         1 UNK         0.0600 
    132 H132       -4.6219  -13.5262  -44.7162 H         1 UNK         0.0800 
    133 H133       -3.3447  -12.4727  -45.2152 H         1 UNK         0.0800 
    134 H134       -5.5151  -15.3828  -45.7426 H         1 UNK         0.0800 
    135 H135       -5.9027  -14.9202  -47.3797 H         1 UNK         0.0800 
    136 H136       -3.4135  -16.1802  -48.7527 H         1 UNK         0.1150 
    137 H137       -4.1663  -20.3763  -48.4935 H         1 UNK         0.1150 
    138 H138       -6.2036  -17.6877  -45.8635 H         1 UNK         0.1150 
    139 H139       -7.0623  -20.1395  -46.4929 H         1 UNK         0.0800 
    140 H140       -5.8608  -21.2384  -47.1136 H         1 UNK         0.0800 
    141 H141       -3.2125  -20.6308  -43.9827 H         1 UNK         0.0800 
    142 H142       -3.2968  -20.1717  -45.6526 H         1 UNK         0.0800 
    143 H143       -3.5835  -22.5784  -46.2975 H         1 UNK         0.0600 
    144 H144       -1.2410  -21.3362  -45.4442 H         1 UNK         0.3000 
    145 H145        1.1573  -23.7556  -45.5374 H         1 UNK         0.0600 
    146 H146        2.1530  -22.9623  -47.7023 H         1 UNK         0.0600 
    147 H147        0.8860  -24.1490  -47.9561 H         1 UNK         0.0600 
    148 H148        0.5579  -22.4409  -48.2388 H         1 UNK         0.0600 
    149 H149        1.3249  -21.0037  -46.3476 H         1 UNK         0.3000 
    150 H150        0.8375  -19.4973  -43.2212 H         1 UNK         0.0600 
    151 H151        3.1543  -20.3292  -42.7696 H         1 UNK         0.0600 
    152 H152        3.1781  -18.6709  -43.3503 H         1 UNK         0.0600 
    153 H153        3.6107  -19.9899  -44.4360 H         1 UNK         0.0600 
    154 H154        2.0282  -18.5040  -45.6129 H         1 UNK         0.3000 
    155 H155       -0.6135  -18.6483  -47.7898 H         1 UNK         0.0600 
    156 H156       -0.2332  -16.0068  -46.3032 H         1 UNK         0.0600 
    157 H157       -1.7619  -16.8245  -46.5457 H         1 UNK         0.0600 
    158 H158       -0.8876  -16.1771  -47.9289 H         1 UNK         0.0600 
    159 H159        1.5945  -16.8350  -47.7743 H         1 UNK         0.3000 
    160 H160        4.1818  -19.1293  -48.3497 H         1 UNK         0.0600 
    161 H161        2.8603  -17.6332  -50.6722 H         1 UNK         0.0600 
    162 H162        3.1833  -19.3623  -50.6396 H         1 UNK         0.0600 
    163 H163        4.5199  -18.2258  -50.6252 H         1 UNK         0.0600 
    164 H164        4.0371  -16.3567  -48.9624 H         1 UNK         0.3000 
    165 H165        4.1325  -14.9881  -45.7509 H         1 UNK         0.0600 
    166 H166        6.3182  -14.0344  -46.4102 H         1 UNK         0.0600 
    167 H167        6.5160  -15.7196  -45.9593 H         1 UNK         0.0600 
    168 H168        6.5149  -15.2653  -47.6595 H         1 UNK         0.0600 
    169 H169        4.6035  -13.7001  -48.1815 H         1 UNK         0.3000 
    170 H170        3.0924  -12.6065  -49.3662 H         1 UNK         0.0600 
    171 H171        2.0334  -14.4810  -50.6384 H         1 UNK         0.0600 
    172 H172        0.5203  -14.2370  -49.7750 H         1 UNK         0.0600 
    173 H173        1.1365  -12.9853  -50.8520 H         1 UNK         0.0600 
    174 H174        0.3743  -12.3346  -48.2539 H         1 UNK         0.3000 
    175 H175        1.0952   -9.2503  -46.7926 H         1 UNK         0.0600 
    176 H176       -1.0539  -11.4025  -47.2239 H         1 UNK         0.0600 
    177 H177       -1.3174   -9.7354  -46.7379 H         1 UNK         0.0600 
    178 H178       -0.6836  -10.0867  -48.3355 H         1 UNK         0.0600 
    179 H179        0.2781  -11.5999  -45.1622 H         1 UNK         0.3000 
    180 H180        2.6047  -10.9344  -42.6249 H         1 UNK         0.0600 
    181 H181       -0.3766  -10.2615  -42.3586 H         1 UNK         0.0600 
    182 H182        0.9538   -9.2004  -41.9118 H         1 UNK         0.0600 
    183 H183        0.7062  -10.7029  -41.0371 H         1 UNK         0.0600 
    184 H184        0.2521  -12.5960  -42.7714 H         1 UNK         0.3000 
    185 H185        1.4008  -15.0494  -44.8797 H         1 UNK         0.0600 
    186 H186        2.8594  -15.8393  -43.0302 H         1 UNK         0.0600 
    187 H187        1.5923  -15.4851  -41.8591 H         1 UNK         0.0600 
    188 H188        1.3535  -16.7403  -43.0754 H         1 UNK         0.0600 
    189 H189       -0.6551  -15.3025  -42.9866 H         1 UNK         0.3000 
    190 H190       -1.7280  -23.2474  -43.3870 H         1 UNK         0.3000 
    191 H191       -3.6298  -24.7418  -41.8963 H         1 UNK         0.0600 
    192 H192       -0.5759  -24.9758  -42.0672 H         1 UNK         0.0600 
    193 H193       -1.4766  -23.9364  -40.9633 H         1 UNK         0.0600 
    194 H194       -1.5792  -25.6826  -40.8054 H         1 UNK         0.0600 
    195 H195       -1.9087  -25.5416  -44.8410 H         1 UNK         0.3000 
    196 H196       -2.9224  -28.3537  -44.7965 H         1 UNK         0.0600 
    197 H197       -0.4136  -28.1770  -44.8402 H         1 UNK         0.0600 
    198 H198       -0.5140  -27.1739  -46.2865 H         1 UNK         0.0600 
    199 H199       -1.0460  -28.8521  -46.3318 H         1 UNK         0.0600 
    200 H200       -4.2595  -25.7306  -45.4894 H         1 UNK         0.3000 
    201 H201       -5.7167  -24.8817  -46.8764 H         1 UNK         0.0600 
    202 H202       -6.9110  -26.2783  -48.5017 H         1 UNK         0.0600 
    203 H203       -6.6139  -27.2202  -47.0514 H         1 UNK         0.0600 
    204 H204       -5.6325  -27.4822  -48.4929 H         1 UNK         0.0600 
    205 H205       -2.6679  -24.9229  -47.5890 H         1 UNK         0.3000 
    206 H206       -1.2561  -24.0431  -49.0529 H         1 UNK         0.0600 
    207 H207       -2.3603  -21.9778  -48.4666 H         1 UNK         0.0600 
    208 H208       -3.6976  -22.2902  -49.5684 H         1 UNK         0.0600 
    209 H209       -2.1115  -21.9020  -50.1991 H         1 UNK         0.0600 
    210 H210       -2.4981  -26.4010  -49.9988 H         1 UNK         0.3000 
    211 H211       -2.8065  -27.7300  -51.7487 H         1 UNK         0.0600 
    212 H212       -0.4698  -27.1370  -52.3154 H         1 UNK         0.0600 
    213 H213       -1.4032  -27.4123  -53.7765 H         1 UNK         0.0600 
    214 H214       -1.0162  -25.7707  -53.2801 H         1 UNK         0.0600 
    215 H215       -4.8638  -26.0932  -51.1770 H         1 UNK         0.3000 
    216 H216       -6.8788  -25.4719  -51.7820 H         1 UNK         0.0600 
    217 H217       -7.8882  -26.0300  -53.9442 H         1 UNK         0.0600 
    218 H218       -6.3221  -26.3854  -54.6528 H         1 UNK         0.0600 
    219 H219       -6.9638  -27.4071  -53.3667 H         1 UNK         0.0600 
    220 H220       -5.1652  -23.6233  -51.3202 H         1 UNK         0.3000 
    221 H221       -4.5892  -21.4757  -51.4770 H         1 UNK         0.0600 
    222 H222       -7.1625  -21.1620  -53.0980 H         1 UNK         0.0600 
    223 H223       -7.0569  -21.2012  -51.3376 H         1 UNK         0.0600 
    224 H224       -6.3095  -19.8894  -52.2328 H         1 UNK         0.0600 
    225 H225       -3.0743  -22.9429  -53.1412 H         1 UNK         0.3000 
    226 H226       -2.7700  -21.4120  -55.6859 H         1 UNK         0.0600 
    227 H227       -2.9058  -23.8994  -55.8398 H         1 UNK         0.0600 
    228 H228       -1.3214  -23.3155  -56.3295 H         1 UNK         0.0600 
    229 H229       -1.5348  -24.0495  -54.7446 H         1 UNK         0.0600 
    230 H230       -1.4443  -21.7203  -52.4963 H         1 UNK         0.3000 
    231 H231        1.2811  -21.0194  -53.0807 H         1 UNK         0.0600 
    232 H232        1.5751  -21.0911  -50.6901 H         1 UNK         0.0600 
    233 H233        0.4652  -22.3875  -51.0910 H         1 UNK         0.0600 
    234 H234       -0.1340  -20.8881  -50.3765 H         1 UNK         0.0600 
    235 H235        0.2928  -19.1986  -54.4832 H         1 UNK         0.3000 
    236 H236        0.3644  -17.0986  -55.1190 H         1 UNK         0.0600 
    237 H237        2.5198  -16.8882  -53.9200 H         1 UNK         0.0600 
    238 H238        1.6261  -15.3774  -53.8621 H         1 UNK         0.0600 
    239 H239        1.6917  -16.4084  -52.4426 H         1 UNK         0.0600 
    240 H240       -0.4425  -16.8181  -51.6692 H         1 UNK         0.3000 
    241 H241       -2.0253  -15.8261  -50.5008 H         1 UNK         0.0600 
    242 H242       -1.7747  -12.5055  -52.3917 H         1 UNK         0.3800 
    243 H243       -0.7067  -13.8798  -52.5130 H         1 UNK         0.3800 
    244 H244       -4.3674  -16.3183  -51.0802 H         1 UNK         0.0800 
    245 H245       -3.9613  -16.5130  -52.7599 H         1 UNK         0.0800 
    246 H246       -2.2235  -19.5608  -49.7024 H         1 UNK         0.0800 
    247 H247       -1.7960  -17.8879  -49.7266 H         1 UNK         0.0800 
@<TRIPOS>BOND
     1    1    2 1    
     2    1  127 1    
     3    1  128 1    
     4    1  129 1    
     5    2    3 2    
     6    2    4 am   BACKBONE|DICT|INTERRES
     7    4    5 1    
     8    4  130 1    
     9    5    6 1    
    10    5   65 1    
    11    5  131 1    
    12    6    7 1    
    13    6  132 1    
    14    6  133 1    
    15    7    8 1    
    16    8    9 1    
    17    8  134 1    
    18    8  135 1    
    19    9   10 ar   
    20    9   14 ar   
    21   10   11 ar   
    22   10  136 1    
    23   11   12 ar   
    24   11  126 1    
    25   12   13 ar   
    26   12  137 1    
    27   13   14 ar   
    28   13   15 1    
    29   14  138 1    
    30   15   16 1    
    31   15  139 1    
    32   15  140 1    
    33   16   17 1    
    34   17   18 1    
    35   17  141 1    
    36   17  142 1    
    37   18   19 1    
    38   18   67 1    
    39   18  143 1    
    40   19   20 am   BACKBONE|DICT|INTERRES
    41   19  144 1    
    42   20   21 2    
    43   20   22 1    
    44   22   23 1    
    45   22   24 1    
    46   22  145 1    
    47   23  146 1    
    48   23  147 1    
    49   23  148 1    
    50   24   25 am   BACKBONE|DICT|INTERRES
    51   24  149 1    
    52   25   26 2    
    53   25   27 1    
    54   27   28 1    
    55   27   29 1    
    56   27  150 1    
    57   28  151 1    
    58   28  152 1    
    59   28  153 1    
    60   29   30 am   BACKBONE|DICT|INTERRES
    61   29  154 1    
    62   30   31 2    
    63   30   32 1    
    64   32   33 1    
    65   32   34 1    
    66   32  155 1    
    67   33  156 1    
    68   33  157 1    
    69   33  158 1    
    70   34   35 am   BACKBONE|DICT|INTERRES
    71   34  159 1    
    72   35   36 2    
    73   35   37 1    
    74   37   38 1    
    75   37   39 1    
    76   37  160 1    
    77   38  161 1    
    78   38  162 1    
    79   38  163 1    
    80   39   40 am   BACKBONE|DICT|INTERRES
    81   39  164 1    
    82   40   41 2    
    83   40   42 1    
    84   42   43 1    
    85   42   44 1    
    86   42  165 1    
    87   43  166 1    
    88   43  167 1    
    89   43  168 1    
    90   44   45 am   BACKBONE|DICT|INTERRES
    91   44  169 1    
    92   45   46 2    
    93   45   47 1    
    94   47   48 1    
    95   47   49 1    
    96   47  170 1    
    97   48  171 1    
    98   48  172 1    
    99   48  173 1    
   100   49   50 am   BACKBONE|DICT|INTERRES
   101   49  174 1    
   102   50   51 2    
   103   50   52 1    
   104   52   53 1    
   105   52   54 1    
   106   52  175 1    
   107   53  176 1    
   108   53  177 1    
   109   53  178 1    
   110   54   55 am   BACKBONE|DICT|INTERRES
   111   54  179 1    
   112   55   56 2    
   113   55   57 1    
   114   57   58 1    
   115   57   59 1    
   116   57  180 1    
   117   58  181 1    
   118   58  182 1    
   119   58  183 1    
   120   59   60 am   BACKBONE|DICT|INTERRES
   121   59  184 1    
   122   60   61 2    
   123   60   62 1    
   124   62   63 1    
   125   62   64 1    
   126   62  185 1    
   127   63  186 1    
   128   63  187 1    
   129   63  188 1    
   130   64   65 am   BACKBONE|DICT|INTERRES
   131   64  189 1    
   132   65   66 2    
   133   67   68 2    
   134   67   69 am   BACKBONE|DICT|INTERRES
   135   69   70 1    
   136   69  190 1    
   137   70   71 1    
   138   70   72 1    
   139   70  191 1    
   140   71  192 1    
   141   71  193 1    
   142   71  194 1    
   143   72   73 2    
   144   72   74 am   BACKBONE|DICT|INTERRES
   145   74   75 1    
   146   74  195 1    
   147   75   76 1    
   148   75   77 1    
   149   75  196 1    
   150   76  197 1    
   151   76  198 1    
   152   76  199 1    
   153   77   78 2    
   154   77   79 am   BACKBONE|DICT|INTERRES
   155   79   80 1    
   156   79  200 1    
   157   80   81 1    
   158   80   82 1    
   159   80  201 1    
   160   81  202 1    
   161   81  203 1    
   162   81  204 1    
   163   82   83 2    
   164   82   84 am   BACKBONE|DICT|INTERRES
   165   84   85 1    
   166   84  205 1    
   167   85   86 1    
   168   85   87 1    
   169   85  206 1    
   170   86  207 1    
   171   86  208 1    
   172   86  209 1    
   173   87   88 2    
   174   87   89 am   BACKBONE|DICT|INTERRES
   175   89   90 1    
   176   89  210 1    
   177   90   91 1    
   178   90   92 1    
   179   90  211 1    
   180   91  212 1    
   181   91  213 1    
   182   91  214 1    
   183   92   93 2    
   184   92   94 am   BACKBONE|DICT|INTERRES
   185   94   95 1    
   186   94  215 1    
   187   95   96 1    
   188   95   97 1    
   189   95  216 1    
   190   96  217 1    
   191   96  218 1    
   192   96  219 1    
   193   97   98 2    
   194   97   99 am   BACKBONE|DICT|INTERRES
   195   99  100 1    
   196   99  220 1    
   197  100  101 1    
   198  100  102 1    
   199  100  221 1    
   200  101  222 1    
   201  101  223 1    
   202  101  224 1    
   203  102  103 2    
   204  102  104 am   BACKBONE|DICT|INTERRES
   205  104  105 1    
   206  104  225 1    
   207  105  106 1    
   208  105  107 1    
   209  105  226 1    
   210  106  227 1    
   211  106  228 1    
   212  106  229 1    
   213  107  108 2    
   214  107  109 am   BACKBONE|DICT|INTERRES
   215  109  110 1    
   216  109  230 1    
   217  110  111 1    
   218  110  112 1    
   219  110  231 1    
   220  111  232 1    
   221  111  233 1    
   222  111  234 1    
   223  112  113 2    
   224  112  114 am   BACKBONE|DICT|INTERRES
   225  114  115 1    
   226  114  235 1    
   227  115  116 1    
   228  115  117 1    
   229  115  236 1    
   230  116  237 1    
   231  116  238 1    
   232  116  239 1    
   233  117  118 2    
   234  117  119 am   BACKBONE|DICT|INTERRES
   235  119  120 1    
   236  119  240 1    
   237  120  121 1    
   238  120  124 1    
   239  120  241 1    
   240  121  122 am   BACKBONE|DICT|INTERRES
   241  121  123 2    
   242  122  242 1    
   243  122  243 1    
   244  124  125 1    
   245  124  244 1    
   246  124  245 1    
   247  125  126 1    
   248  126  246 1    
   249  126  247 1    
@<TRIPOS>SUBSTRUCTURE
     1 UNK         1 GROUP             0       ****    0 ROOT    
