@<TRIPOS>MOLECULE
3R540
247   249    1
SMALL
USER_CHARGES


@<TRIPOS>ATOM
      1 CA         -0.5389  -13.6129  -52.0690 C.3       0 UNK        -0.1800 
      2 C          -0.1107  -13.6828  -50.6106 C.2       0 UNK         0.5000 
      3 O           0.9743  -14.1841  -50.3136 O.2       0 UNK        -0.5000 
      4 N          -0.9511  -13.1759  -49.6990 N.am      1 UNK        -0.5000 
      5 CA         -0.7663  -13.2268  -48.2438 C.3       1 UNK         0.1400 
      6 C6         -2.1313  -13.2355  -47.5002 C.3       23 UNK        -0.0398 
      7 S7         -2.0419  -14.1973  -45.9508 S.3       23 UNK        -0.2404 
      8 C8         -2.8242  -15.7877  -46.3954 C.3       23 UNK        -0.0205 
      9 C9         -2.3055  -16.3670  -47.7060 C.ar      23 UNK        -0.0193 
     10 C10        -3.1610  -16.4837  -48.8068 C.ar      23 UNK        -0.1150 
     11 C11        -2.6825  -16.9650  -50.0278 C.ar      23 UNK        -0.0193 
     12 C12        -1.3381  -17.3233  -50.1448 C.ar      23 UNK        -0.1150 
     13 C13        -0.4739  -17.2197  -49.0529 C.ar      23 UNK        -0.0193 
     14 C14        -0.9689  -16.7598  -47.8289 C.ar      23 UNK        -0.1150 
     15 C15         1.0018  -17.5488  -49.2241 C.3       23 UNK        -0.0205 
     16 S16         1.3218  -19.3402  -49.2229 S.3       23 UNK        -0.2404 
     17 C17         1.2320  -19.7091  -47.4396 C.3       23 UNK        -0.0398 
     18 CA          0.6511  -21.1065  -47.1214 C.3       11 UNK         0.1400 
     19 N           0.8632  -21.4651  -45.7199 N.am      11 UNK        -0.5000 
     20 C           0.5937  -22.6552  -45.1674 C.2       10 UNK         0.5000 
     21 O           0.1775  -23.6278  -45.7978 O.2       10 UNK        -0.5000 
     22 CA          0.7743  -22.7551  -43.6410 C.3       10 UNK         0.1400 
     23 CB          2.2516  -22.9575  -43.2725 C.3       10 UNK        -0.1800 
     24 N           0.2488  -21.5825  -42.9376 N.am      10 UNK        -0.5000 
     25 C          -1.0453  -21.2297  -42.9250 C.2       9 UNK         0.5000 
     26 O          -1.9372  -21.8809  -43.4686 O.2       9 UNK        -0.5000 
     27 CA         -1.3985  -19.9056  -42.2255 C.3       9 UNK         0.1400 
     28 CB         -1.4383  -20.0866  -40.7008 C.3       9 UNK        -0.1800 
     29 N          -0.4786  -18.8219  -42.5716 N.am      9 UNK        -0.5000 
     30 C          -0.3250  -18.3252  -43.8077 C.2       8 UNK         0.5000 
     31 O          -0.9699  -18.7024  -44.7843 O.2       8 UNK        -0.5000 
     32 CA          0.7676  -17.2621  -43.9991 C.3       8 UNK         0.1400 
     33 CB          0.2882  -15.8949  -43.4932 C.3       8 UNK        -0.1800 
     34 N           2.0170  -17.6151  -43.3331 N.am      8 UNK        -0.5000 
     35 C           2.7566  -18.7031  -43.5787 C.2       7 UNK         0.5000 
     36 O           2.4904  -19.5322  -44.4460 O.2       7 UNK        -0.5000 
     37 CA          3.9703  -18.9270  -42.6632 C.3       7 UNK         0.1400 
     38 CB          5.1732  -18.0891  -43.1220 C.3       7 UNK        -0.1800 
     39 N           3.6607  -18.6163  -41.2686 N.am      7 UNK        -0.5000 
     40 C           2.8553  -19.3496  -40.4893 C.2       6 UNK         0.5000 
     41 O           2.3077  -20.3907  -40.8562 O.2       6 UNK        -0.5000 
     42 CA          2.5986  -18.8056  -39.0715 C.3       6 UNK         0.1400 
     43 CB          3.7665  -19.1532  -38.1360 C.3       6 UNK        -0.1800 
     44 N           2.3725  -17.3577  -39.0506 N.am      6 UNK        -0.5000 
     45 C           1.2866  -16.7655  -39.5655 C.2       5 UNK         0.5000 
     46 O           0.3730  -17.3800  -40.1163 O.2       5 UNK        -0.5000 
     47 CA          1.2168  -15.2270  -39.4807 C.3       5 UNK         0.1400 
     48 CB          0.7697  -14.7882  -38.0778 C.3       5 UNK        -0.1800 
     49 N           2.4408  -14.5003  -39.8476 N.am      5 UNK        -0.5000 
     50 C           3.1773  -14.7009  -40.9487 C.2       4 UNK         0.5000 
     51 O           3.0432  -15.6680  -41.6968 O.2       4 UNK        -0.5000 
     52 CA          4.2632  -13.6575  -41.2696 C.3       4 UNK         0.1400 
     53 CB          5.5673  -14.0038  -40.5354 C.3       4 UNK        -0.1800 
     54 N           4.5307  -13.6058  -42.7105 N.am      4 UNK        -0.5000 
     55 C           3.6629  -13.1708  -43.6343 C.2       3 UNK         0.5000 
     56 O           2.5920  -12.6169  -43.3690 O.2       3 UNK        -0.5000 
     57 CA          4.0512  -13.4217  -45.0992 C.3       3 UNK         0.1400 
     58 CB          3.8471  -14.9005  -45.4819 C.3       3 UNK        -0.1800 
     59 N           3.2384  -12.5796  -45.9722 N.am      3 UNK        -0.5000 
     60 C           3.6033  -12.1396  -47.1806 C.2       2 UNK         0.5000 
     61 O           4.6857  -12.4091  -47.7055 O.2       2 UNK        -0.5000 
     62 CA          2.5599  -11.2992  -47.9366 C.3       2 UNK         0.1400 
     63 CB          3.1211  -10.6645  -49.2222 C.3       2 UNK        -0.1800 
     64 N           1.4385  -12.1620  -48.2950 N.am      2 UNK        -0.5000 
     65 C           0.2249  -12.1518  -47.7352 C.2       1 UNK         0.5000 
     66 O          -0.1119  -11.3427  -46.8691 O.2       1 UNK        -0.5000 
     67 C          -0.8334  -21.2351  -47.5145 C.2       11 UNK         0.5000 
     68 O          -1.1374  -21.9504  -48.4662 O.2       11 UNK        -0.5000 
     69 N          -1.7311  -20.6076  -46.7418 N.am      12 UNK        -0.5000 
     70 CA         -3.1797  -20.6507  -46.9488 C.3       12 UNK         0.1400 
     71 CB         -3.8651  -19.6972  -45.9602 C.3       12 UNK        -0.1800 
     72 C          -3.7820  -22.0644  -46.8384 C.2       12 UNK         0.5000 
     73 O          -4.7380  -22.3644  -47.5517 O.2       12 UNK        -0.5000 
     74 N          -3.2133  -22.9101  -45.9670 N.am      13 UNK        -0.5000 
     75 CA         -3.5854  -24.3175  -45.8247 C.3       13 UNK         0.1400 
     76 CB         -2.9885  -24.8836  -44.5275 C.3       13 UNK        -0.1800 
     77 C          -3.1635  -25.1652  -47.0394 C.2       13 UNK         0.5000 
     78 O          -3.9414  -26.0069  -47.4883 O.2       13 UNK        -0.5000 
     79 N          -1.9535  -24.9243  -47.5626 N.am      14 UNK        -0.5000 
     80 CA         -1.4259  -25.5891  -48.7568 C.3       14 UNK         0.1400 
     81 CB          0.0881  -25.3426  -48.8457 C.3       14 UNK        -0.1800 
     82 C          -2.1306  -25.1306  -50.0485 C.2       14 UNK         0.5000 
     83 O          -2.4093  -25.9510  -50.9225 O.2       14 UNK        -0.5000 
     84 N          -2.4184  -23.8280  -50.1295 N.am      15 UNK        -0.5000 
     85 CA         -3.0560  -23.1448  -51.2542 C.3       15 UNK         0.1400 
     86 CB         -2.4884  -21.7177  -51.2966 C.3       15 UNK        -0.1800 
     87 C          -4.6008  -23.1473  -51.1821 C.2       15 UNK         0.5000 
     88 O          -5.2489  -22.4349  -51.9520 O.2       15 UNK        -0.5000 
     89 N          -5.1752  -23.9350  -50.2615 N.am      16 UNK        -0.5000 
     90 CA         -6.6128  -24.0537  -50.0117 C.3       16 UNK         0.1400 
     91 CB         -6.8435  -25.0610  -48.8757 C.3       16 UNK        -0.1800 
     92 C          -7.4257  -24.4535  -51.2592 C.2       16 UNK         0.5000 
     93 O          -6.9342  -25.2078  -52.1017 O.2       16 UNK        -0.5000 
     94 N          -8.6604  -23.9358  -51.3337 N.am      17 UNK        -0.5000 
     95 CA         -9.6064  -24.0636  -52.4501 C.3       17 UNK         0.1400 
     96 CB        -10.0242  -25.5337  -52.6706 C.3       17 UNK        -0.1800 
     97 C          -9.1153  -23.3664  -53.7390 C.2       17 UNK         0.5000 
     98 O          -9.4022  -23.8373  -54.8410 O.2       17 UNK        -0.5000 
     99 N          -8.4026  -22.2411  -53.5650 N.am      18 UNK        -0.5000 
    100 CA        -7.8343  -21.3751  -54.6057 C.3       18 UNK         0.1400 
    101 CB        -8.9519  -20.6743  -55.4064 C.3       18 UNK        -0.1800 
    102 C         -6.8116  -22.1074  -55.4995 C.2       18 UNK         0.5000 
    103 O         -6.8597  -21.9953  -56.7265 O.2       18 UNK        -0.5000 
    104 N         -5.9116  -22.8583  -54.8577 N.am      19 UNK        -0.5000 
    105 CA        -4.8114  -23.5743  -55.4948 C.3       19 UNK         0.1400 
    106 CB        -4.7014  -24.9628  -54.8446 C.3       19 UNK        -0.1800 
    107 C         -3.5042  -22.7924  -55.3009 C.2       19 UNK         0.5000 
    108 O         -3.4259  -21.9430  -54.4131 O.2       19 UNK        -0.5000 
    109 N         -2.4851  -23.1228  -56.1064 N.am      20 UNK        -0.5000 
    110 CA        -1.0997  -22.6474  -56.0044 C.3       20 UNK         0.1400 
    111 CB        -0.3850  -23.4050  -54.8613 C.3       20 UNK        -0.1800 
    112 C         -0.9969  -21.1083  -55.8939 C.2       20 UNK         0.5000 
    113 O         -1.4088  -20.4074  -56.8205 O.2       20 UNK        -0.5000 
    114 N         -0.4895  -20.6129  -54.7568 N.am      21 UNK        -0.5000 
    115 CA        -0.3187  -19.1955  -54.4340 C.3       21 UNK         0.1400 
    116 CB         0.4616  -19.0847  -53.1149 C.3       21 UNK        -0.1800 
    117 C         -1.6313  -18.3876  -54.3578 C.2       21 UNK         0.5000 
    118 O         -1.5863  -17.1691  -54.5311 O.2       21 UNK        -0.5000 
    119 N         -2.7640  -19.0611  -54.1187 N.am      22 UNK        -0.5000 
    120 CA        -4.1126  -18.4721  -54.1516 C.3       22 UNK         0.1400 
    121 C         -4.8355  -18.6896  -55.5150 C.2       22 UNK         0.5000 
    122 N         -4.2046  -19.2626  -56.5342 N.am      22 UNK        -0.7600 
    123 O         -5.9964  -18.3169  -55.6594 O.2       22 UNK        -0.5000 
    124 C124       -4.9973  -18.9547  -52.9684 C.3       23 UNK        -0.0398 
    125 S125       -4.3082  -18.7763  -51.2832 S.3       23 UNK        -0.2404 
    126 C126       -3.6058  -17.1005  -51.2271 C.3       23 UNK        -0.0205 
    127 H127        0.2007  -13.0646  -52.6523 H         1 UNK         0.0600 
    128 H128       -1.5023  -13.1162  -52.1857 H         1 UNK         0.0600 
    129 H129       -0.6236  -14.6189  -52.4809 H         1 UNK         0.0600 
    130 H130       -1.8042  -12.7360  -50.0129 H         1 UNK         0.3000 
    131 H131       -0.2751  -14.1773  -48.0333 H         1 UNK         0.0600 
    132 H132       -2.4844  -12.2265  -47.2820 H         1 UNK         0.0800 
    133 H133       -2.9080  -13.6757  -48.1261 H         1 UNK         0.0800 
    134 H134       -3.9052  -15.6467  -46.4379 H         1 UNK         0.0800 
    135 H135       -2.6401  -16.5020  -45.5920 H         1 UNK         0.0800 
    136 H136       -4.1982  -16.1929  -48.7183 H         1 UNK         0.1150 
    137 H137       -0.9633  -17.6797  -51.0919 H         1 UNK         0.1150 
    138 H138       -0.3073  -16.6607  -46.9814 H         1 UNK         0.1150 
    139 H139        1.3492  -17.1330  -50.1712 H         1 UNK         0.0800 
    140 H140        1.5991  -17.0657  -48.4490 H         1 UNK         0.0800 
    141 H141        0.6659  -18.9350  -46.9226 H         1 UNK         0.0800 
    142 H142        2.2510  -19.6397  -47.0579 H         1 UNK         0.0800 
    143 H143        1.2061  -21.8377  -47.7132 H         1 UNK         0.0600 
    144 H144        1.2561  -20.7361  -45.1290 H         1 UNK         0.3000 
    145 H145        0.2161  -23.6286  -43.2977 H         1 UNK         0.0600 
    146 H146        2.3736  -23.0961  -42.1981 H         1 UNK         0.0600 
    147 H147        2.6585  -23.8419  -43.7640 H         1 UNK         0.0600 
    148 H148        2.8633  -22.1054  -43.5696 H         1 UNK         0.0600 
    149 H149        0.9201  -21.0031  -42.4472 H         1 UNK         0.3000 
    150 H150       -2.3966  -19.6126  -42.5580 H         1 UNK         0.0600 
    151 H151       -2.1146  -20.8949  -40.4199 H         1 UNK         0.0600 
    152 H152       -1.7915  -19.1813  -40.2070 H         1 UNK         0.0600 
    153 H153       -0.4537  -20.3246  -40.2968 H         1 UNK         0.0600 
    154 H154        0.0589  -18.4211  -41.8093 H         1 UNK         0.3000 
    155 H155        0.9735  -17.1816  -45.0675 H         1 UNK         0.0600 
    156 H156        0.1790  -15.8833  -42.4097 H         1 UNK         0.0600 
    157 H157       -0.6826  -15.6413  -43.9147 H         1 UNK         0.0600 
    158 H158        0.9836  -15.1016  -43.7661 H         1 UNK         0.0600 
    159 H159        2.3475  -16.9625  -42.6223 H         1 UNK         0.3000 
    160 H160        4.2461  -19.9817  -42.7286 H         1 UNK         0.0600 
    161 H161        6.0638  -18.3322  -42.5426 H         1 UNK         0.0600 
    162 H162        4.9873  -17.0206  -43.0133 H         1 UNK         0.0600 
    163 H163        5.4053  -18.2788  -44.1708 H         1 UNK         0.0600 
    164 H164        3.9947  -17.7298  -40.9184 H         1 UNK         0.3000 
    165 H165        1.7009  -19.2955  -38.6878 H         1 UNK         0.0600 
    166 H166        3.5548  -18.8471  -37.1114 H         1 UNK         0.0600 
    167 H167        3.9478  -20.2288  -38.1219 H         1 UNK         0.0600 
    168 H168        4.6924  -18.6680  -38.4472 H         1 UNK         0.0600 
    169 H169        3.0867  -16.7821  -38.6293 H         1 UNK         0.3000 
    170 H170        0.4466  -14.9085  -40.1855 H         1 UNK         0.0600 
    171 H171       -0.1479  -15.2985  -37.7812 H         1 UNK         0.0600 
    172 H172        1.5274  -15.0112  -37.3257 H         1 UNK         0.0600 
    173 H173        0.5678  -13.7175  -38.0440 H         1 UNK         0.0600 
    174 H174        2.6549  -13.6963  -39.2755 H         1 UNK         0.3000 
    175 H175        3.9178  -12.6743  -40.9436 H         1 UNK         0.0600 
    176 H176        5.9486  -14.9821  -40.8317 H         1 UNK         0.0600 
    177 H177        6.3430  -13.2653  -40.7395 H         1 UNK         0.0600 
    178 H178        5.4163  -14.0239  -39.4554 H         1 UNK         0.0600 
    179 H179        5.3718  -14.0704  -43.0185 H         1 UNK         0.3000 
    180 H180        5.1045  -13.1569  -45.2149 H         1 UNK         0.0600 
    181 H181        2.8016  -15.1970  -45.3955 H         1 UNK         0.0600 
    182 H182        4.4288  -15.5603  -44.8388 H         1 UNK         0.0600 
    183 H183        4.1626  -15.0911  -46.5077 H         1 UNK         0.0600 
    184 H184        2.3529  -12.2921  -45.5732 H         1 UNK         0.3000 
    185 H185        2.2393  -10.4925  -47.2743 H         1 UNK         0.0600 
    186 H186        3.9743  -10.0220  -49.0009 H         1 UNK         0.0600 
    187 H187        3.4517  -11.4199  -49.9364 H         1 UNK         0.0600 
    188 H188        2.3692  -10.0477  -49.7146 H         1 UNK         0.0600 
    189 H189        1.6223  -12.8755  -48.9951 H         1 UNK         0.3000 
    190 H190       -1.4047  -20.0233  -45.9743 H         1 UNK         0.3000 
    191 H191       -3.3758  -20.2890  -47.9606 H         1 UNK         0.0600 
    192 H192       -3.6559  -19.9732  -44.9260 H         1 UNK         0.0600 
    193 H193       -4.9475  -19.7044  -46.0935 H         1 UNK         0.0600 
    194 H194       -3.5271  -18.6730  -46.1091 H         1 UNK         0.0600 
    195 H195       -2.4777  -22.5658  -45.3596 H         1 UNK         0.3000 
    196 H196       -4.6732  -24.3730  -45.7445 H         1 UNK         0.0600 
    197 H197       -3.3512  -24.3373  -43.6567 H         1 UNK         0.0600 
    198 H198       -1.8998  -24.8296  -44.5255 H         1 UNK         0.0600 
    199 H199       -3.2661  -25.9298  -44.3939 H         1 UNK         0.0600 
    200 H200       -1.3549  -24.2346  -47.1204 H         1 UNK         0.3000 
    201 H201       -1.5882  -26.6638  -48.6511 H         1 UNK         0.0600 
    202 H202        0.6014  -25.7260  -47.9636 H         1 UNK         0.0600 
    203 H203        0.3195  -24.2800  -48.9294 H         1 UNK         0.0600 
    204 H204        0.5154  -25.8425  -49.7157 H         1 UNK         0.0600 
    205 H205       -2.0990  -23.2199  -49.3771 H         1 UNK         0.3000 
    206 H206       -2.7786  -23.6472  -52.1826 H         1 UNK         0.0600 
    207 H207       -2.8783  -21.1537  -52.1391 H         1 UNK         0.0600 
    208 H208       -2.7459  -21.1620  -50.3949 H         1 UNK         0.0600 
    209 H209       -1.4023  -21.7232  -51.3882 H         1 UNK         0.0600 
    210 H210       -4.5705  -24.4823  -49.6672 H         1 UNK         0.3000 
    211 H211       -6.9565  -23.0730  -49.6769 H         1 UNK         0.0600 
    212 H212       -6.4401  -26.0438  -49.1233 H         1 UNK         0.0600 
    213 H213       -7.9068  -25.1842  -48.6664 H         1 UNK         0.0600 
    214 H214       -6.3705  -24.7260  -47.9525 H         1 UNK         0.0600 
    215 H215       -8.9740  -23.3462  -50.5749 H         1 UNK         0.3000 
    216 H216      -10.5016  -23.5197  -52.1454 H         1 UNK         0.0600 
    217 H217      -10.8517  -25.6012  -53.3777 H         1 UNK         0.0600 
    218 H218      -10.3563  -25.9937  -51.7400 H         1 UNK         0.0600 
    219 H219       -9.2073  -26.1349  -53.0703 H         1 UNK         0.0600 
    220 H220       -8.1921  -21.9690  -52.6153 H         1 UNK         0.3000 
    221 H221       -7.2783  -20.5966  -54.0841 H         1 UNK         0.0600 
    222 H222       -9.5324  -21.3807  -56.0003 H         1 UNK         0.0600 
    223 H223       -9.6389  -20.1461  -54.7454 H         1 UNK         0.0600 
    224 H224       -8.5328  -19.9371  -56.0924 H         1 UNK         0.0600 
    225 H225       -5.8723  -22.8169  -53.8433 H         1 UNK         0.3000 
    226 H226       -4.9948  -23.6972  -56.5640 H         1 UNK         0.0600 
    227 H227       -3.9084  -25.5536  -55.3044 H         1 UNK         0.0600 
    228 H228       -4.4833  -24.8929  -53.7781 H         1 UNK         0.0600 
    229 H229       -5.6304  -25.5226  -54.9552 H         1 UNK         0.0600 
    230 H230       -2.6533  -23.8024  -56.8346 H         1 UNK         0.3000 
    231 H231       -0.6066  -22.9168  -56.9394 H         1 UNK         0.0600 
    232 H232       -0.4162  -24.4812  -55.0319 H         1 UNK         0.0600 
    233 H233       -0.8459  -23.2166  -53.8907 H         1 UNK         0.0600 
    234 H234        0.6675  -23.1257  -54.7959 H         1 UNK         0.0600 
    235 H235       -0.2118  -21.2673  -54.0407 H         1 UNK         0.3000 
    236 H236        0.2865  -18.7497  -55.2259 H         1 UNK         0.0600 
    237 H237        1.4356  -19.5686  -53.1892 H         1 UNK         0.0600 
    238 H238        0.6410  -18.0416  -52.8512 H         1 UNK         0.0600 
    239 H239       -0.0794  -19.5477  -52.2885 H         1 UNK         0.0600 
    240 H240       -2.7371  -20.0731  -54.0379 H         1 UNK         0.3000 
    241 H241       -4.0344  -17.3881  -54.0690 H         1 UNK         0.0600 
    242 H242       -3.2436  -19.5740  -56.4542 H         1 UNK         0.3800 
    243 H243       -4.6962  -19.3892  -57.4042 H         1 UNK         0.3800 
    244 H244       -5.9585  -18.4384  -52.9799 H         1 UNK         0.0800 
    245 H245       -5.2213  -20.0139  -53.0984 H         1 UNK         0.0800 
    246 H246       -3.0367  -16.8854  -52.1299 H         1 UNK         0.0800 
    247 H247       -4.4112  -16.3663  -51.1812 H         1 UNK         0.0800 
@<TRIPOS>BOND
     1    1    2 1    
     2    1  127 1    
     3    1  128 1    
     4    1  129 1    
     5    2    3 2    
     6    2    4 am   BACKBONE|DICT|INTERRES
     7    4    5 1    
     8    4  130 1    
     9    5    6 1    
    10    5   65 1    
    11    5  131 1    
    12    6    7 1    
    13    6  132 1    
    14    6  133 1    
    15    7    8 1    
    16    8    9 1    
    17    8  134 1    
    18    8  135 1    
    19    9   10 ar   
    20    9   14 ar   
    21   10   11 ar   
    22   10  136 1    
    23   11   12 ar   
    24   11  126 1    
    25   12   13 ar   
    26   12  137 1    
    27   13   14 ar   
    28   13   15 1    
    29   14  138 1    
    30   15   16 1    
    31   15  139 1    
    32   15  140 1    
    33   16   17 1    
    34   17   18 1    
    35   17  141 1    
    36   17  142 1    
    37   18   19 1    
    38   18   67 1    
    39   18  143 1    
    40   19   20 am   BACKBONE|DICT|INTERRES
    41   19  144 1    
    42   20   21 2    
    43   20   22 1    
    44   22   23 1    
    45   22   24 1    
    46   22  145 1    
    47   23  146 1    
    48   23  147 1    
    49   23  148 1    
    50   24   25 am   BACKBONE|DICT|INTERRES
    51   24  149 1    
    52   25   26 2    
    53   25   27 1    
    54   27   28 1    
    55   27   29 1    
    56   27  150 1    
    57   28  151 1    
    58   28  152 1    
    59   28  153 1    
    60   29   30 am   BACKBONE|DICT|INTERRES
    61   29  154 1    
    62   30   31 2    
    63   30   32 1    
    64   32   33 1    
    65   32   34 1    
    66   32  155 1    
    67   33  156 1    
    68   33  157 1    
    69   33  158 1    
    70   34   35 am   BACKBONE|DICT|INTERRES
    71   34  159 1    
    72   35   36 2    
    73   35   37 1    
    74   37   38 1    
    75   37   39 1    
    76   37  160 1    
    77   38  161 1    
    78   38  162 1    
    79   38  163 1    
    80   39   40 am   BACKBONE|DICT|INTERRES
    81   39  164 1    
    82   40   41 2    
    83   40   42 1    
    84   42   43 1    
    85   42   44 1    
    86   42  165 1    
    87   43  166 1    
    88   43  167 1    
    89   43  168 1    
    90   44   45 am   BACKBONE|DICT|INTERRES
    91   44  169 1    
    92   45   46 2    
    93   45   47 1    
    94   47   48 1    
    95   47   49 1    
    96   47  170 1    
    97   48  171 1    
    98   48  172 1    
    99   48  173 1    
   100   49   50 am   BACKBONE|DICT|INTERRES
   101   49  174 1    
   102   50   51 2    
   103   50   52 1    
   104   52   53 1    
   105   52   54 1    
   106   52  175 1    
   107   53  176 1    
   108   53  177 1    
   109   53  178 1    
   110   54   55 am   BACKBONE|DICT|INTERRES
   111   54  179 1    
   112   55   56 2    
   113   55   57 1    
   114   57   58 1    
   115   57   59 1    
   116   57  180 1    
   117   58  181 1    
   118   58  182 1    
   119   58  183 1    
   120   59   60 am   BACKBONE|DICT|INTERRES
   121   59  184 1    
   122   60   61 2    
   123   60   62 1    
   124   62   63 1    
   125   62   64 1    
   126   62  185 1    
   127   63  186 1    
   128   63  187 1    
   129   63  188 1    
   130   64   65 am   BACKBONE|DICT|INTERRES
   131   64  189 1    
   132   65   66 2    
   133   67   68 2    
   134   67   69 am   BACKBONE|DICT|INTERRES
   135   69   70 1    
   136   69  190 1    
   137   70   71 1    
   138   70   72 1    
   139   70  191 1    
   140   71  192 1    
   141   71  193 1    
   142   71  194 1    
   143   72   73 2    
   144   72   74 am   BACKBONE|DICT|INTERRES
   145   74   75 1    
   146   74  195 1    
   147   75   76 1    
   148   75   77 1    
   149   75  196 1    
   150   76  197 1    
   151   76  198 1    
   152   76  199 1    
   153   77   78 2    
   154   77   79 am   BACKBONE|DICT|INTERRES
   155   79   80 1    
   156   79  200 1    
   157   80   81 1    
   158   80   82 1    
   159   80  201 1    
   160   81  202 1    
   161   81  203 1    
   162   81  204 1    
   163   82   83 2    
   164   82   84 am   BACKBONE|DICT|INTERRES
   165   84   85 1    
   166   84  205 1    
   167   85   86 1    
   168   85   87 1    
   169   85  206 1    
   170   86  207 1    
   171   86  208 1    
   172   86  209 1    
   173   87   88 2    
   174   87   89 am   BACKBONE|DICT|INTERRES
   175   89   90 1    
   176   89  210 1    
   177   90   91 1    
   178   90   92 1    
   179   90  211 1    
   180   91  212 1    
   181   91  213 1    
   182   91  214 1    
   183   92   93 2    
   184   92   94 am   BACKBONE|DICT|INTERRES
   185   94   95 1    
   186   94  215 1    
   187   95   96 1    
   188   95   97 1    
   189   95  216 1    
   190   96  217 1    
   191   96  218 1    
   192   96  219 1    
   193   97   98 2    
   194   97   99 am   BACKBONE|DICT|INTERRES
   195   99  100 1    
   196   99  220 1    
   197  100  101 1    
   198  100  102 1    
   199  100  221 1    
   200  101  222 1    
   201  101  223 1    
   202  101  224 1    
   203  102  103 2    
   204  102  104 am   BACKBONE|DICT|INTERRES
   205  104  105 1    
   206  104  225 1    
   207  105  106 1    
   208  105  107 1    
   209  105  226 1    
   210  106  227 1    
   211  106  228 1    
   212  106  229 1    
   213  107  108 2    
   214  107  109 am   BACKBONE|DICT|INTERRES
   215  109  110 1    
   216  109  230 1    
   217  110  111 1    
   218  110  112 1    
   219  110  231 1    
   220  111  232 1    
   221  111  233 1    
   222  111  234 1    
   223  112  113 2    
   224  112  114 am   BACKBONE|DICT|INTERRES
   225  114  115 1    
   226  114  235 1    
   227  115  116 1    
   228  115  117 1    
   229  115  236 1    
   230  116  237 1    
   231  116  238 1    
   232  116  239 1    
   233  117  118 2    
   234  117  119 am   BACKBONE|DICT|INTERRES
   235  119  120 1    
   236  119  240 1    
   237  120  121 1    
   238  120  124 1    
   239  120  241 1    
   240  121  122 am   BACKBONE|DICT|INTERRES
   241  121  123 2    
   242  122  242 1    
   243  122  243 1    
   244  124  125 1    
   245  124  244 1    
   246  124  245 1    
   247  125  126 1    
   248  126  246 1    
   249  126  247 1    
@<TRIPOS>SUBSTRUCTURE
     1 UNK         1 GROUP             0       ****    0 ROOT    
