@<TRIPOS>MOLECULE
3R540
247   249    1
SMALL
USER_CHARGES


@<TRIPOS>ATOM
      1 CA         -5.1190  -13.5347  -51.3234 C.3       0 UNK        -0.1800 
      2 C          -4.0063  -14.3961  -50.7446 C.2       0 UNK         0.5000 
      3 O          -4.0862  -15.6231  -50.8198 O.2       0 UNK        -0.5000 
      4 N          -2.9831  -13.7558  -50.1678 N.am      1 UNK        -0.5000 
      5 CA         -1.7911  -14.3967  -49.6070 C.3       1 UNK         0.1400 
      6 C6         -1.0672  -13.4693  -48.5953 C.3       23 UNK        -0.0398 
      7 S7         -2.0254  -13.1223  -47.0827 S.3       23 UNK        -0.2404 
      8 C8         -1.2604  -14.2695  -45.8881 C.3       23 UNK        -0.0205 
      9 C9         -1.7763  -15.6838  -46.0912 C.ar      23 UNK        -0.0193 
     10 C10        -2.9668  -16.0769  -45.4774 C.ar      23 UNK        -0.1150 
     11 C11        -3.5011  -17.3482  -45.6976 C.ar      23 UNK        -0.0193 
     12 C12        -2.8192  -18.2334  -46.5404 C.ar      23 UNK        -0.1150 
     13 C13        -1.6441  -17.8412  -47.1885 C.ar      23 UNK        -0.0193 
     14 C14        -1.1048  -16.5781  -46.9290 C.ar      23 UNK        -0.1150 
     15 C15        -1.0204  -18.7519  -48.2371 C.3       23 UNK        -0.0205 
     16 S16         0.6794  -19.2833  -47.8670 S.3       23 UNK        -0.2404 
     17 C17         0.4978  -20.0363  -46.2204 C.3       23 UNK        -0.0398 
     18 CA          0.2784  -21.5655  -46.2200 C.3       11 UNK         0.1400 
     19 N           0.4926  -22.1006  -44.8747 N.am      11 UNK        -0.5000 
     20 C           0.3760  -23.3761  -44.4813 C.2       10 UNK         0.5000 
     21 O           0.0550  -24.3048  -45.2237 O.2       10 UNK        -0.5000 
     22 CA          0.6266  -23.6367  -42.9879 C.3       10 UNK         0.1400 
     23 CB          2.1325  -23.6580  -42.6829 C.3       10 UNK        -0.1800 
     24 N          -0.0210  -22.6119  -42.1680 N.am      10 UNK        -0.5000 
     25 C          -1.3039  -22.6567  -41.7851 C.2       9 UNK         0.5000 
     26 O          -2.0537  -23.6057  -42.0166 O.2       9 UNK        -0.5000 
     27 CA         -1.8496  -21.4334  -41.0216 C.3       9 UNK         0.1400 
     28 CB         -1.6254  -21.5981  -39.5109 C.3       9 UNK        -0.1800 
     29 N          -1.2770  -20.1562  -41.4542 N.am      9 UNK        -0.5000 
     30 C          -1.4407  -19.6235  -42.6727 C.2       8 UNK         0.5000 
     31 O          -2.0537  -20.1755  -43.5841 O.2       8 UNK        -0.5000 
     32 CA         -0.7701  -18.2623  -42.9315 C.3       8 UNK         0.1400 
     33 CB         -1.6404  -17.1281  -42.3722 C.3       8 UNK        -0.1800 
     34 N           0.5998  -18.1283  -42.4205 N.am      8 UNK        -0.5000 
     35 C           1.6108  -18.9977  -42.5858 C.2       7 UNK         0.5000 
     36 O           1.4741  -20.1221  -43.0701 O.2       7 UNK        -0.5000 
     37 CA          3.0211  -18.5480  -42.1609 C.3       7 UNK         0.1400 
     38 CB          3.9680  -18.5544  -43.3734 C.3       7 UNK        -0.1800 
     39 N           3.0325  -17.2094  -41.5689 N.am      7 UNK        -0.5000 
     40 C           3.0370  -16.9511  -40.2532 C.2       6 UNK         0.5000 
     41 O           3.0265  -17.8268  -39.3876 O.2       6 UNK        -0.5000 
     42 CA          3.0546  -15.4688  -39.8217 C.3       6 UNK         0.1400 
     43 CB          4.4855  -15.0313  -39.4728 C.3       6 UNK        -0.1800 
     44 N           2.5188  -14.5584  -40.8350 N.am      6 UNK        -0.5000 
     45 C           1.2362  -14.5103  -41.2193 C.2       5 UNK         0.5000 
     46 O           0.3476  -15.1802  -40.6955 O.2       5 UNK        -0.5000 
     47 CA          0.8958  -13.6029  -42.4197 C.3       5 UNK         0.1400 
     48 CB          0.3124  -12.2661  -41.9396 C.3       5 UNK        -0.1800 
     49 N           2.0281  -13.3401  -43.3165 N.am      5 UNK        -0.5000 
     50 C           2.6886  -14.2766  -44.0100 C.2       4 UNK         0.5000 
     51 O           2.4434  -15.4826  -43.9295 O.2       4 UNK        -0.5000 
     52 CA          3.8611  -13.7876  -44.8813 C.3       4 UNK         0.1400 
     53 CB          5.1542  -13.7527  -44.0516 C.3       4 UNK        -0.1800 
     54 N           4.0704  -14.6510  -46.0436 N.am      4 UNK        -0.5000 
     55 C           3.2084  -14.7665  -47.0601 C.2       3 UNK         0.5000 
     56 O           2.1995  -14.0657  -47.1832 O.2       3 UNK        -0.5000 
     57 CA          3.5135  -15.8533  -48.1033 C.3       3 UNK         0.1400 
     58 CB          3.5994  -17.2460  -47.4463 C.3       3 UNK        -0.1800 
     59 N           2.4502  -15.8226  -49.1034 N.am      3 UNK        -0.5000 
     60 C           2.4829  -16.3559  -50.3305 C.2       2 UNK         0.5000 
     61 O           3.4586  -16.9602  -50.7774 O.2       2 UNK        -0.5000 
     62 CA          1.2207  -16.1877  -51.2054 C.3       2 UNK         0.1400 
     63 CB          0.8875  -17.4747  -51.9772 C.3       2 UNK        -0.1800 
     64 N           0.0598  -15.7845  -50.4036 N.am      2 UNK        -0.5000 
     65 C          -0.7965  -14.8032  -50.7166 C.2       1 UNK         0.5000 
     66 O          -0.7723  -14.1845  -51.7833 O.2       1 UNK        -0.5000 
     67 C          -1.1048  -21.9426  -46.7892 C.2       11 UNK         0.5000 
     68 O          -1.1868  -22.3665  -47.9429 O.2       11 UNK        -0.5000 
     69 N          -2.1483  -21.8385  -45.9527 N.am      12 UNK        -0.5000 
     70 CA         -3.5450  -22.1392  -46.2741 C.3       12 UNK         0.1400 
     71 CB         -4.4071  -21.8873  -45.0286 C.3       12 UNK        -0.1800 
     72 C          -3.8069  -23.5621  -46.7998 C.2       12 UNK         0.5000 
     73 O          -4.7739  -23.7576  -47.5363 O.2       12 UNK        -0.5000 
     74 N          -2.9578  -24.5213  -46.4118 N.am      13 UNK        -0.5000 
     75 CA         -3.0334  -25.9168  -46.8386 C.3       13 UNK         0.1400 
     76 CB         -2.6897  -26.8056  -45.6324 C.3       13 UNK        -0.1800 
     77 C          -2.0886  -26.2288  -48.0151 C.2       13 UNK         0.5000 
     78 O          -2.2212  -27.2964  -48.6151 O.2       13 UNK        -0.5000 
     79 N          -1.1390  -25.3299  -48.3064 N.am      14 UNK        -0.5000 
     80 CA         -0.0413  -25.5604  -49.2433 C.3       14 UNK         0.1400 
     81 CB          1.2782  -25.1607  -48.5622 C.3       14 UNK        -0.1800 
     82 C          -0.2159  -24.7863  -50.5580 C.2       14 UNK         0.5000 
     83 O          -0.0171  -25.3635  -51.6276 O.2       14 UNK        -0.5000 
     84 N          -0.5509  -23.4938  -50.4626 N.am      15 UNK        -0.5000 
     85 CA         -0.5488  -22.5621  -51.5927 C.3       15 UNK         0.1400 
     86 CB          0.0268  -21.2215  -51.1153 C.3       15 UNK        -0.1800 
     87 C          -1.9373  -22.3482  -52.2162 C.2       15 UNK         0.5000 
     88 O          -2.0253  -21.6689  -53.2415 O.2       15 UNK        -0.5000 
     89 N          -2.9902  -22.8891  -51.5888 N.am      16 UNK        -0.5000 
     90 CA         -4.3923  -22.7364  -51.9823 C.3       16 UNK         0.1400 
     91 CB         -5.2732  -23.5482  -51.0244 C.3       16 UNK        -0.1800 
     92 C          -4.6512  -23.1650  -53.4369 C.2       16 UNK         0.5000 
     93 O          -4.3521  -24.3052  -53.7965 O.2       16 UNK        -0.5000 
     94 N          -5.1567  -22.2269  -54.2472 N.am      17 UNK        -0.5000 
     95 CA         -5.4539  -22.3040  -55.6837 C.3       17 UNK         0.1400 
     96 CB         -6.4405  -23.4441  -56.0021 C.3       17 UNK        -0.1800 
     97 C          -4.2104  -22.3619  -56.5952 C.2       17 UNK         0.5000 
     98 O          -4.2972  -21.9379  -57.7484 O.2       17 UNK        -0.5000 
     99 N          -3.0769  -22.8506  -56.0766 N.am      18 UNK        -0.5000 
    100 CA        -1.7787  -22.8680  -56.7483 C.3       18 UNK         0.1400 
    101 CB        -0.8267  -23.7993  -55.9817 C.3       18 UNK        -0.1800 
    102 C         -1.1721  -21.4591  -56.8796 C.2       18 UNK         0.5000 
    103 O         -0.5427  -21.1627  -57.8963 O.2       18 UNK        -0.5000 
    104 N         -1.3864  -20.6184  -55.8604 N.am      19 UNK        -0.5000 
    105 CA        -0.9351  -19.2297  -55.8145 C.3       19 UNK         0.1400 
    106 CB         0.5266  -19.1663  -55.3357 C.3       19 UNK        -0.1800 
    107 C         -1.8364  -18.3609  -54.9243 C.2       19 UNK         0.5000 
    108 O         -2.0897  -17.2069  -55.2720 O.2       19 UNK        -0.5000 
    109 N         -2.2912  -18.9113  -53.7926 N.am      20 UNK        -0.5000 
    110 CA        -3.0907  -18.2081  -52.7941 C.3       20 UNK         0.1400 
    111 CB        -2.6779  -18.7169  -51.4086 C.3       20 UNK        -0.1800 
    112 C         -4.5899  -18.4543  -53.0044 C.2       20 UNK         0.5000 
    113 O         -4.9823  -19.5024  -53.5240 O.2       20 UNK        -0.5000 
    114 N         -5.4034  -17.5025  -52.5369 N.am      21 UNK        -0.5000 
    115 CA        -6.8546  -17.6494  -52.4273 C.3       21 UNK         0.1400 
    116 CB        -7.5109  -16.2610  -52.4564 C.3       21 UNK        -0.1800 
    117 C         -7.2331  -18.4024  -51.1387 C.2       21 UNK         0.5000 
    118 O         -8.1793  -19.1900  -51.1461 O.2       21 UNK        -0.5000 
    119 N         -6.4765  -18.1499  -50.0635 N.am      22 UNK        -0.5000 
    120 CA        -6.5578  -18.8630  -48.7850 C.3       22 UNK         0.1400 
    121 C         -5.8348  -20.2382  -48.8813 C.2       22 UNK         0.5000 
    122 N         -6.4492  -21.3105  -48.3977 N.am      22 UNK        -0.7600 
    123 O         -4.7022  -20.3288  -49.3448 O.2       22 UNK        -0.5000 
    124 C124       -6.0040  -17.9623  -47.6474 C.3       23 UNK        -0.0398 
    125 S125       -5.9495  -18.7726  -46.0064 S.3       23 UNK        -0.2404 
    126 C126       -4.8244  -17.7155  -45.0271 C.3       23 UNK        -0.0205 
    127 H127       -6.0255  -13.6454  -50.7289 H         1 UNK         0.0600 
    128 H128       -5.3385  -13.8413  -52.3461 H         1 UNK         0.0600 
    129 H129       -4.8476  -12.4789  -51.3379 H         1 UNK         0.0600 
    130 H130       -2.9774  -12.7464  -50.1569 H         1 UNK         0.3000 
    131 H131       -2.1118  -15.3047  -49.0943 H         1 UNK         0.0600 
    132 H132       -0.1097  -13.8920  -48.2952 H         1 UNK         0.0800 
    133 H133       -0.8264  -12.5135  -49.0643 H         1 UNK         0.0800 
    134 H134       -0.1727  -14.2365  -45.9605 H         1 UNK         0.0800 
    135 H135       -1.5042  -13.9338  -44.8793 H         1 UNK         0.0800 
    136 H136       -3.4904  -15.3778  -44.8405 H         1 UNK         0.1150 
    137 H137       -3.2344  -19.2107  -46.7351 H         1 UNK         0.1150 
    138 H138       -0.1880  -16.2742  -47.4116 H         1 UNK         0.1150 
    139 H139       -1.6486  -19.6254  -48.4167 H         1 UNK         0.0800 
    140 H140       -0.9951  -18.2066  -49.1770 H         1 UNK         0.0800 
    141 H141       -0.2914  -19.5386  -45.6624 H         1 UNK         0.0800 
    142 H142        1.4224  -19.8028  -45.6916 H         1 UNK         0.0800 
    143 H143        1.0344  -22.0213  -46.8620 H         1 UNK         0.0600 
    144 H144        0.7762  -21.4178  -44.1759 H         1 UNK         0.3000 
    145 H145        0.2175  -24.6187  -42.7405 H         1 UNK         0.0600 
    146 H146        2.3172  -23.8905  -41.6340 H         1 UNK         0.0600 
    147 H147        2.6396  -24.4180  -43.2787 H         1 UNK         0.0600 
    148 H148        2.6057  -22.6997  -42.9011 H         1 UNK         0.0600 
    149 H149        0.5074  -21.7657  -41.9968 H         1 UNK         0.3000 
    150 H150       -2.9257  -21.3910  -41.2030 H         1 UNK         0.0600 
    151 H151       -2.0615  -22.5309  -39.1505 H         1 UNK         0.0600 
    152 H152       -2.0910  -20.7863  -38.9517 H         1 UNK         0.0600 
    153 H153       -0.5638  -21.6138  -39.2609 H         1 UNK         0.0600 
    154 H154       -0.7356  -19.6432  -40.7741 H         1 UNK         0.3000 
    155 H155       -0.7198  -18.1221  -44.0111 H         1 UNK         0.0600 
    156 H156       -2.6775  -17.2312  -42.6929 H         1 UNK         0.0600 
    157 H157       -1.2925  -16.1575  -42.7243 H         1 UNK         0.0600 
    158 H158       -1.6345  -17.1149  -41.2818 H         1 UNK         0.0600 
    159 H159        0.8190  -17.2432  -41.9858 H         1 UNK         0.3000 
    160 H160        3.3913  -19.2812  -41.4417 H         1 UNK         0.0600 
    161 H161        3.6209  -17.8853  -44.1614 H         1 UNK         0.0600 
    162 H162        4.0461  -19.5531  -43.8052 H         1 UNK         0.0600 
    163 H163        4.9741  -18.2452  -43.0902 H         1 UNK         0.0600 
    164 H164        2.9934  -16.4395  -42.2290 H         1 UNK         0.3000 
    165 H165        2.4394  -15.3798  -38.9239 H         1 UNK         0.0600 
    166 H166        4.5050  -14.0089  -39.0950 H         1 UNK         0.0600 
    167 H167        4.9120  -15.6703  -38.6983 H         1 UNK         0.0600 
    168 H168        5.1447  -15.0825  -40.3405 H         1 UNK         0.0600 
    169 H169        3.1835  -13.9692  -41.3135 H         1 UNK         0.3000 
    170 H170        0.1300  -14.1185  -43.0018 H         1 UNK         0.0600 
    171 H171       -0.5500  -12.4263  -41.2910 H         1 UNK         0.0600 
    172 H172        1.0447  -11.6870  -41.3756 H         1 UNK         0.0600 
    173 H173       -0.0242  -11.6580  -42.7796 H         1 UNK         0.0600 
    174 H174        2.3010  -12.3729  -43.4183 H         1 UNK         0.3000 
    175 H175        3.6407  -12.7787  -45.2365 H         1 UNK         0.0600 
    176 H176        5.4158  -14.7414  -43.6715 H         1 UNK         0.0600 
    177 H177        5.9935  -13.3882  -44.6442 H         1 UNK         0.0600 
    178 H178        5.0530  -13.0875  -43.1930 H         1 UNK         0.0600 
    179 H179        4.8582  -15.2798  -45.9966 H         1 UNK         0.3000 
    180 H180        4.4623  -15.6110  -48.5858 H         1 UNK         0.0600 
    181 H181        2.7256  -17.4470  -46.8256 H         1 UNK         0.0600 
    182 H182        4.4771  -17.3268  -46.8048 H         1 UNK         0.0600 
    183 H183        3.6738  -18.0406  -48.1885 H         1 UNK         0.0600 
    184 H184        1.6767  -15.2313  -48.8313 H         1 UNK         0.3000 
    185 H185        1.4600  -15.4072  -51.9304 H         1 UNK         0.0600 
    186 H186        1.7001  -17.7547  -52.6483 H         1 UNK         0.0600 
    187 H187        0.7233  -18.3090  -51.2959 H         1 UNK         0.0600 
    188 H188       -0.0052  -17.3474  -52.5889 H         1 UNK         0.0600 
    189 H189       -0.0374  -16.2641  -49.5215 H         1 UNK         0.3000 
    190 H190       -1.9898  -21.4400  -45.0305 H         1 UNK         0.3000 
    191 H191       -3.8504  -21.4443  -47.0553 H         1 UNK         0.0600 
    192 H192       -4.3242  -20.8549  -44.6928 H         1 UNK         0.0600 
    193 H193       -4.1122  -22.5316  -44.1992 H         1 UNK         0.0600 
    194 H194       -5.4618  -22.0728  -45.2362 H         1 UNK         0.0600 
    195 H195       -2.1761  -24.2726  -45.8183 H         1 UNK         0.3000 
    196 H196       -4.0487  -26.1596  -47.1590 H         1 UNK         0.0600 
    197 H197       -2.7605  -27.8630  -45.8906 H         1 UNK         0.0600 
    198 H198       -3.3755  -26.6277  -44.8038 H         1 UNK         0.0600 
    199 H199       -1.6760  -26.6217  -45.2735 H         1 UNK         0.0600 
    200 H200       -1.1372  -24.4450  -47.8142 H         1 UNK         0.3000 
    201 H201        0.0288  -26.6212  -49.4934 H         1 UNK         0.0600 
    202 H202        1.4488  -25.7508  -47.6614 H         1 UNK         0.0600 
    203 H203        1.2838  -24.1088  -48.2746 H         1 UNK         0.0600 
    204 H204        2.1279  -25.3257  -49.2259 H         1 UNK         0.0600 
    205 H205       -0.7354  -23.0893  -49.5460 H         1 UNK         0.3000 
    206 H206        0.1022  -22.9367  -52.3853 H         1 UNK         0.0600 
    207 H207        1.0304  -21.3420  -50.7072 H         1 UNK         0.0600 
    208 H208        0.0944  -20.5111  -51.9395 H         1 UNK         0.0600 
    209 H209       -0.5968  -20.7747  -50.3415 H         1 UNK         0.0600 
    210 H210       -2.8111  -23.4332  -50.7586 H         1 UNK         0.3000 
    211 H211       -4.6491  -21.6814  -51.8682 H         1 UNK         0.0600 
    212 H212       -5.0380  -24.6127  -51.0595 H         1 UNK         0.0600 
    213 H213       -6.3297  -23.4317  -51.2689 H         1 UNK         0.0600 
    214 H214       -5.1385  -23.2091  -50.0007 H         1 UNK         0.0600 
    215 H215       -5.2480  -21.2854  -53.8663 H         1 UNK         0.3000 
    216 H216       -5.9564  -21.3645  -55.9194 H         1 UNK         0.0600 
    217 H217       -6.7638  -23.3961  -57.0426 H         1 UNK         0.0600 
    218 H218       -7.3338  -23.3785  -55.3811 H         1 UNK         0.0600 
    219 H219       -5.9944  -24.4269  -55.8488 H         1 UNK         0.0600 
    220 H220       -3.1096  -23.2075  -55.1297 H         1 UNK         0.3000 
    221 H221       -1.9172  -23.2707  -57.7538 H         1 UNK         0.0600 
    222 H222       -0.6555  -23.4523  -54.9622 H         1 UNK         0.0600 
    223 H223       -1.2251  -24.8126  -55.9276 H         1 UNK         0.0600 
    224 H224        0.1439  -23.8570  -56.4759 H         1 UNK         0.0600 
    225 H225       -1.8909  -20.9647  -55.0504 H         1 UNK         0.3000 
    226 H226       -0.9887  -18.8087  -56.8209 H         1 UNK         0.0600 
    227 H227        1.1928  -19.6829  -56.0266 H         1 UNK         0.0600 
    228 H228        0.8712  -18.1339  -55.2639 H         1 UNK         0.0600 
    229 H229        0.6449  -19.6229  -54.3524 H         1 UNK         0.0600 
    230 H230       -2.1021  -19.8889  -53.5898 H         1 UNK         0.3000 
    231 H231       -2.8894  -17.1355  -52.8427 H         1 UNK         0.0600 
    232 H232       -1.6048  -18.6256  -51.2709 H         1 UNK         0.0600 
    233 H233       -2.9417  -19.7645  -51.2678 H         1 UNK         0.0600 
    234 H234       -3.1638  -18.1502  -50.6139 H         1 UNK         0.0600 
    235 H235       -4.9863  -16.7014  -52.0688 H         1 UNK         0.3000 
    236 H236       -7.2279  -18.2205  -53.2802 H         1 UNK         0.0600 
    237 H237       -8.5981  -16.3448  -52.4313 H         1 UNK         0.0600 
    238 H238       -7.2098  -15.6550  -51.6017 H         1 UNK         0.0600 
    239 H239       -7.2469  -15.7179  -53.3640 H         1 UNK         0.0600 
    240 H240       -5.6944  -17.5196  -50.1684 H         1 UNK         0.3000 
    241 H241       -7.6116  -19.0488  -48.5676 H         1 UNK         0.0600 
    242 H242       -5.9609  -22.1964  -48.3945 H         1 UNK         0.3800 
    243 H243       -7.3703  -21.2515  -47.9938 H         1 UNK         0.3800 
    244 H244       -5.0089  -17.6126  -47.9195 H         1 UNK         0.0800 
    245 H245       -6.6181  -17.0655  -47.5572 H         1 UNK         0.0800 
    246 H246       -4.6020  -18.2277  -44.0903 H         1 UNK         0.0800 
    247 H247       -5.3715  -16.8100  -44.7606 H         1 UNK         0.0800 
@<TRIPOS>BOND
     1    1    2 1    
     2    1  127 1    
     3    1  128 1    
     4    1  129 1    
     5    2    3 2    
     6    2    4 am   BACKBONE|DICT|INTERRES
     7    4    5 1    
     8    4  130 1    
     9    5    6 1    
    10    5   65 1    
    11    5  131 1    
    12    6    7 1    
    13    6  132 1    
    14    6  133 1    
    15    7    8 1    
    16    8    9 1    
    17    8  134 1    
    18    8  135 1    
    19    9   10 ar   
    20    9   14 ar   
    21   10   11 ar   
    22   10  136 1    
    23   11   12 ar   
    24   11  126 1    
    25   12   13 ar   
    26   12  137 1    
    27   13   14 ar   
    28   13   15 1    
    29   14  138 1    
    30   15   16 1    
    31   15  139 1    
    32   15  140 1    
    33   16   17 1    
    34   17   18 1    
    35   17  141 1    
    36   17  142 1    
    37   18   19 1    
    38   18   67 1    
    39   18  143 1    
    40   19   20 am   BACKBONE|DICT|INTERRES
    41   19  144 1    
    42   20   21 2    
    43   20   22 1    
    44   22   23 1    
    45   22   24 1    
    46   22  145 1    
    47   23  146 1    
    48   23  147 1    
    49   23  148 1    
    50   24   25 am   BACKBONE|DICT|INTERRES
    51   24  149 1    
    52   25   26 2    
    53   25   27 1    
    54   27   28 1    
    55   27   29 1    
    56   27  150 1    
    57   28  151 1    
    58   28  152 1    
    59   28  153 1    
    60   29   30 am   BACKBONE|DICT|INTERRES
    61   29  154 1    
    62   30   31 2    
    63   30   32 1    
    64   32   33 1    
    65   32   34 1    
    66   32  155 1    
    67   33  156 1    
    68   33  157 1    
    69   33  158 1    
    70   34   35 am   BACKBONE|DICT|INTERRES
    71   34  159 1    
    72   35   36 2    
    73   35   37 1    
    74   37   38 1    
    75   37   39 1    
    76   37  160 1    
    77   38  161 1    
    78   38  162 1    
    79   38  163 1    
    80   39   40 am   BACKBONE|DICT|INTERRES
    81   39  164 1    
    82   40   41 2    
    83   40   42 1    
    84   42   43 1    
    85   42   44 1    
    86   42  165 1    
    87   43  166 1    
    88   43  167 1    
    89   43  168 1    
    90   44   45 am   BACKBONE|DICT|INTERRES
    91   44  169 1    
    92   45   46 2    
    93   45   47 1    
    94   47   48 1    
    95   47   49 1    
    96   47  170 1    
    97   48  171 1    
    98   48  172 1    
    99   48  173 1    
   100   49   50 am   BACKBONE|DICT|INTERRES
   101   49  174 1    
   102   50   51 2    
   103   50   52 1    
   104   52   53 1    
   105   52   54 1    
   106   52  175 1    
   107   53  176 1    
   108   53  177 1    
   109   53  178 1    
   110   54   55 am   BACKBONE|DICT|INTERRES
   111   54  179 1    
   112   55   56 2    
   113   55   57 1    
   114   57   58 1    
   115   57   59 1    
   116   57  180 1    
   117   58  181 1    
   118   58  182 1    
   119   58  183 1    
   120   59   60 am   BACKBONE|DICT|INTERRES
   121   59  184 1    
   122   60   61 2    
   123   60   62 1    
   124   62   63 1    
   125   62   64 1    
   126   62  185 1    
   127   63  186 1    
   128   63  187 1    
   129   63  188 1    
   130   64   65 am   BACKBONE|DICT|INTERRES
   131   64  189 1    
   132   65   66 2    
   133   67   68 2    
   134   67   69 am   BACKBONE|DICT|INTERRES
   135   69   70 1    
   136   69  190 1    
   137   70   71 1    
   138   70   72 1    
   139   70  191 1    
   140   71  192 1    
   141   71  193 1    
   142   71  194 1    
   143   72   73 2    
   144   72   74 am   BACKBONE|DICT|INTERRES
   145   74   75 1    
   146   74  195 1    
   147   75   76 1    
   148   75   77 1    
   149   75  196 1    
   150   76  197 1    
   151   76  198 1    
   152   76  199 1    
   153   77   78 2    
   154   77   79 am   BACKBONE|DICT|INTERRES
   155   79   80 1    
   156   79  200 1    
   157   80   81 1    
   158   80   82 1    
   159   80  201 1    
   160   81  202 1    
   161   81  203 1    
   162   81  204 1    
   163   82   83 2    
   164   82   84 am   BACKBONE|DICT|INTERRES
   165   84   85 1    
   166   84  205 1    
   167   85   86 1    
   168   85   87 1    
   169   85  206 1    
   170   86  207 1    
   171   86  208 1    
   172   86  209 1    
   173   87   88 2    
   174   87   89 am   BACKBONE|DICT|INTERRES
   175   89   90 1    
   176   89  210 1    
   177   90   91 1    
   178   90   92 1    
   179   90  211 1    
   180   91  212 1    
   181   91  213 1    
   182   91  214 1    
   183   92   93 2    
   184   92   94 am   BACKBONE|DICT|INTERRES
   185   94   95 1    
   186   94  215 1    
   187   95   96 1    
   188   95   97 1    
   189   95  216 1    
   190   96  217 1    
   191   96  218 1    
   192   96  219 1    
   193   97   98 2    
   194   97   99 am   BACKBONE|DICT|INTERRES
   195   99  100 1    
   196   99  220 1    
   197  100  101 1    
   198  100  102 1    
   199  100  221 1    
   200  101  222 1    
   201  101  223 1    
   202  101  224 1    
   203  102  103 2    
   204  102  104 am   BACKBONE|DICT|INTERRES
   205  104  105 1    
   206  104  225 1    
   207  105  106 1    
   208  105  107 1    
   209  105  226 1    
   210  106  227 1    
   211  106  228 1    
   212  106  229 1    
   213  107  108 2    
   214  107  109 am   BACKBONE|DICT|INTERRES
   215  109  110 1    
   216  109  230 1    
   217  110  111 1    
   218  110  112 1    
   219  110  231 1    
   220  111  232 1    
   221  111  233 1    
   222  111  234 1    
   223  112  113 2    
   224  112  114 am   BACKBONE|DICT|INTERRES
   225  114  115 1    
   226  114  235 1    
   227  115  116 1    
   228  115  117 1    
   229  115  236 1    
   230  116  237 1    
   231  116  238 1    
   232  116  239 1    
   233  117  118 2    
   234  117  119 am   BACKBONE|DICT|INTERRES
   235  119  120 1    
   236  119  240 1    
   237  120  121 1    
   238  120  124 1    
   239  120  241 1    
   240  121  122 am   BACKBONE|DICT|INTERRES
   241  121  123 2    
   242  122  242 1    
   243  122  243 1    
   244  124  125 1    
   245  124  244 1    
   246  124  245 1    
   247  125  126 1    
   248  126  246 1    
   249  126  247 1    
@<TRIPOS>SUBSTRUCTURE
     1 UNK         1 GROUP             0       ****    0 ROOT    
