@<TRIPOS>MOLECULE
3R540
247   249    1
SMALL
USER_CHARGES


@<TRIPOS>ATOM
      1 CA          1.7196  -10.7656  -47.5644 C.3       0 UNK        -0.1800 
      2 C           0.6009  -11.6499  -47.0375 C.2       0 UNK         0.5000 
      3 O           0.6556  -12.0873  -45.8892 O.2       0 UNK        -0.5000 
      4 N          -0.4196  -11.9173  -47.8614 N.am      1 UNK        -0.5000 
      5 CA         -1.5607  -12.7957  -47.5507 C.3       1 UNK         0.1400 
      6 C6         -2.3769  -13.1459  -48.8173 C.3       23 UNK        -0.0398 
      7 S7         -1.3512  -14.0097  -50.0537 S.3       23 UNK        -0.2404 
      8 C8         -1.8507  -15.7330  -49.7637 C.3       23 UNK        -0.0205 
      9 C9         -0.8550  -16.7012  -50.3788 C.ar      23 UNK        -0.0193 
     10 C10        -0.8731  -16.9570  -51.7529 C.ar      23 UNK        -0.1150 
     11 C11         0.0266  -17.8663  -52.3182 C.ar      23 UNK        -0.0193 
     12 C12         0.9561  -18.5117  -51.4954 C.ar      23 UNK        -0.1150 
     13 C13         0.9976  -18.2466  -50.1241 C.ar      23 UNK        -0.0193 
     14 C14         0.0814  -17.3494  -49.5702 C.ar      23 UNK        -0.1150 
     15 C15         2.0376  -18.9211  -49.2420 C.3       23 UNK        -0.0205 
     16 S16         1.6570  -20.6742  -48.9491 S.3       23 UNK        -0.2404 
     17 C17         0.0535  -20.5450  -48.0933 C.3       23 UNK        -0.0398 
     18 CA         -0.4097  -21.9179  -47.5649 C.3       11 UNK         0.1400 
     19 N           0.4687  -22.4524  -46.5213 N.am      11 UNK        -0.5000 
     20 C           0.5116  -23.7459  -46.1756 C.2       10 UNK         0.5000 
     21 O          -0.1752  -24.6181  -46.7057 O.2       10 UNK        -0.5000 
     22 CA          1.4408  -24.1151  -45.0062 C.3       10 UNK         0.1400 
     23 CB          2.8988  -24.2142  -45.4787 C.3       10 UNK        -0.1800 
     24 N           1.3561  -23.1722  -43.8896 N.am      10 UNK        -0.5000 
     25 C           0.2497  -22.8995  -43.1880 C.2       9 UNK         0.5000 
     26 O          -0.8443  -23.4093  -43.4271 O.2       9 UNK        -0.5000 
     27 CA          0.3544  -21.8664  -42.0524 C.3       9 UNK         0.1400 
     28 CB          0.6764  -22.5487  -40.7102 C.3       9 UNK        -0.1800 
     29 N           1.2581  -20.7387  -42.3120 N.am      9 UNK        -0.5000 
     30 C           2.5985  -20.7184  -42.3968 C.2       8 UNK         0.5000 
     31 O           3.2985  -21.7312  -42.3818 O.2       8 UNK        -0.5000 
     32 CA          3.2801  -19.3390  -42.5348 C.3       8 UNK         0.1400 
     33 CB          3.7518  -19.1225  -43.9812 C.3       8 UNK        -0.1800 
     34 N           2.4222  -18.2172  -42.1487 N.am      8 UNK        -0.5000 
     35 C           1.9256  -17.9920  -40.9238 C.2       7 UNK         0.5000 
     36 O           2.2516  -18.6367  -39.9267 O.2       7 UNK        -0.5000 
     37 CA          0.8474  -16.8962  -40.7965 C.3       7 UNK         0.1400 
     38 CB          1.4377  -15.6318  -40.1550 C.3       7 UNK        -0.1800 
     39 N           0.2046  -16.5334  -42.0643 N.am      7 UNK        -0.5000 
     40 C          -0.5283  -17.3440  -42.8431 C.2       6 UNK         0.5000 
     41 O          -0.7478  -18.5278  -42.5843 O.2       6 UNK        -0.5000 
     42 CA         -1.0409  -16.7429  -44.1632 C.3       6 UNK         0.1400 
     43 CB         -2.3007  -15.8953  -43.9353 C.3       6 UNK        -0.1800 
     44 N          -0.0031  -15.9270  -44.7949 N.am      6 UNK        -0.5000 
     45 C           0.9721  -16.4278  -45.5658 C.2       5 UNK         0.5000 
     46 O           1.0154  -17.6037  -45.9246 O.2       5 UNK        -0.5000 
     47 CA          2.1074  -15.4753  -45.9847 C.3       5 UNK         0.1400 
     48 CB          1.9126  -14.9681  -47.4207 C.3       5 UNK        -0.1800 
     49 N           2.2611  -14.3402  -45.0701 N.am      5 UNK        -0.5000 
     50 C           2.8984  -14.4316  -43.8955 C.2       4 UNK         0.5000 
     51 O           3.3679  -15.4830  -43.4599 O.2       4 UNK        -0.5000 
     52 CA          3.0415  -13.1474  -43.0570 C.3       4 UNK         0.1400 
     53 CB          4.2450  -12.3293  -43.5496 C.3       4 UNK        -0.1800 
     54 N           1.8703  -12.2687  -42.9913 N.am      4 UNK        -0.5000 
     55 C           0.6046  -12.6143  -42.7203 C.2       3 UNK         0.5000 
     56 O           0.2014  -13.7759  -42.6729 O.2       3 UNK        -0.5000 
     57 CA         -0.3781  -11.4682  -42.4362 C.3       3 UNK         0.1400 
     58 CB          0.2958  -10.1853  -41.9019 C.3       3 UNK        -0.1800 
     59 N          -1.1440  -11.1645  -43.6390 N.am      3 UNK        -0.5000 
     60 C          -2.3763  -10.6351  -43.6400 C.2       2 UNK         0.5000 
     61 O          -3.0086  -10.3896  -42.6114 O.2       2 UNK        -0.5000 
     62 CA         -3.0177  -10.2946  -45.0022 C.3       2 UNK         0.1400 
     63 CB         -2.9985   -8.7759  -45.2380 C.3       2 UNK        -0.1800 
     64 N          -2.3593  -10.9489  -46.1309 N.am      2 UNK        -0.5000 
     65 C          -2.4784  -12.2469  -46.4371 C.2       1 UNK         0.5000 
     66 O          -3.2533  -13.0106  -45.8618 O.2       1 UNK        -0.5000 
     67 C          -1.8771  -21.8654  -47.1022 C.2       11 UNK         0.5000 
     68 O          -2.7667  -22.1112  -47.9135 O.2       11 UNK        -0.5000 
     69 N          -2.1181  -21.5975  -45.8102 N.am      12 UNK        -0.5000 
     70 CA         -3.4568  -21.6215  -45.2152 C.3       12 UNK         0.1400 
     71 CB         -3.4124  -21.0444  -43.7924 C.3       12 UNK        -0.1800 
     72 C          -4.0642  -23.0373  -45.2335 C.2       12 UNK         0.5000 
     73 O          -5.2233  -23.1995  -45.6194 O.2       12 UNK        -0.5000 
     74 N          -3.2402  -24.0368  -44.8858 N.am      13 UNK        -0.5000 
     75 CA         -3.5562  -25.4629  -44.9721 C.3       13 UNK         0.1400 
     76 CB         -2.4345  -26.2723  -44.3048 C.3       13 UNK        -0.1800 
     77 C          -3.7918  -25.9461  -46.4165 C.2       13 UNK         0.5000 
     78 O          -4.6185  -26.8344  -46.6277 O.2       13 UNK        -0.5000 
     79 N          -3.1145  -25.3244  -47.3926 N.am      14 UNK        -0.5000 
     80 CA         -3.2833  -25.5360  -48.8332 C.3       14 UNK         0.1400 
     81 CB         -2.0096  -25.0733  -49.5646 C.3       14 UNK        -0.1800 
     82 C          -4.5620  -24.8605  -49.3803 C.2       14 UNK         0.5000 
     83 O          -4.5024  -24.1175  -50.3640 O.2       14 UNK        -0.5000 
     84 N          -5.6989  -25.1505  -48.7323 N.am      15 UNK        -0.5000 
     85 CA         -7.0615  -24.7277  -49.0624 C.3       15 UNK         0.1400 
     86 CB         -7.5331  -25.4410  -50.3474 C.3       15 UNK        -0.1800 
     87 C          -7.2217  -23.1957  -49.1311 C.2       15 UNK         0.5000 
     88 O          -7.7900  -22.6834  -50.0953 O.2       15 UNK        -0.5000 
     89 N          -6.6864  -22.4846  -48.1255 N.am      16 UNK        -0.5000 
     90 CA         -6.6391  -21.0176  -48.0366 C.3       16 UNK         0.1400 
     91 CB         -8.0489  -20.4348  -47.8059 C.3       16 UNK        -0.1800 
     92 C          -5.9078  -20.3879  -49.2429 C.2       16 UNK         0.5000 
     93 O          -6.3918  -19.4287  -49.8454 O.2       16 UNK        -0.5000 
     94 N          -4.7632  -20.9929  -49.5812 N.am      17 UNK        -0.5000 
     95 CA         -3.8567  -20.7112  -50.6921 C.3       17 UNK         0.1400 
     96 CB         -3.3119  -19.2734  -50.6263 C.3       17 UNK        -0.1800 
     97 C          -4.3967  -21.0715  -52.0899 C.2       17 UNK         0.5000 
     98 O          -3.6907  -20.8350  -53.0714 O.2       17 UNK        -0.5000 
     99 N          -5.5867  -21.6827  -52.1876 N.am      18 UNK        -0.5000 
    100 CA        -6.1670  -22.1223  -53.4593 C.3       18 UNK         0.1400 
    101 CB        -7.6456  -22.4879  -53.2702 C.3       18 UNK        -0.1800 
    102 C         -5.3972  -23.2925  -54.0988 C.2       18 UNK         0.5000 
    103 O         -5.3196  -23.3557  -55.3261 O.2       18 UNK        -0.5000 
    104 N         -4.8230  -24.1774  -53.2697 N.am      19 UNK        -0.5000 
    105 CA        -3.9674  -25.2754  -53.7245 C.3       19 UNK         0.1400 
    106 CB        -4.1396  -26.4882  -52.7973 C.3       19 UNK        -0.1800 
    107 C         -2.4894  -24.8521  -53.8317 C.2       19 UNK         0.5000 
    108 O         -1.7334  -25.5103  -54.5470 O.2       19 UNK        -0.5000 
    109 N         -2.1009  -23.7604  -53.1511 N.am      20 UNK        -0.5000 
    110 CA        -0.7936  -23.1149  -53.3138 C.3       20 UNK         0.1400 
    111 CB        -0.5283  -22.1384  -52.1548 C.3       20 UNK        -0.1800 
    112 C         -0.7028  -22.4014  -54.6759 C.2       20 UNK         0.5000 
    113 O          0.2907  -22.5637  -55.3852 O.2       20 UNK        -0.5000 
    114 N         -1.7726  -21.6701  -55.0242 N.am      21 UNK        -0.5000 
    115 CA        -2.1160  -21.0567  -56.3125 C.3       21 UNK         0.1400 
    116 CB        -2.2733  -22.1326  -57.4032 C.3       21 UNK        -0.1800 
    117 C         -1.1975  -19.9167  -56.7948 C.2       21 UNK         0.5000 
    118 O         -1.7104  -18.9232  -57.3106 O.2       21 UNK        -0.5000 
    119 N          0.1228  -20.0715  -56.6352 N.am      22 UNK        -0.5000 
    120 CA         1.1789  -19.1472  -57.0927 C.3       22 UNK         0.1400 
    121 C          1.2987  -19.0236  -58.6460 C.2       22 UNK         0.5000 
    122 N          0.7682  -19.9570  -59.4274 N.am      22 UNK        -0.7600 
    123 O          1.9110  -18.0902  -59.1587 O.2       22 UNK        -0.5000 
    124 C124        1.1271  -17.7648  -56.3780 C.3       23 UNK        -0.0398 
    125 S125        1.5847  -17.8538  -54.6146 S.3       23 UNK        -0.2404 
    126 C126       -0.0208  -18.1600  -53.8112 C.3       23 UNK        -0.0205 
    127 H127        1.5393  -10.4539  -48.5934 H         1 UNK         0.0600 
    128 H128        1.8126   -9.8722  -46.9471 H         1 UNK         0.0600 
    129 H129        2.6666  -11.3043  -47.5317 H         1 UNK         0.0600 
    130 H130       -0.4059  -11.5443  -48.8003 H         1 UNK         0.3000 
    131 H131       -1.1565  -13.7282  -47.1528 H         1 UNK         0.0600 
    132 H132       -2.7797  -12.2408  -49.2751 H         1 UNK         0.0800 
    133 H133       -3.2387  -13.7692  -48.5704 H         1 UNK         0.0800 
    134 H134       -2.8427  -15.9021  -50.1854 H         1 UNK         0.0800 
    135 H135       -1.9342  -15.9149  -48.6908 H         1 UNK         0.0800 
    136 H136       -1.5979  -16.4538  -52.3772 H         1 UNK         0.1150 
    137 H137        1.6549  -19.2160  -51.9245 H         1 UNK         0.1150 
    138 H138        0.0979  -17.1545  -48.5076 H         1 UNK         0.1150 
    139 H139        3.0159  -18.8468  -49.7187 H         1 UNK         0.0800 
    140 H140        2.1266  -18.4082  -48.2834 H         1 UNK         0.0800 
    141 H141        0.1294  -19.8179  -47.2830 H         1 UNK         0.0800 
    142 H142       -0.6713  -20.1471  -48.8064 H         1 UNK         0.0800 
    143 H143       -0.3772  -22.6112  -48.4078 H         1 UNK         0.0600 
    144 H144        1.0741  -21.7977  -46.0490 H         1 UNK         0.3000 
    145 H145        1.1326  -25.0950  -44.6360 H         1 UNK         0.0600 
    146 H146        3.5500  -24.5607  -44.6759 H         1 UNK         0.0600 
    147 H147        2.9951  -24.9216  -46.3034 H         1 UNK         0.0600 
    148 H148        3.2776  -23.2515  -45.8247 H         1 UNK         0.0600 
    149 H149        2.2186  -22.7317  -43.5828 H         1 UNK         0.3000 
    150 H150       -0.6354  -21.4182  -41.9550 H         1 UNK         0.0600 
    151 H151       -0.0742  -23.3023  -40.4685 H         1 UNK         0.0600 
    152 H152        0.6866  -21.8261  -39.8941 H         1 UNK         0.0600 
    153 H153        1.6447  -23.0495  -40.7278 H         1 UNK         0.0600 
    154 H154        0.7791  -19.8468  -42.3898 H         1 UNK         0.3000 
    155 H155        4.1533  -19.3356  -41.8797 H         1 UNK         0.0600 
    156 H156        4.4444  -19.9070  -44.2889 H         1 UNK         0.0600 
    157 H157        4.2715  -18.1702  -44.0898 H         1 UNK         0.0600 
    158 H158        2.9161  -19.1303  -44.6818 H         1 UNK         0.0600 
    159 H159        2.1451  -17.5877  -42.8887 H         1 UNK         0.3000 
    160 H160        0.0700  -17.2842  -40.1354 H         1 UNK         0.0600 
    161 H161        2.2259  -15.2033  -40.7733 H         1 UNK         0.0600 
    162 H162        0.6734  -14.8687  -40.0068 H         1 UNK         0.0600 
    163 H163        1.8703  -15.8530  -39.1785 H         1 UNK         0.0600 
    164 H164        0.2989  -15.5594  -42.3453 H         1 UNK         0.3000 
    165 H165       -1.3107  -17.5684  -44.8259 H         1 UNK         0.0600 
    166 H166       -2.7017  -15.5313  -44.8811 H         1 UNK         0.0600 
    167 H167       -3.0844  -16.4827  -43.4554 H         1 UNK         0.0600 
    168 H168       -2.1035  -15.0300  -43.3017 H         1 UNK         0.0600 
    169 H169        0.0670  -14.9648  -44.4869 H         1 UNK         0.3000 
    170 H170        3.0349  -16.0524  -45.9716 H         1 UNK         0.0600 
    171 H171        2.0455  -15.7794  -48.1359 H         1 UNK         0.0600 
    172 H172        0.9174  -14.5579  -47.5780 H         1 UNK         0.0600 
    173 H173        2.6404  -14.1973  -47.6742 H         1 UNK         0.0600 
    174 H174        1.8323  -13.4575  -45.3380 H         1 UNK         0.3000 
    175 H175        3.2520  -13.4594  -42.0329 H         1 UNK         0.0600 
    176 H176        4.0722  -11.9254  -44.5482 H         1 UNK         0.0600 
    177 H177        4.4567  -11.4945  -42.8813 H         1 UNK         0.0600 
    178 H178        5.1459  -12.9430  -43.5943 H         1 UNK         0.0600 
    179 H179        2.0706  -11.2816  -43.0516 H         1 UNK         0.3000 
    180 H180       -1.0551  -11.8409  -41.6645 H         1 UNK         0.0600 
    181 H181        0.9420  -10.4035  -41.0505 H         1 UNK         0.0600 
    182 H182        0.8983   -9.6909  -42.6648 H         1 UNK         0.0600 
    183 H183       -0.4495   -9.4675  -41.5591 H         1 UNK         0.0600 
    184 H184       -0.6891  -11.3922  -44.5177 H         1 UNK         0.3000 
    185 H185       -4.0590  -10.6219  -44.9668 H         1 UNK         0.0600 
    186 H186       -3.5133   -8.2483  -44.4340 H         1 UNK         0.0600 
    187 H187       -1.9798   -8.3889  -45.2847 H         1 UNK         0.0600 
    188 H188       -3.5012   -8.5145  -46.1694 H         1 UNK         0.0600 
    189 H189       -1.6989  -10.3945  -46.6559 H         1 UNK         0.3000 
    190 H190       -1.3405  -21.4516  -45.1848 H         1 UNK         0.3000 
    191 H191       -4.0975  -20.9741  -45.8162 H         1 UNK         0.0600 
    192 H192       -4.4162  -20.9781  -43.3713 H         1 UNK         0.0600 
    193 H193       -2.9902  -20.0391  -43.7852 H         1 UNK         0.0600 
    194 H194       -2.8192  -21.6620  -43.1192 H         1 UNK         0.0600 
    195 H195       -2.3152  -23.8023  -44.5331 H         1 UNK         0.3000 
    196 H196       -4.4788  -25.6328  -44.4136 H         1 UNK         0.0600 
    197 H197       -2.6555  -27.3401  -44.3269 H         1 UNK         0.0600 
    198 H198       -2.3106  -25.9866  -43.2600 H         1 UNK         0.0600 
    199 H199       -1.4778  -26.1235  -44.8064 H         1 UNK         0.0600 
    200 H200       -2.4411  -24.6184  -47.1258 H         1 UNK         0.3000 
    201 H201       -3.3896  -26.6080  -49.0103 H         1 UNK         0.0600 
    202 H202       -1.1175  -25.5314  -49.1379 H         1 UNK         0.0600 
    203 H203       -1.8891  -23.9928  -49.5172 H         1 UNK         0.0600 
    204 H204       -2.0353  -25.3465  -50.6186 H         1 UNK         0.0600 
    205 H205       -5.6131  -25.7672  -47.9300 H         1 UNK         0.3000 
    206 H206       -7.6989  -25.0636  -48.2435 H         1 UNK         0.0600 
    207 H207       -7.4674  -26.5238  -50.2420 H         1 UNK         0.0600 
    208 H208       -8.5728  -25.2009  -50.5726 H         1 UNK         0.0600 
    209 H209       -6.9346  -25.1550  -51.2125 H         1 UNK         0.0600 
    210 H210       -6.2184  -22.9796  -47.3719 H         1 UNK         0.3000 
    211 H211       -6.0408  -20.7801  -47.1571 H         1 UNK         0.0600 
    212 H212       -8.7006  -20.5909  -48.6661 H         1 UNK         0.0600 
    213 H213       -8.0010  -19.3606  -47.6242 H         1 UNK         0.0600 
    214 H214       -8.5251  -20.8895  -46.9374 H         1 UNK         0.0600 
    215 H215       -4.4453  -21.7576  -48.9940 H         1 UNK         0.3000 
    216 H216       -3.0107  -21.3805  -50.5338 H         1 UNK         0.0600 
    217 H217       -4.0824  -18.5324  -50.8386 H         1 UNK         0.0600 
    218 H218       -2.5176  -19.1352  -51.3587 H         1 UNK         0.0600 
    219 H219       -2.8895  -19.0531  -49.6459 H         1 UNK         0.0600 
    220 H220       -6.1153  -21.8812  -51.3465 H         1 UNK         0.3000 
    221 H221       -6.1202  -21.2797  -54.1527 H         1 UNK         0.0600 
    222 H222       -7.7656  -23.3744  -52.6480 H         1 UNK         0.0600 
    223 H223       -8.2000  -21.6722  -52.8057 H         1 UNK         0.0600 
    224 H224       -8.1185  -22.6991  -54.2299 H         1 UNK         0.0600 
    225 H225       -4.9087  -24.0529  -52.2639 H         1 UNK         0.3000 
    226 H226       -4.2839  -25.5888  -54.7217 H         1 UNK         0.0600 
    227 H227       -5.1863  -26.7843  -52.7253 H         1 UNK         0.0600 
    228 H228       -3.5840  -27.3468  -53.1763 H         1 UNK         0.0600 
    229 H229       -3.7789  -26.2894  -51.7914 H         1 UNK         0.0600 
    230 H230       -2.7890  -23.2771  -52.5946 H         1 UNK         0.3000 
    231 H231       -0.0233  -23.8885  -53.2832 H         1 UNK         0.0600 
    232 H232       -1.2054  -21.2854  -52.1715 H         1 UNK         0.0600 
    233 H233       -0.6276  -22.6305  -51.1876 H         1 UNK         0.0600 
    234 H234        0.4857  -21.7406  -52.2111 H         1 UNK         0.0600 
    235 H235       -2.4864  -21.5340  -54.3116 H         1 UNK         0.3000 
    236 H236       -3.0998  -20.6105  -56.1568 H         1 UNK         0.0600 
    237 H237       -3.0047  -22.8854  -57.1080 H         1 UNK         0.0600 
    238 H238       -2.6202  -21.6924  -58.3388 H         1 UNK         0.0600 
    239 H239       -1.3327  -22.6436  -57.6109 H         1 UNK         0.0600 
    240 H240        0.4374  -20.9419  -56.2123 H         1 UNK         0.3000 
    241 H241        2.1169  -19.6213  -56.8021 H         1 UNK         0.0600 
    242 H242        0.8600  -19.8773  -60.4281 H         1 UNK         0.3800 
    243 H243        0.2809  -20.7431  -59.0288 H         1 UNK         0.3800 
    244 H244        0.1533  -17.2886  -56.4927 H         1 UNK         0.0800 
    245 H245        1.8414  -17.0736  -56.8275 H         1 UNK         0.0800 
    246 H246       -0.7897  -17.5562  -54.2953 H         1 UNK         0.0800 
    247 H247       -0.3050  -19.2027  -53.9538 H         1 UNK         0.0800 
@<TRIPOS>BOND
     1    1    2 1    
     2    1  127 1    
     3    1  128 1    
     4    1  129 1    
     5    2    3 2    
     6    2    4 am   BACKBONE|DICT|INTERRES
     7    4    5 1    
     8    4  130 1    
     9    5    6 1    
    10    5   65 1    
    11    5  131 1    
    12    6    7 1    
    13    6  132 1    
    14    6  133 1    
    15    7    8 1    
    16    8    9 1    
    17    8  134 1    
    18    8  135 1    
    19    9   10 ar   
    20    9   14 ar   
    21   10   11 ar   
    22   10  136 1    
    23   11   12 ar   
    24   11  126 1    
    25   12   13 ar   
    26   12  137 1    
    27   13   14 ar   
    28   13   15 1    
    29   14  138 1    
    30   15   16 1    
    31   15  139 1    
    32   15  140 1    
    33   16   17 1    
    34   17   18 1    
    35   17  141 1    
    36   17  142 1    
    37   18   19 1    
    38   18   67 1    
    39   18  143 1    
    40   19   20 am   BACKBONE|DICT|INTERRES
    41   19  144 1    
    42   20   21 2    
    43   20   22 1    
    44   22   23 1    
    45   22   24 1    
    46   22  145 1    
    47   23  146 1    
    48   23  147 1    
    49   23  148 1    
    50   24   25 am   BACKBONE|DICT|INTERRES
    51   24  149 1    
    52   25   26 2    
    53   25   27 1    
    54   27   28 1    
    55   27   29 1    
    56   27  150 1    
    57   28  151 1    
    58   28  152 1    
    59   28  153 1    
    60   29   30 am   BACKBONE|DICT|INTERRES
    61   29  154 1    
    62   30   31 2    
    63   30   32 1    
    64   32   33 1    
    65   32   34 1    
    66   32  155 1    
    67   33  156 1    
    68   33  157 1    
    69   33  158 1    
    70   34   35 am   BACKBONE|DICT|INTERRES
    71   34  159 1    
    72   35   36 2    
    73   35   37 1    
    74   37   38 1    
    75   37   39 1    
    76   37  160 1    
    77   38  161 1    
    78   38  162 1    
    79   38  163 1    
    80   39   40 am   BACKBONE|DICT|INTERRES
    81   39  164 1    
    82   40   41 2    
    83   40   42 1    
    84   42   43 1    
    85   42   44 1    
    86   42  165 1    
    87   43  166 1    
    88   43  167 1    
    89   43  168 1    
    90   44   45 am   BACKBONE|DICT|INTERRES
    91   44  169 1    
    92   45   46 2    
    93   45   47 1    
    94   47   48 1    
    95   47   49 1    
    96   47  170 1    
    97   48  171 1    
    98   48  172 1    
    99   48  173 1    
   100   49   50 am   BACKBONE|DICT|INTERRES
   101   49  174 1    
   102   50   51 2    
   103   50   52 1    
   104   52   53 1    
   105   52   54 1    
   106   52  175 1    
   107   53  176 1    
   108   53  177 1    
   109   53  178 1    
   110   54   55 am   BACKBONE|DICT|INTERRES
   111   54  179 1    
   112   55   56 2    
   113   55   57 1    
   114   57   58 1    
   115   57   59 1    
   116   57  180 1    
   117   58  181 1    
   118   58  182 1    
   119   58  183 1    
   120   59   60 am   BACKBONE|DICT|INTERRES
   121   59  184 1    
   122   60   61 2    
   123   60   62 1    
   124   62   63 1    
   125   62   64 1    
   126   62  185 1    
   127   63  186 1    
   128   63  187 1    
   129   63  188 1    
   130   64   65 am   BACKBONE|DICT|INTERRES
   131   64  189 1    
   132   65   66 2    
   133   67   68 2    
   134   67   69 am   BACKBONE|DICT|INTERRES
   135   69   70 1    
   136   69  190 1    
   137   70   71 1    
   138   70   72 1    
   139   70  191 1    
   140   71  192 1    
   141   71  193 1    
   142   71  194 1    
   143   72   73 2    
   144   72   74 am   BACKBONE|DICT|INTERRES
   145   74   75 1    
   146   74  195 1    
   147   75   76 1    
   148   75   77 1    
   149   75  196 1    
   150   76  197 1    
   151   76  198 1    
   152   76  199 1    
   153   77   78 2    
   154   77   79 am   BACKBONE|DICT|INTERRES
   155   79   80 1    
   156   79  200 1    
   157   80   81 1    
   158   80   82 1    
   159   80  201 1    
   160   81  202 1    
   161   81  203 1    
   162   81  204 1    
   163   82   83 2    
   164   82   84 am   BACKBONE|DICT|INTERRES
   165   84   85 1    
   166   84  205 1    
   167   85   86 1    
   168   85   87 1    
   169   85  206 1    
   170   86  207 1    
   171   86  208 1    
   172   86  209 1    
   173   87   88 2    
   174   87   89 am   BACKBONE|DICT|INTERRES
   175   89   90 1    
   176   89  210 1    
   177   90   91 1    
   178   90   92 1    
   179   90  211 1    
   180   91  212 1    
   181   91  213 1    
   182   91  214 1    
   183   92   93 2    
   184   92   94 am   BACKBONE|DICT|INTERRES
   185   94   95 1    
   186   94  215 1    
   187   95   96 1    
   188   95   97 1    
   189   95  216 1    
   190   96  217 1    
   191   96  218 1    
   192   96  219 1    
   193   97   98 2    
   194   97   99 am   BACKBONE|DICT|INTERRES
   195   99  100 1    
   196   99  220 1    
   197  100  101 1    
   198  100  102 1    
   199  100  221 1    
   200  101  222 1    
   201  101  223 1    
   202  101  224 1    
   203  102  103 2    
   204  102  104 am   BACKBONE|DICT|INTERRES
   205  104  105 1    
   206  104  225 1    
   207  105  106 1    
   208  105  107 1    
   209  105  226 1    
   210  106  227 1    
   211  106  228 1    
   212  106  229 1    
   213  107  108 2    
   214  107  109 am   BACKBONE|DICT|INTERRES
   215  109  110 1    
   216  109  230 1    
   217  110  111 1    
   218  110  112 1    
   219  110  231 1    
   220  111  232 1    
   221  111  233 1    
   222  111  234 1    
   223  112  113 2    
   224  112  114 am   BACKBONE|DICT|INTERRES
   225  114  115 1    
   226  114  235 1    
   227  115  116 1    
   228  115  117 1    
   229  115  236 1    
   230  116  237 1    
   231  116  238 1    
   232  116  239 1    
   233  117  118 2    
   234  117  119 am   BACKBONE|DICT|INTERRES
   235  119  120 1    
   236  119  240 1    
   237  120  121 1    
   238  120  124 1    
   239  120  241 1    
   240  121  122 am   BACKBONE|DICT|INTERRES
   241  121  123 2    
   242  122  242 1    
   243  122  243 1    
   244  124  125 1    
   245  124  244 1    
   246  124  245 1    
   247  125  126 1    
   248  126  246 1    
   249  126  247 1    
@<TRIPOS>SUBSTRUCTURE
     1 UNK         1 GROUP             0       ****    0 ROOT    
