@<TRIPOS>MOLECULE
3R540
247   249    1
SMALL
USER_CHARGES


@<TRIPOS>ATOM
      1 CA          5.2980  -19.3556  -45.0188 C.3       0 UNK        -0.1800 
      2 C           4.6592  -18.1089  -45.6125 C.2       0 UNK         0.5000 
      3 O           4.2368  -17.2247  -44.8686 O.2       0 UNK        -0.5000 
      4 N           4.5771  -18.0353  -46.9481 N.am      1 UNK        -0.5000 
      5 CA          3.9827  -16.9217  -47.6940 C.3       1 UNK         0.1400 
      6 C6          3.9025  -17.2230  -49.2119 C.3       23 UNK        -0.0398 
      7 S7          2.5638  -16.2887  -50.0271 S.3       23 UNK        -0.2404 
      8 C8          1.2402  -17.5374  -50.0349 C.3       23 UNK        -0.0205 
      9 C9         -0.0940  -16.9426  -50.4503 C.ar      23 UNK        -0.0193 
     10 C10        -0.6397  -17.2169  -51.7061 C.ar      23 UNK        -0.1150 
     11 C11        -1.8748  -16.6761  -52.0753 C.ar      23 UNK        -0.0193 
     12 C12        -2.5692  -15.8639  -51.1729 C.ar      23 UNK        -0.1150 
     13 C13        -2.0357  -15.5815  -49.9112 C.ar      23 UNK        -0.0193 
     14 C14        -0.7917  -16.1211  -49.5630 C.ar      23 UNK        -0.1150 
     15 C15        -2.7949  -14.6599  -48.9591 C.3       23 UNK        -0.0205 
     16 S16        -2.6179  -15.0973  -47.1955 S.3       23 UNK        -0.2404 
     17 C17        -3.7599  -16.5060  -47.0217 C.3       23 UNK        -0.0398 
     18 CA         -3.1904  -17.8742  -47.4774 C.3       11 UNK         0.1400 
     19 N          -1.9836  -18.3016  -46.7571 N.am      11 UNK        -0.5000 
     20 C          -1.2266  -19.3525  -47.1113 C.2       10 UNK         0.5000 
     21 O          -1.4074  -20.0001  -48.1416 O.2       10 UNK        -0.5000 
     22 CA         -0.1191  -19.8053  -46.1388 C.3       10 UNK         0.1400 
     23 CB          1.1937  -19.0523  -46.3804 C.3       10 UNK        -0.1800 
     24 N          -0.5066  -19.6742  -44.7360 N.am      10 UNK        -0.5000 
     25 C          -1.4690  -20.3980  -44.1496 C.2       9 UNK         0.5000 
     26 O          -2.1067  -21.2766  -44.7272 O.2       9 UNK        -0.5000 
     27 CA         -1.8099  -20.0507  -42.6903 C.3       9 UNK         0.1400 
     28 CB         -0.8622  -20.7663  -41.7162 C.3       9 UNK        -0.1800 
     29 N          -1.7707  -18.6093  -42.4487 N.am      9 UNK        -0.5000 
     30 C          -2.6419  -17.7337  -42.9695 C.2       8 UNK         0.5000 
     31 O          -3.6059  -18.0564  -43.6657 O.2       8 UNK        -0.5000 
     32 CA         -2.3470  -16.2440  -42.7132 C.3       8 UNK         0.1400 
     33 CB         -2.8443  -15.8201  -41.3234 C.3       8 UNK        -0.1800 
     34 N          -0.9239  -15.9200  -42.8389 N.am      8 UNK        -0.5000 
     35 C          -0.2194  -16.0462  -43.9727 C.2       7 UNK         0.5000 
     36 O          -0.6952  -16.4515  -45.0284 O.2       7 UNK        -0.5000 
     37 CA          1.2815  -15.7284  -43.9080 C.3       7 UNK         0.1400 
     38 CB          1.5226  -14.2251  -44.0959 C.3       7 UNK        -0.1800 
     39 N           1.9060  -16.1839  -42.6668 N.am      7 UNK        -0.5000 
     40 C           1.9762  -17.4696  -42.2852 C.2       6 UNK         0.5000 
     41 O           1.4790  -18.3956  -42.9274 O.2       6 UNK        -0.5000 
     42 CA          2.6922  -17.7862  -40.9589 C.3       6 UNK         0.1400 
     43 CB          4.0634  -18.4220  -41.2275 C.3       6 UNK        -0.1800 
     44 N           2.8558  -16.6139  -40.0966 N.am      6 UNK        -0.5000 
     45 C           1.8531  -16.0424  -39.4128 C.2       5 UNK         0.5000 
     46 O           0.6974  -16.4688  -39.4224 O.2       5 UNK        -0.5000 
     47 CA          2.1774  -14.7699  -38.6041 C.3       5 UNK         0.1400 
     48 CB          2.4294  -15.1219  -37.1303 C.3       5 UNK        -0.1800 
     49 N           3.3190  -14.0040  -39.1118 N.am      5 UNK        -0.5000 
     50 C           3.3887  -13.4263  -40.3187 C.2       4 UNK         0.5000 
     51 O           2.4912  -13.5050  -41.1574 O.2       4 UNK        -0.5000 
     52 CA          4.6753  -12.6487  -40.6698 C.3       4 UNK         0.1400 
     53 CB          5.6722  -12.5093  -39.4969 C.3       4 UNK        -0.1800 
     54 N           5.3505  -13.2119  -41.8428 N.am      4 UNK        -0.5000 
     55 C           5.7758  -14.4727  -42.0044 C.2       3 UNK         0.5000 
     56 O           5.6187  -15.3613  -41.1640 O.2       3 UNK        -0.5000 
     57 CA          6.4879  -14.7734  -43.3378 C.3       3 UNK         0.1400 
     58 CB          7.0748  -16.1942  -43.3974 C.3       3 UNK        -0.1800 
     59 N           5.5897  -14.5694  -44.4771 N.am      3 UNK        -0.5000 
     60 C           5.3979  -13.3940  -45.0950 C.2       2 UNK         0.5000 
     61 O           5.9343  -12.3518  -44.7140 O.2       2 UNK        -0.5000 
     62 CA          4.4301  -13.3385  -46.3008 C.3       2 UNK         0.1400 
     63 CB          4.9818  -12.4708  -47.4515 C.3       2 UNK        -0.1800 
     64 N           3.9818  -14.6470  -46.7933 N.am      2 UNK        -0.5000 
     65 C           4.7158  -15.5962  -47.3923 C.2       1 UNK         0.5000 
     66 O           5.9139  -15.4890  -47.6612 O.2       1 UNK        -0.5000 
     67 C          -4.2979  -18.9416  -47.3941 C.2       11 UNK         0.5000 
     68 O          -4.9052  -19.2572  -48.4166 O.2       11 UNK        -0.5000 
     69 N          -4.5221  -19.4997  -46.1941 N.am      12 UNK        -0.5000 
     70 CA         -5.5047  -20.5593  -45.9434 C.3       12 UNK         0.1400 
     71 CB         -5.6289  -20.7991  -44.4313 C.3       12 UNK        -0.1800 
     72 C          -5.1842  -21.8720  -46.6858 C.2       12 UNK         0.5000 
     73 O          -6.1013  -22.5434  -47.1571 O.2       12 UNK        -0.5000 
     74 N          -3.8896  -22.1914  -46.8067 N.am      13 UNK        -0.5000 
     75 CA         -3.3657  -23.3069  -47.5957 C.3       13 UNK         0.1400 
     76 CB         -1.9589  -23.6520  -47.0817 C.3       13 UNK        -0.1800 
     77 C          -3.3147  -23.0191  -49.1097 C.2       13 UNK         0.5000 
     78 O          -3.0437  -23.9440  -49.8770 O.2       13 UNK        -0.5000 
     79 N          -3.5354  -21.7562  -49.5105 N.am      14 UNK        -0.5000 
     80 CA         -3.4094  -21.2117  -50.8664 C.3       14 UNK         0.1400 
     81 CB         -4.5561  -21.7256  -51.7561 C.3       14 UNK        -0.1800 
     82 C          -2.0129  -21.4883  -51.4569 C.2       14 UNK         0.5000 
     83 O          -1.8948  -22.0792  -52.5333 O.2       14 UNK        -0.5000 
     84 N          -0.9805  -21.1523  -50.6699 N.am      15 UNK        -0.5000 
     85 CA          0.4182  -21.5755  -50.7789 C.3       15 UNK         0.1400 
     86 CB          1.0653  -21.1252  -52.1053 C.3       15 UNK        -0.1800 
     87 C           0.5560  -23.0910  -50.5343 C.2       15 UNK         0.5000 
     88 O           1.0859  -23.4959  -49.4993 O.2       15 UNK        -0.5000 
     89 N           0.0339  -23.8887  -51.4708 N.am      16 UNK        -0.5000 
     90 CA         -0.1113  -25.3399  -51.3841 C.3       16 UNK         0.1400 
     91 CB          1.2192  -26.0164  -51.7676 C.3       16 UNK        -0.1800 
     92 C          -1.2862  -25.8605  -52.2409 C.2       16 UNK         0.5000 
     93 O          -1.4345  -27.0765  -52.3718 O.2       16 UNK        -0.5000 
     94 N          -2.0925  -24.9632  -52.8315 N.am      17 UNK        -0.5000 
     95 CA         -3.1824  -25.3063  -53.7493 C.3       17 UNK         0.1400 
     96 CB         -3.4326  -24.1100  -54.6804 C.3       17 UNK        -0.1800 
     97 C          -4.4888  -25.7198  -53.0433 C.2       17 UNK         0.5000 
     98 O          -5.4078  -26.1835  -53.7223 O.2       17 UNK        -0.5000 
     99 N          -4.5701  -25.5212  -51.7191 N.am      18 UNK        -0.5000 
    100 CA        -5.6974  -25.7680  -50.8125 C.3       18 UNK         0.1400 
    101 CB        -6.0701  -27.2631  -50.7635 C.3       18 UNK        -0.1800 
    102 C         -6.9202  -24.8761  -51.0986 C.2       18 UNK         0.5000 
    103 O         -7.2843  -24.0531  -50.2595 O.2       18 UNK        -0.5000 
    104 N         -7.5223  -25.0537  -52.2771 N.am      19 UNK        -0.5000 
    105 CA        -8.6732  -24.3015  -52.7721 C.3       19 UNK         0.1400 
    106 CB        -9.9694  -24.9890  -52.3055 C.3       19 UNK        -0.1800 
    107 C         -8.6473  -24.1266  -54.3032 C.2       19 UNK         0.5000 
    108 O         -9.5499  -23.4854  -54.8428 O.2       19 UNK        -0.5000 
    109 N         -7.6380  -24.6848  -54.9917 N.am      20 UNK        -0.5000 
    110 CA        -7.4996  -24.6192  -56.4507 C.3       20 UNK         0.1400 
    111 CB        -6.6423  -25.8051  -56.9232 C.3       20 UNK        -0.1800 
    112 C         -6.9273  -23.2793  -56.9616 C.2       20 UNK         0.5000 
    113 O         -6.9005  -23.0606  -58.1737 O.2       20 UNK        -0.5000 
    114 N         -6.4849  -22.4088  -56.0479 N.am      21 UNK        -0.5000 
    115 CA        -5.9726  -21.0697  -56.3141 C.3       21 UNK         0.1400 
    116 CB        -4.4679  -21.1442  -56.6377 C.3       21 UNK        -0.1800 
    117 C         -6.2402  -20.1819  -55.0884 C.2       21 UNK         0.5000 
    118 O         -6.7113  -20.6774  -54.0611 O.2       21 UNK        -0.5000 
    119 N         -5.9150  -18.8903  -55.2219 N.am      22 UNK        -0.5000 
    120 CA        -5.9281  -17.8666  -54.1571 C.3       22 UNK         0.1400 
    121 C         -7.3425  -17.4559  -53.6429 C.2       22 UNK         0.5000 
    122 N         -8.4248  -17.8125  -54.3231 N.am      22 UNK        -0.7600 
    123 O         -7.4638  -16.7697  -52.6317 O.2       22 UNK        -0.5000 
    124 C124       -4.9414  -18.1734  -52.9913 C.3       23 UNK        -0.0398 
    125 S125       -3.2515  -18.5647  -53.5690 S.3       23 UNK        -0.2404 
    126 C126       -2.4327  -16.9449  -53.4643 C.3       23 UNK        -0.0205 
    127 H127        4.6166  -19.8176  -44.3045 H         1 UNK         0.0600 
    128 H128        6.2177  -19.0954  -44.4956 H         1 UNK         0.0600 
    129 H129        5.5376  -20.0926  -45.7855 H         1 UNK         0.0600 
    130 H130        4.9781  -18.7754  -47.5055 H         1 UNK         0.3000 
    131 H131        2.9607  -16.8355  -47.3200 H         1 UNK         0.0600 
    132 H132        3.7220  -18.2859  -49.3788 H         1 UNK         0.0800 
    133 H133        4.8478  -17.0065  -49.7131 H         1 UNK         0.0800 
    134 H134        1.1325  -17.9608  -49.0384 H         1 UNK         0.0800 
    135 H135        1.5220  -18.3586  -50.6940 H         1 UNK         0.0800 
    136 H136       -0.1033  -17.8465  -52.4017 H         1 UNK         0.1150 
    137 H137       -3.5197  -15.4369  -51.4603 H         1 UNK         0.1150 
    138 H138       -0.3573  -15.9047  -48.5973 H         1 UNK         0.1150 
    139 H139       -2.4158  -13.6470  -49.0993 H         1 UNK         0.0800 
    140 H140       -3.8551  -14.6288  -49.2146 H         1 UNK         0.0800 
    141 H141       -4.6706  -16.2676  -47.5745 H         1 UNK         0.0800 
    142 H142       -4.0527  -16.5543  -45.9715 H         1 UNK         0.0800 
    143 H143       -2.9215  -17.7911  -48.5314 H         1 UNK         0.0600 
    144 H144       -1.7053  -17.7432  -45.9538 H         1 UNK         0.3000 
    145 H145        0.0702  -20.8646  -46.3239 H         1 UNK         0.0600 
    146 H146        1.9254  -19.2812  -45.6058 H         1 UNK         0.0600 
    147 H147        1.0455  -17.9730  -46.3929 H         1 UNK         0.0600 
    148 H148        1.6363  -19.3449  -47.3319 H         1 UNK         0.0600 
    149 H149        0.0074  -19.0000  -44.1781 H         1 UNK         0.3000 
    150 H150       -2.8252  -20.4001  -42.4922 H         1 UNK         0.0600 
    151 H151       -0.9083  -21.8473  -41.8544 H         1 UNK         0.0600 
    152 H152       -1.1317  -20.5596  -40.6803 H         1 UNK         0.0600 
    153 H153        0.1749  -20.4630  -41.8599 H         1 UNK         0.0600 
    154 H154       -0.9807  -18.2553  -41.9293 H         1 UNK         0.3000 
    155 H155       -2.8901  -15.6657  -43.4639 H         1 UNK         0.0600 
    156 H156       -3.9047  -16.0456  -41.2025 H         1 UNK         0.0600 
    157 H157       -2.7213  -14.7477  -41.1715 H         1 UNK         0.0600 
    158 H158       -2.3048  -16.3352  -40.5273 H         1 UNK         0.0600 
    159 H159       -0.4466  -15.6101  -42.0045 H         1 UNK         0.3000 
    160 H160        1.7675  -16.2553  -44.7306 H         1 UNK         0.0600 
    161 H161        2.5790  -13.9803  -43.9943 H         1 UNK         0.0600 
    162 H162        1.1971  -13.8986  -45.0842 H         1 UNK         0.0600 
    163 H163        0.9740  -13.6348  -43.3611 H         1 UNK         0.0600 
    164 H164        2.3059  -15.4694  -42.0708 H         1 UNK         0.3000 
    165 H165        2.0821  -18.5199  -40.4277 H         1 UNK         0.0600 
    166 H166        4.5827  -18.6578  -40.2987 H         1 UNK         0.0600 
    167 H167        3.9576  -19.3516  -41.7881 H         1 UNK         0.0600 
    168 H168        4.7008  -17.7620  -41.8136 H         1 UNK         0.0600 
    169 H169        3.7729  -16.1833  -40.0836 H         1 UNK         0.3000 
    170 H170        1.2987  -14.1235  -38.6547 H         1 UNK         0.0600 
    171 H171        3.3168  -15.7451  -37.0122 H         1 UNK         0.0600 
    172 H172        2.5655  -14.2241  -36.5270 H         1 UNK         0.0600 
    173 H173        1.5852  -15.6694  -36.7087 H         1 UNK         0.0600 
    174 H174        4.1122  -13.9155  -38.4935 H         1 UNK         0.3000 
    175 H175        4.3536  -11.6449  -40.9504 H         1 UNK         0.0600 
    176 H176        6.0577  -13.4739  -39.1644 H         1 UNK         0.0600 
    177 H177        6.5274  -11.8989  -39.7872 H         1 UNK         0.0600 
    178 H178        5.2092  -12.0184  -38.6400 H         1 UNK         0.0600 
    179 H179        5.4904  -12.5767  -42.6203 H         1 UNK         0.3000 
    180 H180        7.3294  -14.0817  -43.4146 H         1 UNK         0.0600 
    181 H181        7.5671  -16.3792  -44.3523 H         1 UNK         0.0600 
    182 H182        6.3084  -16.9548  -43.2631 H         1 UNK         0.0600 
    183 H183        7.8181  -16.3405  -42.6130 H         1 UNK         0.0600 
    184 H184        5.0720  -15.3865  -44.7863 H         1 UNK         0.3000 
    185 H185        3.5329  -12.8399  -45.9327 H         1 UNK         0.0600 
    186 H186        4.2857  -12.4369  -48.2895 H         1 UNK         0.0600 
    187 H187        5.1421  -11.4429  -47.1242 H         1 UNK         0.0600 
    188 H188        5.9366  -12.8442  -47.8220 H         1 UNK         0.0600 
    189 H189        3.0119  -14.8563  -46.6077 H         1 UNK         0.3000 
    190 H190       -4.0022  -19.1634  -45.3902 H         1 UNK         0.3000 
    191 H191       -6.4708  -20.2042  -46.3081 H         1 UNK         0.0600 
    192 H192       -5.9065  -19.8841  -43.9076 H         1 UNK         0.0600 
    193 H193       -4.6951  -21.1604  -44.0013 H         1 UNK         0.0600 
    194 H194       -6.3970  -21.5431  -44.2170 H         1 UNK         0.0600 
    195 H195       -3.2062  -21.6354  -46.3006 H         1 UNK         0.3000 
    196 H196       -4.0088  -24.1767  -47.4479 H         1 UNK         0.0600 
    197 H197       -1.9752  -23.9016  -46.0207 H         1 UNK         0.0600 
    198 H198       -1.2678  -22.8197  -47.2203 H         1 UNK         0.0600 
    199 H199       -1.5453  -24.5109  -47.6122 H         1 UNK         0.0600 
    200 H200       -3.7527  -21.0712  -48.7979 H         1 UNK         0.3000 
    201 H201       -3.5041  -20.1280  -50.7847 H         1 UNK         0.0600 
    202 H202       -5.5271  -21.4269  -51.3613 H         1 UNK         0.0600 
    203 H203       -4.5515  -22.8096  -51.8410 H         1 UNK         0.0600 
    204 H204       -4.4738  -21.3211  -52.7642 H         1 UNK         0.0600 
    205 H205       -1.2095  -20.7105  -49.7794 H         1 UNK         0.3000 
    206 H206        0.9450  -21.0690  -49.9686 H         1 UNK         0.0600 
    207 H207        0.6373  -21.6252  -52.9739 H         1 UNK         0.0600 
    208 H208        0.9491  -20.0533  -52.2567 H         1 UNK         0.0600 
    209 H209        2.1342  -21.3404  -52.1036 H         1 UNK         0.0600 
    210 H210       -0.4136  -23.4352  -52.2585 H         1 UNK         0.3000 
    211 H211       -0.3521  -25.6019  -50.3517 H         1 UNK         0.0600 
    212 H212        1.5021  -25.7836  -52.7946 H         1 UNK         0.0600 
    213 H213        1.1511  -27.1014  -51.6815 H         1 UNK         0.0600 
    214 H214        2.0312  -25.6947  -51.1154 H         1 UNK         0.0600 
    215 H215       -1.9826  -23.9721  -52.6403 H         1 UNK         0.3000 
    216 H216       -2.8693  -26.1500  -54.3677 H         1 UNK         0.0600 
    217 H217       -4.1690  -24.3491  -55.4461 H         1 UNK         0.0600 
    218 H218       -2.5195  -23.8106  -55.1949 H         1 UNK         0.0600 
    219 H219       -3.8048  -23.2456  -54.1324 H         1 UNK         0.0600 
    220 H220       -3.7788  -25.0689  -51.2677 H         1 UNK         0.3000 
    221 H221       -5.3410  -25.4956  -49.8180 H         1 UNK         0.0600 
    222 H222       -6.4222  -27.6363  -51.7252 H         1 UNK         0.0600 
    223 H223       -5.2145  -27.8689  -50.4651 H         1 UNK         0.0600 
    224 H224       -6.8632  -27.4407  -50.0363 H         1 UNK         0.0600 
    225 H225       -7.1122  -25.7388  -52.9025 H         1 UNK         0.3000 
    226 H226       -8.6446  -23.2925  -52.3550 H         1 UNK         0.0600 
    227 H227      -10.0189  -25.0421  -51.2178 H         1 UNK         0.0600 
    228 H228      -10.8505  -24.4410  -52.6415 H         1 UNK         0.0600 
    229 H229      -10.0442  -26.0051  -52.6945 H         1 UNK         0.0600 
    230 H230       -6.9005  -25.1825  -54.5054 H         1 UNK         0.3000 
    231 H231       -8.4892  -24.7310  -56.8989 H         1 UNK         0.0600 
    232 H232       -6.5543  -25.8178  -58.0102 H         1 UNK         0.0600 
    233 H233       -7.0871  -26.7545  -56.6244 H         1 UNK         0.0600 
    234 H234       -5.6336  -25.7679  -56.5139 H         1 UNK         0.0600 
    235 H235       -6.6105  -22.6160  -55.0657 H         1 UNK         0.3000 
    236 H236       -6.5092  -20.6399  -57.1625 H         1 UNK         0.0600 
    237 H237       -3.8859  -21.4554  -55.7700 H         1 UNK         0.0600 
    238 H238       -4.2671  -21.8471  -57.4463 H         1 UNK         0.0600 
    239 H239       -4.0839  -20.1738  -56.9531 H         1 UNK         0.0600 
    240 H240       -5.5523  -18.5757  -56.1101 H         1 UNK         0.3000 
    241 H241       -5.5575  -16.9633  -54.6426 H         1 UNK         0.0600 
    242 H242       -8.3441  -18.3726  -55.1563 H         1 UNK         0.3800 
    243 H243       -9.3347  -17.5332  -53.9914 H         1 UNK         0.3800 
    244 H244       -5.3069  -19.0153  -52.4035 H         1 UNK         0.0800 
    245 H245       -4.8895  -17.3332  -52.2981 H         1 UNK         0.0800 
    246 H246       -3.1238  -16.1565  -53.7662 H         1 UNK         0.0800 
    247 H247       -1.6169  -16.9219  -54.1883 H         1 UNK         0.0800 
@<TRIPOS>BOND
     1    1    2 1    
     2    1  127 1    
     3    1  128 1    
     4    1  129 1    
     5    2    3 2    
     6    2    4 am   BACKBONE|DICT|INTERRES
     7    4    5 1    
     8    4  130 1    
     9    5    6 1    
    10    5   65 1    
    11    5  131 1    
    12    6    7 1    
    13    6  132 1    
    14    6  133 1    
    15    7    8 1    
    16    8    9 1    
    17    8  134 1    
    18    8  135 1    
    19    9   10 ar   
    20    9   14 ar   
    21   10   11 ar   
    22   10  136 1    
    23   11   12 ar   
    24   11  126 1    
    25   12   13 ar   
    26   12  137 1    
    27   13   14 ar   
    28   13   15 1    
    29   14  138 1    
    30   15   16 1    
    31   15  139 1    
    32   15  140 1    
    33   16   17 1    
    34   17   18 1    
    35   17  141 1    
    36   17  142 1    
    37   18   19 1    
    38   18   67 1    
    39   18  143 1    
    40   19   20 am   BACKBONE|DICT|INTERRES
    41   19  144 1    
    42   20   21 2    
    43   20   22 1    
    44   22   23 1    
    45   22   24 1    
    46   22  145 1    
    47   23  146 1    
    48   23  147 1    
    49   23  148 1    
    50   24   25 am   BACKBONE|DICT|INTERRES
    51   24  149 1    
    52   25   26 2    
    53   25   27 1    
    54   27   28 1    
    55   27   29 1    
    56   27  150 1    
    57   28  151 1    
    58   28  152 1    
    59   28  153 1    
    60   29   30 am   BACKBONE|DICT|INTERRES
    61   29  154 1    
    62   30   31 2    
    63   30   32 1    
    64   32   33 1    
    65   32   34 1    
    66   32  155 1    
    67   33  156 1    
    68   33  157 1    
    69   33  158 1    
    70   34   35 am   BACKBONE|DICT|INTERRES
    71   34  159 1    
    72   35   36 2    
    73   35   37 1    
    74   37   38 1    
    75   37   39 1    
    76   37  160 1    
    77   38  161 1    
    78   38  162 1    
    79   38  163 1    
    80   39   40 am   BACKBONE|DICT|INTERRES
    81   39  164 1    
    82   40   41 2    
    83   40   42 1    
    84   42   43 1    
    85   42   44 1    
    86   42  165 1    
    87   43  166 1    
    88   43  167 1    
    89   43  168 1    
    90   44   45 am   BACKBONE|DICT|INTERRES
    91   44  169 1    
    92   45   46 2    
    93   45   47 1    
    94   47   48 1    
    95   47   49 1    
    96   47  170 1    
    97   48  171 1    
    98   48  172 1    
    99   48  173 1    
   100   49   50 am   BACKBONE|DICT|INTERRES
   101   49  174 1    
   102   50   51 2    
   103   50   52 1    
   104   52   53 1    
   105   52   54 1    
   106   52  175 1    
   107   53  176 1    
   108   53  177 1    
   109   53  178 1    
   110   54   55 am   BACKBONE|DICT|INTERRES
   111   54  179 1    
   112   55   56 2    
   113   55   57 1    
   114   57   58 1    
   115   57   59 1    
   116   57  180 1    
   117   58  181 1    
   118   58  182 1    
   119   58  183 1    
   120   59   60 am   BACKBONE|DICT|INTERRES
   121   59  184 1    
   122   60   61 2    
   123   60   62 1    
   124   62   63 1    
   125   62   64 1    
   126   62  185 1    
   127   63  186 1    
   128   63  187 1    
   129   63  188 1    
   130   64   65 am   BACKBONE|DICT|INTERRES
   131   64  189 1    
   132   65   66 2    
   133   67   68 2    
   134   67   69 am   BACKBONE|DICT|INTERRES
   135   69   70 1    
   136   69  190 1    
   137   70   71 1    
   138   70   72 1    
   139   70  191 1    
   140   71  192 1    
   141   71  193 1    
   142   71  194 1    
   143   72   73 2    
   144   72   74 am   BACKBONE|DICT|INTERRES
   145   74   75 1    
   146   74  195 1    
   147   75   76 1    
   148   75   77 1    
   149   75  196 1    
   150   76  197 1    
   151   76  198 1    
   152   76  199 1    
   153   77   78 2    
   154   77   79 am   BACKBONE|DICT|INTERRES
   155   79   80 1    
   156   79  200 1    
   157   80   81 1    
   158   80   82 1    
   159   80  201 1    
   160   81  202 1    
   161   81  203 1    
   162   81  204 1    
   163   82   83 2    
   164   82   84 am   BACKBONE|DICT|INTERRES
   165   84   85 1    
   166   84  205 1    
   167   85   86 1    
   168   85   87 1    
   169   85  206 1    
   170   86  207 1    
   171   86  208 1    
   172   86  209 1    
   173   87   88 2    
   174   87   89 am   BACKBONE|DICT|INTERRES
   175   89   90 1    
   176   89  210 1    
   177   90   91 1    
   178   90   92 1    
   179   90  211 1    
   180   91  212 1    
   181   91  213 1    
   182   91  214 1    
   183   92   93 2    
   184   92   94 am   BACKBONE|DICT|INTERRES
   185   94   95 1    
   186   94  215 1    
   187   95   96 1    
   188   95   97 1    
   189   95  216 1    
   190   96  217 1    
   191   96  218 1    
   192   96  219 1    
   193   97   98 2    
   194   97   99 am   BACKBONE|DICT|INTERRES
   195   99  100 1    
   196   99  220 1    
   197  100  101 1    
   198  100  102 1    
   199  100  221 1    
   200  101  222 1    
   201  101  223 1    
   202  101  224 1    
   203  102  103 2    
   204  102  104 am   BACKBONE|DICT|INTERRES
   205  104  105 1    
   206  104  225 1    
   207  105  106 1    
   208  105  107 1    
   209  105  226 1    
   210  106  227 1    
   211  106  228 1    
   212  106  229 1    
   213  107  108 2    
   214  107  109 am   BACKBONE|DICT|INTERRES
   215  109  110 1    
   216  109  230 1    
   217  110  111 1    
   218  110  112 1    
   219  110  231 1    
   220  111  232 1    
   221  111  233 1    
   222  111  234 1    
   223  112  113 2    
   224  112  114 am   BACKBONE|DICT|INTERRES
   225  114  115 1    
   226  114  235 1    
   227  115  116 1    
   228  115  117 1    
   229  115  236 1    
   230  116  237 1    
   231  116  238 1    
   232  116  239 1    
   233  117  118 2    
   234  117  119 am   BACKBONE|DICT|INTERRES
   235  119  120 1    
   236  119  240 1    
   237  120  121 1    
   238  120  124 1    
   239  120  241 1    
   240  121  122 am   BACKBONE|DICT|INTERRES
   241  121  123 2    
   242  122  242 1    
   243  122  243 1    
   244  124  125 1    
   245  124  244 1    
   246  124  245 1    
   247  125  126 1    
   248  126  246 1    
   249  126  247 1    
@<TRIPOS>SUBSTRUCTURE
     1 UNK         1 GROUP             0       ****    0 ROOT    
