@<TRIPOS>MOLECULE
3R540
247   249    1
SMALL
USER_CHARGES


@<TRIPOS>ATOM
      1 CA          2.0843  -15.9761  -50.5849 C.3       0 UNK        -0.1800 
      2 C           1.3802  -16.0882  -49.2404 C.2       0 UNK         0.5000 
      3 O           1.9873  -15.8272  -48.2017 O.2       0 UNK        -0.5000 
      4 N           0.1015  -16.4780  -49.2547 N.am      1 UNK        -0.5000 
      5 CA         -0.7591  -16.6820  -48.0867 C.3       1 UNK         0.1400 
      6 C6         -1.8844  -17.7197  -48.3466 C.3       23 UNK        -0.0398 
      7 S7         -2.6477  -17.6944  -50.0076 S.3       23 UNK        -0.2404 
      8 C8         -2.1544  -19.3240  -50.6570 C.3       23 UNK        -0.0205 
      9 C9         -0.7105  -19.3443  -51.1272 C.ar      23 UNK        -0.0193 
     10 C10        -0.4164  -19.0879  -52.4654 C.ar      23 UNK        -0.1150 
     11 C11         0.9006  -19.1036  -52.9262 C.ar      23 UNK        -0.0193 
     12 C12         1.9346  -19.3806  -52.0250 C.ar      23 UNK        -0.1150 
     13 C13         1.6557  -19.6507  -50.6796 C.ar      23 UNK        -0.0193 
     14 C14         0.3286  -19.6356  -50.2418 C.ar      23 UNK        -0.1150 
     15 C15         2.7900  -19.9306  -49.7007 C.3       23 UNK        -0.0205 
     16 S16         2.5973  -21.5208  -48.8265 S.3       23 UNK        -0.2404 
     17 C17         1.9169  -20.9896  -47.2167 C.3       23 UNK        -0.0398 
     18 CA          0.9479  -22.0310  -46.6003 C.3       11 UNK         0.1400 
     19 N           0.9832  -22.0204  -45.1350 N.am      11 UNK        -0.5000 
     20 C           0.3817  -22.9240  -44.3471 C.2       10 UNK         0.5000 
     21 O          -0.2077  -23.9167  -44.7738 O.2       10 UNK        -0.5000 
     22 CA          0.3791  -22.6334  -42.8349 C.3       10 UNK         0.1400 
     23 CB          1.6845  -23.1054  -42.1786 C.3       10 UNK        -0.1800 
     24 N           0.1580  -21.2142  -42.5480 N.am      10 UNK        -0.5000 
     25 C          -0.9783  -20.5597  -42.8267 C.2       9 UNK         0.5000 
     26 O          -1.9846  -21.1177  -43.2642 O.2       9 UNK        -0.5000 
     27 CA         -0.9765  -19.0281  -42.6402 C.3       9 UNK         0.1400 
     28 CB         -1.2876  -18.6488  -41.1856 C.3       9 UNK        -0.1800 
     29 N           0.2857  -18.4085  -43.0514 N.am      9 UNK        -0.5000 
     30 C           0.7419  -18.3820  -44.3121 C.2       8 UNK         0.5000 
     31 O           0.1127  -18.8250  -45.2727 O.2       8 UNK        -0.5000 
     32 CA          2.1711  -17.8504  -44.5297 C.3       8 UNK         0.1400 
     33 CB          2.2030  -16.3236  -44.6686 C.3       8 UNK        -0.1800 
     34 N           3.0744  -18.2592  -43.4559 N.am      8 UNK        -0.5000 
     35 C           3.5127  -19.5125  -43.2785 C.2       7 UNK         0.5000 
     36 O           3.2287  -20.4455  -44.0282 O.2       7 UNK        -0.5000 
     37 CA          4.3730  -19.7718  -42.0285 C.3       7 UNK         0.1400 
     38 CB          5.8426  -19.4176  -42.2993 C.3       7 UNK        -0.1800 
     39 N           3.8995  -19.0236  -40.8627 N.am      7 UNK        -0.5000 
     40 C           2.7263  -19.2402  -40.2507 C.2       6 UNK         0.5000 
     41 O           1.9453  -20.1331  -40.5739 O.2       6 UNK        -0.5000 
     42 CA          2.3392  -18.2664  -39.1230 C.3       6 UNK         0.1400 
     43 CB          2.8666  -18.7692  -37.7712 C.3       6 UNK        -0.1800 
     44 N           2.8223  -16.9036  -39.3579 N.am      6 UNK        -0.5000 
     45 C           2.4091  -16.1104  -40.3548 C.2       5 UNK         0.5000 
     46 O           1.5622  -16.4370  -41.1897 O.2       5 UNK        -0.5000 
     47 CA          3.1159  -14.7569  -40.4721 C.3       5 UNK         0.1400 
     48 CB          4.3581  -14.8742  -41.3725 C.3       5 UNK        -0.1800 
     49 N           2.2078  -13.7569  -41.0271 N.am      5 UNK        -0.5000 
     50 C           2.2112  -12.4643  -40.6785 C.2       4 UNK         0.5000 
     51 O           2.9745  -11.9951  -39.8324 O.2       4 UNK        -0.5000 
     52 CA          1.2316  -11.5113  -41.3920 C.3       4 UNK         0.1400 
     53 CB          1.9934  -10.6046  -42.3728 C.3       4 UNK        -0.1800 
     54 N           0.1443  -12.1609  -42.1239 N.am      4 UNK        -0.5000 
     55 C          -0.9145  -12.7773  -41.5813 C.2       3 UNK         0.5000 
     56 O          -1.0387  -12.9754  -40.3725 O.2       3 UNK        -0.5000 
     57 CA         -2.0429  -13.2075  -42.5455 C.3       3 UNK         0.1400 
     58 CB         -3.3373  -12.4357  -42.2404 C.3       3 UNK        -0.1800 
     59 N          -1.6966  -12.9942  -43.9565 N.am      3 UNK        -0.5000 
     60 C          -1.0091  -13.8691  -44.6982 C.2       2 UNK         0.5000 
     61 O          -0.6551  -14.9738  -44.2837 O.2       2 UNK        -0.5000 
     62 CA         -0.6023  -13.4030  -46.1113 C.3       2 UNK         0.1400 
     63 CB          0.6647  -12.5353  -46.0408 C.3       2 UNK        -0.1800 
     64 N          -0.3336  -14.5434  -46.9835 N.am      2 UNK        -0.5000 
     65 C          -1.2697  -15.3540  -47.4864 C.2       1 UNK         0.5000 
     66 O          -2.4736  -15.0906  -47.4660 O.2       1 UNK        -0.5000 
     67 C          -0.4922  -21.8814  -47.1394 C.2       11 UNK         0.5000 
     68 O          -0.8543  -22.5768  -48.0860 O.2       11 UNK        -0.5000 
     69 N          -1.3065  -21.0294  -46.4950 N.am      12 UNK        -0.5000 
     70 CA         -2.7349  -20.8547  -46.7765 C.3       12 UNK         0.1400 
     71 CB         -3.3253  -19.7330  -45.9037 C.3       12 UNK        -0.1800 
     72 C          -3.5348  -22.1527  -46.6014 C.2       12 UNK         0.5000 
     73 O          -4.3164  -22.5019  -47.4856 O.2       12 UNK        -0.5000 
     74 N          -3.2953  -22.8552  -45.4871 N.am      13 UNK        -0.5000 
     75 CA         -3.9001  -24.1516  -45.1878 C.3       13 UNK         0.1400 
     76 CB         -3.5855  -24.5400  -43.7351 C.3       13 UNK        -0.1800 
     77 C          -3.4531  -25.2539  -46.1666 C.2       13 UNK         0.5000 
     78 O          -4.2894  -26.0356  -46.6200 O.2       13 UNK        -0.5000 
     79 N          -2.1521  -25.2842  -46.4863 N.am      14 UNK        -0.5000 
     80 CA         -1.5396  -26.2560  -47.3919 C.3       14 UNK         0.1400 
     81 CB         -0.0100  -26.1676  -47.2760 C.3       14 UNK        -0.1800 
     82 C          -1.9827  -26.0894  -48.8571 C.2       14 UNK         0.5000 
     83 O          -2.3203  -27.0815  -49.5042 O.2       14 UNK        -0.5000 
     84 N          -1.9694  -24.8462  -49.3551 N.am      15 UNK        -0.5000 
     85 CA         -2.2791  -24.5070  -50.7466 C.3       15 UNK         0.1400 
     86 CB         -1.4683  -23.2622  -51.1401 C.3       15 UNK        -0.1800 
     87 C          -3.7853  -24.2953  -51.0065 C.2       15 UNK         0.5000 
     88 O          -4.1719  -24.1262  -52.1630 O.2       15 UNK        -0.5000 
     89 N          -4.6003  -24.3112  -49.9409 N.am      16 UNK        -0.5000 
     90 CA         -6.0537  -24.1109  -49.9218 C.3       16 UNK         0.1400 
     91 CB         -6.7843  -25.2372  -50.6827 C.3       16 UNK        -0.1800 
     92 C          -6.4686  -22.6915  -50.3646 C.2       16 UNK         0.5000 
     93 O          -7.4333  -22.5250  -51.1149 O.2       16 UNK        -0.5000 
     94 N          -5.7303  -21.6948  -49.8551 N.am      17 UNK        -0.5000 
     95 CA         -5.9332  -20.2522  -50.0074 C.3       17 UNK         0.1400 
     96 CB         -7.0682  -19.7901  -49.0685 C.3       17 UNK        -0.1800 
     97 C          -6.1162  -19.8202  -51.4790 C.2       17 UNK         0.5000 
     98 O          -5.1916  -19.9835  -52.2741 O.2       17 UNK        -0.5000 
     99 N          -7.2999  -19.2960  -51.8262 N.am      18 UNK        -0.5000 
    100 CA        -7.6550  -18.7756  -53.1499 C.3       18 UNK         0.1400 
    101 CB        -9.0779  -18.1995  -53.0893 C.3       18 UNK        -0.1800 
    102 C         -7.5352  -19.7893  -54.3067 C.2       18 UNK         0.5000 
    103 O         -7.3647  -19.3702  -55.4525 O.2       18 UNK        -0.5000 
    104 N         -7.5923  -21.0936  -53.9993 N.am      19 UNK        -0.5000 
    105 CA        -7.4125  -22.1812  -54.9641 C.3       19 UNK         0.1400 
    106 CB        -7.8493  -23.5034  -54.3166 C.3       19 UNK        -0.1800 
    107 C         -5.9723  -22.2999  -55.5063 C.2       19 UNK         0.5000 
    108 O         -5.7748  -22.9371  -56.5418 O.2       19 UNK        -0.5000 
    109 N         -4.9965  -21.6952  -54.8128 N.am      20 UNK        -0.5000 
    110 CA        -3.5810  -21.7036  -55.1819 C.3       20 UNK         0.1400 
    111 CB        -2.7694  -21.1572  -54.0041 C.3       20 UNK        -0.1800 
    112 C         -3.2682  -20.8832  -56.4476 C.2       20 UNK         0.5000 
    113 O         -2.3231  -21.2231  -57.1600 O.2       20 UNK        -0.5000 
    114 N         -4.0593  -19.8246  -56.6913 N.am      21 UNK        -0.5000 
    115 CA        -3.9691  -18.8889  -57.8192 C.3       21 UNK         0.1400 
    116 CB        -4.3958  -19.5873  -59.1272 C.3       21 UNK        -0.1800 
    117 C         -2.5888  -18.2000  -57.9216 C.2       21 UNK         0.5000 
    118 O         -1.9474  -18.2412  -58.9736 O.2       21 UNK        -0.5000 
    119 N         -2.1501  -17.5940  -56.8089 N.am      22 UNK        -0.5000 
    120 CA        -0.8473  -16.9110  -56.6771 C.3       22 UNK         0.1400 
    121 C         -0.6965  -15.5932  -57.4977 C.2       22 UNK         0.5000 
    122 N         -1.7710  -14.9936  -57.9963 N.am      22 UNK        -0.7600 
    123 O          0.4149  -15.1088  -57.6913 O.2       22 UNK        -0.5000 
    124 C124       -0.4698  -16.6955  -55.1826 C.3       23 UNK        -0.0398 
    125 S125        1.2783  -17.0846  -54.8160 S.3       23 UNK        -0.2404 
    126 C126        1.1992  -18.8580  -54.3998 C.3       23 UNK        -0.0205 
    127 H127        2.9623  -16.6217  -50.6023 H         1 UNK         0.0600 
    128 H128        2.4090  -14.9499  -50.7558 H         1 UNK         0.0600 
    129 H129        1.4332  -16.2708  -51.4089 H         1 UNK         0.0600 
    130 H130       -0.3459  -16.6743  -50.1396 H         1 UNK         0.3000 
    131 H131       -0.1340  -17.1161  -47.3037 H         1 UNK         0.0600 
    132 H132       -1.4723  -18.7086  -48.1657 H         1 UNK         0.0800 
    133 H133       -2.6893  -17.6201  -47.6191 H         1 UNK         0.0800 
    134 H134       -2.3213  -20.1038  -49.9168 H         1 UNK         0.0800 
    135 H135       -2.8075  -19.5699  -51.4919 H         1 UNK         0.0800 
    136 H136       -1.2246  -18.8877  -53.1480 H         1 UNK         0.1150 
    137 H137        2.9573  -19.3900  -52.3747 H         1 UNK         0.1150 
    138 H138        0.1071  -19.8509  -49.2095 H         1 UNK         0.1150 
    139 H139        3.7436  -19.9555  -50.2300 H         1 UNK         0.0800 
    140 H140        2.8644  -19.1082  -48.9880 H         1 UNK         0.0800 
    141 H141        1.4498  -20.0069  -47.2963 H         1 UNK         0.0800 
    142 H142        2.7793  -20.8500  -46.5649 H         1 UNK         0.0800 
    143 H143        1.2939  -23.0246  -46.8925 H         1 UNK         0.0600 
    144 H144        1.5032  -21.2675  -44.6972 H         1 UNK         0.3000 
    145 H145       -0.4441  -23.1972  -42.3910 H         1 UNK         0.0600 
    146 H146        1.8442  -24.1703  -42.3520 H         1 UNK         0.0600 
    147 H147        2.5516  -22.5760  -42.5721 H         1 UNK         0.0600 
    148 H148        1.6606  -22.9513  -41.0997 H         1 UNK         0.0600 
    149 H149        0.9183  -20.7117  -42.0996 H         1 UNK         0.3000 
    150 H150       -1.7670  -18.6170  -43.2714 H         1 UNK         0.0600 
    151 H151       -1.3064  -17.5664  -41.0553 H         1 UNK         0.0600 
    152 H152       -0.5500  -19.0570  -40.4954 H         1 UNK         0.0600 
    153 H153       -2.2636  -19.0316  -40.8850 H         1 UNK         0.0600 
    154 H154        0.8359  -17.9600  -42.3269 H         1 UNK         0.3000 
    155 H155        2.5394  -18.2744  -45.4664 H         1 UNK         0.0600 
    156 H156        1.5589  -16.0004  -45.4848 H         1 UNK         0.0600 
    157 H157        3.2086  -15.9672  -44.8913 H         1 UNK         0.0600 
    158 H158        1.8615  -15.8240  -43.7625 H         1 UNK         0.0600 
    159 H159        3.3104  -17.5592  -42.7695 H         1 UNK         0.3000 
    160 H160        4.3142  -20.8375  -41.7974 H         1 UNK         0.0600 
    161 H161        6.2258  -19.9735  -43.1561 H         1 UNK         0.0600 
    162 H162        6.4718  -19.6664  -41.4445 H         1 UNK         0.0600 
    163 H163        5.9704  -18.3556  -42.5129 H         1 UNK         0.0600 
    164 H164        4.4887  -18.2767  -40.5264 H         1 UNK         0.3000 
    165 H165        1.2492  -18.2329  -39.0723 H         1 UNK         0.0600 
    166 H166        2.5332  -18.1286  -36.9546 H         1 UNK         0.0600 
    167 H167        2.5033  -19.7762  -37.5613 H         1 UNK         0.0600 
    168 H168        3.9566  -18.8024  -37.7496 H         1 UNK         0.0600 
    169 H169        3.5273  -16.5627  -38.7198 H         1 UNK         0.3000 
    170 H170        3.4293  -14.4590  -39.4691 H         1 UNK         0.0600 
    171 H171        4.8988  -13.9289  -41.4205 H         1 UNK         0.0600 
    172 H172        5.0528  -15.6243  -40.9925 H         1 UNK         0.0600 
    173 H173        4.0913  -15.1566  -42.3915 H         1 UNK         0.0600 
    174 H174        1.5164  -14.1040  -41.6786 H         1 UNK         0.3000 
    175 H175        0.7850  -10.8785  -40.6222 H         1 UNK         0.0600 
    176 H176        2.4477  -11.1797  -43.1808 H         1 UNK         0.0600 
    177 H177        1.3328   -9.8609  -42.8190 H         1 UNK         0.0600 
    178 H178        2.7931  -10.0618  -41.8669 H         1 UNK         0.0600 
    179 H179        0.1586  -12.0553  -43.1261 H         1 UNK         0.3000 
    180 H180       -2.2336  -14.2687  -42.3712 H         1 UNK         0.0600 
    181 H181       -4.1518  -12.7610  -42.8879 H         1 UNK         0.0600 
    182 H182       -3.2076  -11.3613  -42.3768 H         1 UNK         0.0600 
    183 H183       -3.6590  -12.5994  -41.2111 H         1 UNK         0.0600 
    184 H184       -1.9631  -12.1050  -44.3557 H         1 UNK         0.3000 
    185 H185       -1.4153  -12.8127  -46.5393 H         1 UNK         0.0600 
    186 H186        1.4996  -13.0775  -45.5940 H         1 UNK         0.0600 
    187 H187        0.9731  -12.2082  -47.0340 H         1 UNK         0.0600 
    188 H188        0.4971  -11.6379  -45.4443 H         1 UNK         0.0600 
    189 H189        0.6344  -14.8324  -47.0776 H         1 UNK         0.3000 
    190 H190       -0.9123  -20.4515  -45.7597 H         1 UNK         0.3000 
    191 H191       -2.8266  -20.5563  -47.8188 H         1 UNK         0.0600 
    192 H192       -3.6189  -20.0863  -44.9159 H         1 UNK         0.0600 
    193 H193       -4.2213  -19.3203  -46.3686 H         1 UNK         0.0600 
    194 H194       -2.6216  -18.9150  -45.7555 H         1 UNK         0.0600 
    195 H195       -2.6521  -22.4736  -44.8024 H         1 UNK         0.3000 
    196 H196       -4.9828  -24.0439  -45.2817 H         1 UNK         0.0600 
    197 H197       -4.0587  -25.4873  -43.4738 H         1 UNK         0.0600 
    198 H198       -3.9547  -23.7877  -43.0378 H         1 UNK         0.0600 
    199 H199       -2.5140  -24.6516  -43.5681 H         1 UNK         0.0600 
    200 H200       -1.5237  -24.6298  -46.0287 H         1 UNK         0.3000 
    201 H201       -1.8432  -27.2529  -47.0653 H         1 UNK         0.0600 
    202 H202        0.3199  -26.3591  -46.2547 H         1 UNK         0.0600 
    203 H203        0.3592  -25.1841  -47.5674 H         1 UNK         0.0600 
    204 H204        0.4743  -26.9041  -47.9184 H         1 UNK         0.0600 
    205 H205       -1.6496  -24.0764  -48.7689 H         1 UNK         0.3000 
    206 H206       -1.9526  -25.3278  -51.3886 H         1 UNK         0.0600 
    207 H207       -1.4859  -23.1148  -52.2190 H         1 UNK         0.0600 
    208 H208       -1.8614  -22.3606  -50.6708 H         1 UNK         0.0600 
    209 H209       -0.4214  -23.3585  -50.8508 H         1 UNK         0.0600 
    210 H210       -4.1676  -24.4160  -49.0329 H         1 UNK         0.3000 
    211 H211       -6.3493  -24.1889  -48.8745 H         1 UNK         0.0600 
    212 H212       -6.5501  -25.2321  -51.7465 H         1 UNK         0.0600 
    213 H213       -7.8659  -25.1372  -50.5860 H         1 UNK         0.0600 
    214 H214       -6.5134  -26.2159  -50.2868 H         1 UNK         0.0600 
    215 H215       -4.9978  -21.9663  -49.2058 H         1 UNK         0.3000 
    216 H216       -5.0134  -19.7760  -49.6665 H         1 UNK         0.0600 
    217 H217       -7.2049  -18.7087  -49.1126 H         1 UNK         0.0600 
    218 H218       -6.8359  -20.0380  -48.0325 H         1 UNK         0.0600 
    219 H219       -8.0207  -20.2626  -49.3118 H         1 UNK         0.0600 
    220 H220       -8.0154  -19.2336  -51.1170 H         1 UNK         0.3000 
    221 H221       -6.9656  -17.9583  -53.3709 H         1 UNK         0.0600 
    222 H222       -9.8105  -18.9666  -52.8352 H         1 UNK         0.0600 
    223 H223       -9.1516  -17.4041  -52.3475 H         1 UNK         0.0600 
    224 H224       -9.3694  -17.7727  -54.0500 H         1 UNK         0.0600 
    225 H225       -7.6928  -21.3635  -53.0273 H         1 UNK         0.3000 
    226 H226       -8.0678  -21.9872  -55.8158 H         1 UNK         0.0600 
    227 H227       -8.8657  -23.4411  -53.9278 H         1 UNK         0.0600 
    228 H228       -7.8253  -24.3194  -55.0397 H         1 UNK         0.0600 
    229 H229       -7.1891  -23.7774  -53.4941 H         1 UNK         0.0600 
    230 H230       -5.2342  -21.2011  -53.9588 H         1 UNK         0.3000 
    231 H231       -3.2823  -22.7388  -55.3595 H         1 UNK         0.0600 
    232 H232       -2.9729  -20.0975  -53.8540 H         1 UNK         0.0600 
    233 H233       -3.0221  -21.6722  -53.0785 H         1 UNK         0.0600 
    234 H234       -1.6981  -21.2740  -54.1724 H         1 UNK         0.0600 
    235 H235       -4.8167  -19.6545  -56.0433 H         1 UNK         0.3000 
    236 H236       -4.6932  -18.0972  -57.6216 H         1 UNK         0.0600 
    237 H237       -3.7056  -20.3840  -59.4064 H         1 UNK         0.0600 
    238 H238       -5.3898  -20.0246  -59.0325 H         1 UNK         0.0600 
    239 H239       -4.4307  -18.8787  -59.9555 H         1 UNK         0.0600 
    240 H240       -2.7425  -17.5987  -55.9920 H         1 UNK         0.3000 
    241 H241       -0.1196  -17.6006  -57.1099 H         1 UNK         0.0600 
    242 H242       -1.6625  -14.1452  -58.5299 H         1 UNK         0.3800 
    243 H243       -2.6904  -15.3778  -57.8495 H         1 UNK         0.3800 
    244 H244       -0.6651  -15.6692  -54.8657 H         1 UNK         0.0800 
    245 H245       -1.1012  -17.2992  -54.5378 H         1 UNK         0.0800 
    246 H246        0.4516  -19.3530  -55.0220 H         1 UNK         0.0800 
    247 H247        2.1546  -19.3154  -54.6612 H         1 UNK         0.0800 
@<TRIPOS>BOND
     1    1    2 1    
     2    1  127 1    
     3    1  128 1    
     4    1  129 1    
     5    2    3 2    
     6    2    4 am   BACKBONE|DICT|INTERRES
     7    4    5 1    
     8    4  130 1    
     9    5    6 1    
    10    5   65 1    
    11    5  131 1    
    12    6    7 1    
    13    6  132 1    
    14    6  133 1    
    15    7    8 1    
    16    8    9 1    
    17    8  134 1    
    18    8  135 1    
    19    9   10 ar   
    20    9   14 ar   
    21   10   11 ar   
    22   10  136 1    
    23   11   12 ar   
    24   11  126 1    
    25   12   13 ar   
    26   12  137 1    
    27   13   14 ar   
    28   13   15 1    
    29   14  138 1    
    30   15   16 1    
    31   15  139 1    
    32   15  140 1    
    33   16   17 1    
    34   17   18 1    
    35   17  141 1    
    36   17  142 1    
    37   18   19 1    
    38   18   67 1    
    39   18  143 1    
    40   19   20 am   BACKBONE|DICT|INTERRES
    41   19  144 1    
    42   20   21 2    
    43   20   22 1    
    44   22   23 1    
    45   22   24 1    
    46   22  145 1    
    47   23  146 1    
    48   23  147 1    
    49   23  148 1    
    50   24   25 am   BACKBONE|DICT|INTERRES
    51   24  149 1    
    52   25   26 2    
    53   25   27 1    
    54   27   28 1    
    55   27   29 1    
    56   27  150 1    
    57   28  151 1    
    58   28  152 1    
    59   28  153 1    
    60   29   30 am   BACKBONE|DICT|INTERRES
    61   29  154 1    
    62   30   31 2    
    63   30   32 1    
    64   32   33 1    
    65   32   34 1    
    66   32  155 1    
    67   33  156 1    
    68   33  157 1    
    69   33  158 1    
    70   34   35 am   BACKBONE|DICT|INTERRES
    71   34  159 1    
    72   35   36 2    
    73   35   37 1    
    74   37   38 1    
    75   37   39 1    
    76   37  160 1    
    77   38  161 1    
    78   38  162 1    
    79   38  163 1    
    80   39   40 am   BACKBONE|DICT|INTERRES
    81   39  164 1    
    82   40   41 2    
    83   40   42 1    
    84   42   43 1    
    85   42   44 1    
    86   42  165 1    
    87   43  166 1    
    88   43  167 1    
    89   43  168 1    
    90   44   45 am   BACKBONE|DICT|INTERRES
    91   44  169 1    
    92   45   46 2    
    93   45   47 1    
    94   47   48 1    
    95   47   49 1    
    96   47  170 1    
    97   48  171 1    
    98   48  172 1    
    99   48  173 1    
   100   49   50 am   BACKBONE|DICT|INTERRES
   101   49  174 1    
   102   50   51 2    
   103   50   52 1    
   104   52   53 1    
   105   52   54 1    
   106   52  175 1    
   107   53  176 1    
   108   53  177 1    
   109   53  178 1    
   110   54   55 am   BACKBONE|DICT|INTERRES
   111   54  179 1    
   112   55   56 2    
   113   55   57 1    
   114   57   58 1    
   115   57   59 1    
   116   57  180 1    
   117   58  181 1    
   118   58  182 1    
   119   58  183 1    
   120   59   60 am   BACKBONE|DICT|INTERRES
   121   59  184 1    
   122   60   61 2    
   123   60   62 1    
   124   62   63 1    
   125   62   64 1    
   126   62  185 1    
   127   63  186 1    
   128   63  187 1    
   129   63  188 1    
   130   64   65 am   BACKBONE|DICT|INTERRES
   131   64  189 1    
   132   65   66 2    
   133   67   68 2    
   134   67   69 am   BACKBONE|DICT|INTERRES
   135   69   70 1    
   136   69  190 1    
   137   70   71 1    
   138   70   72 1    
   139   70  191 1    
   140   71  192 1    
   141   71  193 1    
   142   71  194 1    
   143   72   73 2    
   144   72   74 am   BACKBONE|DICT|INTERRES
   145   74   75 1    
   146   74  195 1    
   147   75   76 1    
   148   75   77 1    
   149   75  196 1    
   150   76  197 1    
   151   76  198 1    
   152   76  199 1    
   153   77   78 2    
   154   77   79 am   BACKBONE|DICT|INTERRES
   155   79   80 1    
   156   79  200 1    
   157   80   81 1    
   158   80   82 1    
   159   80  201 1    
   160   81  202 1    
   161   81  203 1    
   162   81  204 1    
   163   82   83 2    
   164   82   84 am   BACKBONE|DICT|INTERRES
   165   84   85 1    
   166   84  205 1    
   167   85   86 1    
   168   85   87 1    
   169   85  206 1    
   170   86  207 1    
   171   86  208 1    
   172   86  209 1    
   173   87   88 2    
   174   87   89 am   BACKBONE|DICT|INTERRES
   175   89   90 1    
   176   89  210 1    
   177   90   91 1    
   178   90   92 1    
   179   90  211 1    
   180   91  212 1    
   181   91  213 1    
   182   91  214 1    
   183   92   93 2    
   184   92   94 am   BACKBONE|DICT|INTERRES
   185   94   95 1    
   186   94  215 1    
   187   95   96 1    
   188   95   97 1    
   189   95  216 1    
   190   96  217 1    
   191   96  218 1    
   192   96  219 1    
   193   97   98 2    
   194   97   99 am   BACKBONE|DICT|INTERRES
   195   99  100 1    
   196   99  220 1    
   197  100  101 1    
   198  100  102 1    
   199  100  221 1    
   200  101  222 1    
   201  101  223 1    
   202  101  224 1    
   203  102  103 2    
   204  102  104 am   BACKBONE|DICT|INTERRES
   205  104  105 1    
   206  104  225 1    
   207  105  106 1    
   208  105  107 1    
   209  105  226 1    
   210  106  227 1    
   211  106  228 1    
   212  106  229 1    
   213  107  108 2    
   214  107  109 am   BACKBONE|DICT|INTERRES
   215  109  110 1    
   216  109  230 1    
   217  110  111 1    
   218  110  112 1    
   219  110  231 1    
   220  111  232 1    
   221  111  233 1    
   222  111  234 1    
   223  112  113 2    
   224  112  114 am   BACKBONE|DICT|INTERRES
   225  114  115 1    
   226  114  235 1    
   227  115  116 1    
   228  115  117 1    
   229  115  236 1    
   230  116  237 1    
   231  116  238 1    
   232  116  239 1    
   233  117  118 2    
   234  117  119 am   BACKBONE|DICT|INTERRES
   235  119  120 1    
   236  119  240 1    
   237  120  121 1    
   238  120  124 1    
   239  120  241 1    
   240  121  122 am   BACKBONE|DICT|INTERRES
   241  121  123 2    
   242  122  242 1    
   243  122  243 1    
   244  124  125 1    
   245  124  244 1    
   246  124  245 1    
   247  125  126 1    
   248  126  246 1    
   249  126  247 1    
@<TRIPOS>SUBSTRUCTURE
     1 UNK         1 GROUP             0       ****    0 ROOT    
