@<TRIPOS>MOLECULE
3R540
247   249    1
SMALL
USER_CHARGES


@<TRIPOS>ATOM
      1 CA          2.4718   -9.2971  -47.6222 C.3       0 UNK        -0.1800 
      2 C           2.3547  -10.8066  -47.4699 C.2       0 UNK         0.5000 
      3 O           2.0075  -11.2878  -46.3925 O.2       0 UNK        -0.5000 
      4 N           2.6290  -11.5472  -48.5516 N.am      1 UNK        -0.5000 
      5 CA          2.6357  -13.0147  -48.6323 C.3       1 UNK         0.1400 
      6 C6          3.0561  -13.4631  -50.0563 C.3       23 UNK        -0.0398 
      7 S7          3.3108  -15.2591  -50.2604 S.3       23 UNK        -0.2404 
      8 C8          1.8380  -15.6735  -51.2562 C.3       23 UNK        -0.0205 
      9 C9          1.6583  -17.1615  -51.5479 C.ar      23 UNK        -0.0193 
     10 C10         1.0473  -17.5467  -52.7443 C.ar      23 UNK        -0.1150 
     11 C11         0.8147  -18.8953  -53.0282 C.ar      23 UNK        -0.0193 
     12 C12         1.2037  -19.8703  -52.1057 C.ar      23 UNK        -0.1150 
     13 C13         1.8335  -19.5062  -50.9127 C.ar      23 UNK        -0.0193 
     14 C14         2.0500  -18.1512  -50.6382 C.ar      23 UNK        -0.1150 
     15 C15         2.3361  -20.5789  -49.9540 C.3       23 UNK        -0.0205 
     16 S16         1.7889  -20.3162  -48.2381 S.3       23 UNK        -0.2404 
     17 C17         0.1571  -21.1282  -48.2181 C.3       23 UNK        -0.0398 
     18 CA          0.1880  -22.4555  -47.4238 C.3       11 UNK         0.1400 
     19 N           0.5206  -22.2441  -46.0119 N.am      11 UNK        -0.5000 
     20 C           0.8152  -23.2168  -45.1406 C.2       10 UNK         0.5000 
     21 O           0.8916  -24.4059  -45.4482 O.2       10 UNK        -0.5000 
     22 CA          0.9956  -22.7970  -43.6699 C.3       10 UNK         0.1400 
     23 CB          2.4118  -22.2604  -43.4144 C.3       10 UNK        -0.1800 
     24 N           0.0010  -21.8069  -43.2489 N.am      10 UNK        -0.5000 
     25 C          -1.3127  -22.0600  -43.1578 C.2       9 UNK         0.5000 
     26 O          -1.8060  -23.1665  -43.3724 O.2       9 UNK        -0.5000 
     27 CA         -2.2391  -20.8822  -42.8069 C.3       9 UNK         0.1400 
     28 CB         -2.2647  -20.6506  -41.2890 C.3       9 UNK        -0.1800 
     29 N          -1.8748  -19.6416  -43.4912 N.am      9 UNK        -0.5000 
     30 C          -1.9059  -19.4617  -44.8196 C.2       8 UNK         0.5000 
     31 O          -2.2923  -20.3140  -45.6191 O.2       8 UNK        -0.5000 
     32 CA         -1.3492  -18.1304  -45.3569 C.3       8 UNK         0.1400 
     33 CB         -2.3984  -17.0131  -45.2741 C.3       8 UNK        -0.1800 
     34 N          -0.1214  -17.7079  -44.6843 N.am      8 UNK        -0.5000 
     35 C           1.0078  -18.4299  -44.6462 C.2       7 UNK         0.5000 
     36 O           1.1301  -19.5366  -45.1661 O.2       7 UNK        -0.5000 
     37 CA          2.1700  -17.8522  -43.8267 C.3       7 UNK         0.1400 
     38 CB          2.8639  -16.7075  -44.5804 C.3       7 UNK        -0.1800 
     39 N           1.7091  -17.3921  -42.5179 N.am      7 UNK        -0.5000 
     40 C           1.3059  -18.2112  -41.5354 C.2       6 UNK         0.5000 
     41 O           1.3365  -19.4400  -41.6112 O.2       6 UNK        -0.5000 
     42 CA          0.7369  -17.5426  -40.2706 C.3       6 UNK         0.1400 
     43 CB          1.8689  -17.1383  -39.3143 C.3       6 UNK        -0.1800 
     44 N          -0.0860  -16.3700  -40.5728 N.am      6 UNK        -0.5000 
     45 C          -1.2590  -16.4171  -41.2199 C.2       5 UNK         0.5000 
     46 O          -1.7824  -17.4583  -41.6121 O.2       5 UNK        -0.5000 
     47 CA         -1.9431  -15.0712  -41.5166 C.3       5 UNK         0.1400 
     48 CB         -2.8059  -14.6296  -40.3253 C.3       5 UNK        -0.1800 
     49 N          -1.0090  -13.9977  -41.8642 N.am      5 UNK        -0.5000 
     50 C          -0.1746  -14.0171  -42.9116 C.2       4 UNK         0.5000 
     51 O          -0.0496  -14.9803  -43.6701 O.2       4 UNK        -0.5000 
     52 CA          0.6419  -12.7369  -43.1600 C.3       4 UNK         0.1400 
     53 CB          2.1176  -13.0555  -43.4492 C.3       4 UNK        -0.1800 
     54 N           0.0889  -11.9899  -44.2847 N.am      4 UNK        -0.5000 
     55 C          -1.0982  -11.3683  -44.2941 C.2       3 UNK         0.5000 
     56 O          -1.8235  -11.2587  -43.3047 O.2       3 UNK        -0.5000 
     57 CA         -1.5572  -10.7793  -45.6394 C.3       3 UNK         0.1400 
     58 CB         -1.0077   -9.3568  -45.8244 C.3       3 UNK        -0.1800 
     59 N          -1.1536  -11.6150  -46.7725 N.am      3 UNK        -0.5000 
     60 C          -1.7502  -12.7674  -47.1113 C.2       2 UNK         0.5000 
     61 O          -2.7328  -13.2200  -46.5237 O.2       2 UNK        -0.5000 
     62 CA         -1.1712  -13.5442  -48.3095 C.3       2 UNK         0.1400 
     63 CB         -2.0823  -13.4127  -49.5403 C.3       2 UNK        -0.1800 
     64 N           0.1791  -13.1071  -48.6737 N.am      2 UNK        -0.5000 
     65 C           1.3000  -13.6501  -48.1784 C.2       1 UNK         0.5000 
     66 O           1.3108  -14.5848  -47.3776 O.2       1 UNK        -0.5000 
     67 C          -1.1303  -23.2441  -47.5834 C.2       11 UNK         0.5000 
     68 O          -1.2076  -24.1379  -48.4270 O.2       11 UNK        -0.5000 
     69 N          -2.1349  -22.9376  -46.7493 N.am      12 UNK        -0.5000 
     70 CA         -3.4099  -23.6543  -46.6944 C.3       12 UNK         0.1400 
     71 CB         -4.4145  -22.8750  -45.8344 C.3       12 UNK        -0.1800 
     72 C          -3.2563  -25.1027  -46.1987 C.2       12 UNK         0.5000 
     73 O          -3.8744  -25.9999  -46.7702 O.2       12 UNK        -0.5000 
     74 N          -2.3935  -25.3224  -45.1962 N.am      13 UNK        -0.5000 
     75 CA         -2.0136  -26.6496  -44.7005 C.3       13 UNK         0.1400 
     76 CB         -1.1819  -26.5029  -43.4176 C.3       13 UNK        -0.1800 
     77 C          -1.2611  -27.4915  -45.7517 C.2       13 UNK         0.5000 
     78 O          -1.4209  -28.7119  -45.7809 O.2       13 UNK        -0.5000 
     79 N          -0.5003  -26.8205  -46.6275 N.am      14 UNK        -0.5000 
     80 CA          0.1516  -27.3967  -47.8064 C.3       14 UNK         0.1400 
     81 CB          1.3447  -26.5088  -48.1984 C.3       14 UNK        -0.1800 
     82 C          -0.8066  -27.6054  -49.0029 C.2       14 UNK         0.5000 
     83 O          -0.3622  -28.0933  -50.0428 O.2       14 UNK        -0.5000 
     84 N          -2.0903  -27.2473  -48.8409 N.am      15 UNK        -0.5000 
     85 CA         -3.1931  -27.3778  -49.7981 C.3       15 UNK         0.1400 
     86 CB         -3.4560  -28.8587  -50.1457 C.3       15 UNK        -0.1800 
     87 C          -3.0493  -26.4756  -51.0411 C.2       15 UNK         0.5000 
     88 O          -3.5153  -26.8427  -52.1215 O.2       15 UNK        -0.5000 
     89 N          -2.4355  -25.2995  -50.8677 N.am      16 UNK        -0.5000 
     90 CA         -2.2578  -24.2902  -51.9080 C.3       16 UNK         0.1400 
     91 CB         -0.9645  -24.5736  -52.6970 C.3       16 UNK        -0.1800 
     92 C          -2.2762  -22.9049  -51.2482 C.2       16 UNK         0.5000 
     93 O          -1.2687  -22.1990  -51.2830 O.2       16 UNK        -0.5000 
     94 N          -3.4052  -22.5858  -50.5938 N.am      17 UNK        -0.5000 
     95 CA         -3.6395  -21.3800  -49.7916 C.3       17 UNK         0.1400 
     96 CB         -5.1079  -21.3435  -49.3405 C.3       17 UNK        -0.1800 
     97 C          -3.2687  -20.0736  -50.5137 C.2       17 UNK         0.5000 
     98 O          -3.6588  -19.8874  -51.6681 O.2       17 UNK        -0.5000 
     99 N          -2.5314  -19.2086  -49.8039 N.am      18 UNK        -0.5000 
    100 CA        -1.9480  -17.9651  -50.3035 C.3       18 UNK         0.1400 
    101 CB        -1.1718  -17.2850  -49.1672 C.3       18 UNK        -0.1800 
    102 C         -3.0065  -17.0203  -50.8950 C.2       18 UNK         0.5000 
    103 O         -3.9116  -16.5933  -50.1763 O.2       18 UNK        -0.5000 
    104 N         -2.9025  -16.7786  -52.2073 N.am      19 UNK        -0.5000 
    105 CA        -3.8194  -16.0601  -53.1016 C.3       19 UNK         0.1400 
    106 CB        -4.0086  -14.5965  -52.6599 C.3       19 UNK        -0.1800 
    107 C         -5.1780  -16.7595  -53.3250 C.2       19 UNK         0.5000 
    108 O         -5.7029  -16.7109  -54.4379 O.2       19 UNK        -0.5000 
    109 N         -5.7255  -17.3877  -52.2794 N.am      20 UNK        -0.5000 
    110 CA        -7.0387  -18.0256  -52.2535 C.3       20 UNK         0.1400 
    111 CB        -7.4180  -18.3102  -50.7923 C.3       20 UNK        -0.1800 
    112 C         -7.1475  -19.3092  -53.0976 C.2       20 UNK         0.5000 
    113 O         -8.2255  -19.5729  -53.6330 O.2       20 UNK        -0.5000 
    114 N         -6.0645  -20.0921  -53.1944 N.am      21 UNK        -0.5000 
    115 CA        -6.0559  -21.3955  -53.8619 C.3       21 UNK         0.1400 
    116 CB        -6.5008  -22.4970  -52.8797 C.3       21 UNK        -0.1800 
    117 C         -4.6980  -21.6887  -54.5214 C.2       21 UNK         0.5000 
    118 O         -4.2315  -22.8285  -54.4901 O.2       21 UNK        -0.5000 
    119 N         -4.0930  -20.6621  -55.1299 N.am      22 UNK        -0.5000 
    120 CA        -2.8450  -20.7824  -55.9067 C.3       22 UNK         0.1400 
    121 C         -3.0217  -21.4155  -57.3195 C.2       22 UNK         0.5000 
    122 N         -4.2353  -21.6003  -57.8256 N.am      22 UNK        -0.7600 
    123 O         -2.0353  -21.7533  -57.9681 O.2       22 UNK        -0.5000 
    124 C124       -2.0944  -19.4321  -56.0061 C.3       23 UNK        -0.0398 
    125 S125       -1.5930  -18.8086  -54.3710 S.3       23 UNK        -0.2404 
    126 C126        0.1573  -19.2926  -54.3393 C.3       23 UNK        -0.0205 
    127 H127        3.0605   -9.0258  -48.4987 H         1 UNK         0.0600 
    128 H128        2.9551   -8.8665  -46.7452 H         1 UNK         0.0600 
    129 H129        1.4832   -8.8500  -47.7232 H         1 UNK         0.0600 
    130 H130        2.8983  -11.0688  -49.3996 H         1 UNK         0.3000 
    131 H131        3.4021  -13.3594  -47.9348 H         1 UNK         0.0600 
    132 H132        2.3371  -13.1066  -50.7958 H         1 UNK         0.0800 
    133 H133        4.0015  -12.9855  -50.3178 H         1 UNK         0.0800 
    134 H134        0.9463  -15.3118  -50.7453 H         1 UNK         0.0800 
    135 H135        1.9010  -15.1217  -52.1956 H         1 UNK         0.0800 
    136 H136        0.7376  -16.7949  -53.4570 H         1 UNK         0.1150 
    137 H137        1.0291  -20.9148  -52.3240 H         1 UNK         0.1150 
    138 H138        2.5257  -17.8729  -49.7088 H         1 UNK         0.1150 
    139 H139        2.0381  -21.5759  -50.2830 H         1 UNK         0.0800 
    140 H140        3.4265  -20.5652  -49.9723 H         1 UNK         0.0800 
    141 H141       -0.1644  -21.2905  -49.2451 H         1 UNK         0.0800 
    142 H142       -0.5608  -20.4362  -47.7776 H         1 UNK         0.0800 
    143 H143        0.9761  -23.0784  -47.8522 H         1 UNK         0.0600 
    144 H144        0.5520  -21.2788  -45.6917 H         1 UNK         0.3000 
    145 H145        0.8600  -23.6880  -43.0534 H         1 UNK         0.0600 
    146 H146        2.5542  -22.0104  -42.3630 H         1 UNK         0.0600 
    147 H147        3.1629  -23.0062  -43.6771 H         1 UNK         0.0600 
    148 H148        2.6207  -21.3660  -44.0009 H         1 UNK         0.0600 
    149 H149        0.3402  -20.8735  -43.0499 H         1 UNK         0.3000 
    150 H150       -3.2487  -21.1501  -43.1240 H         1 UNK         0.0600 
    151 H151       -2.5319  -21.5648  -40.7575 H         1 UNK         0.0600 
    152 H152       -2.9998  -19.8922  -41.0193 H         1 UNK         0.0600 
    153 H153       -1.2938  -20.3234  -40.9154 H         1 UNK         0.0600 
    154 H154       -1.5958  -18.8647  -42.8979 H         1 UNK         0.3000 
    155 H155       -1.0992  -18.2855  -46.4069 H         1 UNK         0.0600 
    156 H156       -2.6864  -16.8087  -44.2430 H         1 UNK         0.0600 
    157 H157       -2.0219  -16.0851  -45.7060 H         1 UNK         0.0600 
    158 H158       -3.3018  -17.2844  -45.8215 H         1 UNK         0.0600 
    159 H159       -0.1298  -16.7904  -44.2449 H         1 UNK         0.3000 
    160 H160        2.9031  -18.6467  -43.6711 H         1 UNK         0.0600 
    161 H161        3.6764  -16.2789  -43.9938 H         1 UNK         0.0600 
    162 H162        2.1689  -15.9067  -44.8315 H         1 UNK         0.0600 
    163 H163        3.2909  -17.0667  -45.5176 H         1 UNK         0.0600 
    164 H164        1.5879  -16.3970  -42.4029 H         1 UNK         0.3000 
    165 H165        0.1070  -18.2763  -39.7628 H         1 UNK         0.0600 
    166 H166        1.4724  -16.7365  -38.3817 H         1 UNK         0.0600 
    167 H167        2.4888  -17.9987  -39.0586 H         1 UNK         0.0600 
    168 H168        2.5208  -16.3834  -39.7557 H         1 UNK         0.0600 
    169 H169        0.2721  -15.4704  -40.2881 H         1 UNK         0.3000 
    170 H170       -2.6019  -15.2207  -42.3742 H         1 UNK         0.0600 
    171 H171       -2.1998  -14.4250  -39.4419 H         1 UNK         0.0600 
    172 H172       -3.3719  -13.7282  -40.5611 H         1 UNK         0.0600 
    173 H173       -3.5268  -15.4033  -40.0573 H         1 UNK         0.0600 
    174 H174       -1.0781  -13.1508  -41.3182 H         1 UNK         0.3000 
    175 H175        0.6002  -12.1087  -42.2679 H         1 UNK         0.0600 
    176 H176        2.7101  -12.1424  -43.5083 H         1 UNK         0.0600 
    177 H177        2.2364  -13.5850  -44.3952 H         1 UNK         0.0600 
    178 H178        2.5499  -13.6762  -42.6635 H         1 UNK         0.0600 
    179 H179        0.6447  -11.9859  -45.1343 H         1 UNK         0.3000 
    180 H180       -2.6477  -10.7191  -45.6252 H         1 UNK         0.0600 
    181 H181        0.0807   -9.3344  -45.7737 H         1 UNK         0.0600 
    182 H182       -1.3816   -8.6940  -45.0431 H         1 UNK         0.0600 
    183 H183       -1.3117   -8.9341  -46.7821 H         1 UNK         0.0600 
    184 H184       -0.3219  -11.3372  -47.2706 H         1 UNK         0.3000 
    185 H185       -1.1519  -14.5957  -48.0190 H         1 UNK         0.0600 
    186 H186       -2.1676  -12.3774  -49.8722 H         1 UNK         0.0600 
    187 H187       -1.7037  -14.0040  -50.3741 H         1 UNK         0.0600 
    188 H188       -3.0886  -13.7734  -49.3223 H         1 UNK         0.0600 
    189 H189        0.2514  -12.3337  -49.3189 H         1 UNK         0.3000 
    190 H190       -2.0299  -22.1490  -46.1166 H         1 UNK         0.3000 
    191 H191       -3.8050  -23.7035  -47.7105 H         1 UNK         0.0600 
    192 H192       -4.5694  -21.8685  -46.2231 H         1 UNK         0.0600 
    193 H193       -5.3851  -23.3721  -45.8225 H         1 UNK         0.0600 
    194 H194       -4.0789  -22.7866  -44.8016 H         1 UNK         0.0600 
    195 H195       -1.9757  -24.5236  -44.7263 H         1 UNK         0.3000 
    196 H196       -2.9317  -27.1842  -44.4482 H         1 UNK         0.0600 
    197 H197       -0.9249  -27.4795  -43.0056 H         1 UNK         0.0600 
    198 H198       -1.7340  -25.9607  -42.6497 H         1 UNK         0.0600 
    199 H199       -0.2498  -25.9685  -43.5992 H         1 UNK         0.0600 
    200 H200       -0.3756  -25.8245  -46.4884 H         1 UNK         0.3000 
    201 H201        0.5429  -28.3797  -47.5370 H         1 UNK         0.0600 
    202 H202        2.0274  -26.3716  -47.3596 H         1 UNK         0.0600 
    203 H203        1.0235  -25.5229  -48.5323 H         1 UNK         0.0600 
    204 H204        1.9166  -26.9574  -49.0114 H         1 UNK         0.0600 
    205 H205       -2.3540  -26.8352  -47.9541 H         1 UNK         0.3000 
    206 H206       -4.0791  -27.0126  -49.2779 H         1 UNK         0.0600 
    207 H207       -3.5622  -29.4621  -49.2441 H         1 UNK         0.0600 
    208 H208       -4.3783  -28.9683  -50.7172 H         1 UNK         0.0600 
    209 H209       -2.6507  -29.2857  -50.7436 H         1 UNK         0.0600 
    210 H210       -2.0660  -25.0533  -49.9519 H         1 UNK         0.3000 
    211 H211       -3.1001  -24.3218  -52.6013 H         1 UNK         0.0600 
    212 H212       -0.0897  -24.5727  -52.0455 H         1 UNK         0.0600 
    213 H213       -0.8057  -23.8189  -53.4683 H         1 UNK         0.0600 
    214 H214       -1.0101  -25.5423  -53.1946 H         1 UNK         0.0600 
    215 H215       -4.1661  -23.2466  -50.6283 H         1 UNK         0.3000 
    216 H216       -3.0167  -21.4651  -48.9022 H         1 UNK         0.0600 
    217 H217       -5.2856  -20.5046  -48.6663 H         1 UNK         0.0600 
    218 H218       -5.3885  -22.2508  -48.8068 H         1 UNK         0.0600 
    219 H219       -5.7866  -21.2306  -50.1858 H         1 UNK         0.0600 
    220 H220       -2.3267  -19.4281  -48.8422 H         1 UNK         0.3000 
    221 H221       -1.2373  -18.2369  -51.0850 H         1 UNK         0.0600 
    222 H222       -1.8268  -17.0130  -48.3391 H         1 UNK         0.0600 
    223 H223       -0.3821  -17.9302  -48.7819 H         1 UNK         0.0600 
    224 H224       -0.6945  -16.3723  -49.5198 H         1 UNK         0.0600 
    225 H225       -2.1676  -17.2708  -52.7003 H         1 UNK         0.3000 
    226 H226       -3.3215  -16.0440  -54.0723 H         1 UNK         0.0600 
    227 H227       -3.0504  -14.0844  -52.5732 H         1 UNK         0.0600 
    228 H228       -4.6056  -14.0465  -53.3881 H         1 UNK         0.0600 
    229 H229       -4.5190  -14.5200  -51.6997 H         1 UNK         0.0600 
    230 H230       -5.2181  -17.3465  -51.4014 H         1 UNK         0.3000 
    231 H231       -7.7611  -17.3121  -52.6554 H         1 UNK         0.0600 
    232 H232       -6.6905  -18.9629  -50.3098 H         1 UNK         0.0600 
    233 H233       -8.3929  -18.7949  -50.7251 H         1 UNK         0.0600 
    234 H234       -7.4732  -17.3880  -50.2135 H         1 UNK         0.0600 
    235 H235       -5.2013  -19.8297  -52.7191 H         1 UNK         0.3000 
    236 H236       -6.7723  -21.3784  -54.6856 H         1 UNK         0.0600 
    237 H237       -7.4675  -22.2667  -52.4318 H         1 UNK         0.0600 
    238 H238       -6.6019  -23.4568  -53.3876 H         1 UNK         0.0600 
    239 H239       -5.7795  -22.6283  -52.0755 H         1 UNK         0.0600 
    240 H240       -4.5253  -19.7504  -55.1011 H         1 UNK         0.3000 
    241 H241       -2.1898  -21.4692  -55.3665 H         1 UNK         0.0600 
    242 H242       -5.0560  -21.3267  -57.3105 H         1 UNK         0.3800 
    243 H243       -4.3331  -22.0156  -58.7391 H         1 UNK         0.3800 
    244 H244       -1.2063  -19.5210  -56.6346 H         1 UNK         0.0800 
    245 H245       -2.7262  -18.6810  -56.4827 H         1 UNK         0.0800 
    246 H246        0.6848  -18.8148  -55.1661 H         1 UNK         0.0800 
    247 H247        0.2343  -20.3695  -54.4978 H         1 UNK         0.0800 
@<TRIPOS>BOND
     1    1    2 1    
     2    1  127 1    
     3    1  128 1    
     4    1  129 1    
     5    2    3 2    
     6    2    4 am   BACKBONE|DICT|INTERRES
     7    4    5 1    
     8    4  130 1    
     9    5    6 1    
    10    5   65 1    
    11    5  131 1    
    12    6    7 1    
    13    6  132 1    
    14    6  133 1    
    15    7    8 1    
    16    8    9 1    
    17    8  134 1    
    18    8  135 1    
    19    9   10 ar   
    20    9   14 ar   
    21   10   11 ar   
    22   10  136 1    
    23   11   12 ar   
    24   11  126 1    
    25   12   13 ar   
    26   12  137 1    
    27   13   14 ar   
    28   13   15 1    
    29   14  138 1    
    30   15   16 1    
    31   15  139 1    
    32   15  140 1    
    33   16   17 1    
    34   17   18 1    
    35   17  141 1    
    36   17  142 1    
    37   18   19 1    
    38   18   67 1    
    39   18  143 1    
    40   19   20 am   BACKBONE|DICT|INTERRES
    41   19  144 1    
    42   20   21 2    
    43   20   22 1    
    44   22   23 1    
    45   22   24 1    
    46   22  145 1    
    47   23  146 1    
    48   23  147 1    
    49   23  148 1    
    50   24   25 am   BACKBONE|DICT|INTERRES
    51   24  149 1    
    52   25   26 2    
    53   25   27 1    
    54   27   28 1    
    55   27   29 1    
    56   27  150 1    
    57   28  151 1    
    58   28  152 1    
    59   28  153 1    
    60   29   30 am   BACKBONE|DICT|INTERRES
    61   29  154 1    
    62   30   31 2    
    63   30   32 1    
    64   32   33 1    
    65   32   34 1    
    66   32  155 1    
    67   33  156 1    
    68   33  157 1    
    69   33  158 1    
    70   34   35 am   BACKBONE|DICT|INTERRES
    71   34  159 1    
    72   35   36 2    
    73   35   37 1    
    74   37   38 1    
    75   37   39 1    
    76   37  160 1    
    77   38  161 1    
    78   38  162 1    
    79   38  163 1    
    80   39   40 am   BACKBONE|DICT|INTERRES
    81   39  164 1    
    82   40   41 2    
    83   40   42 1    
    84   42   43 1    
    85   42   44 1    
    86   42  165 1    
    87   43  166 1    
    88   43  167 1    
    89   43  168 1    
    90   44   45 am   BACKBONE|DICT|INTERRES
    91   44  169 1    
    92   45   46 2    
    93   45   47 1    
    94   47   48 1    
    95   47   49 1    
    96   47  170 1    
    97   48  171 1    
    98   48  172 1    
    99   48  173 1    
   100   49   50 am   BACKBONE|DICT|INTERRES
   101   49  174 1    
   102   50   51 2    
   103   50   52 1    
   104   52   53 1    
   105   52   54 1    
   106   52  175 1    
   107   53  176 1    
   108   53  177 1    
   109   53  178 1    
   110   54   55 am   BACKBONE|DICT|INTERRES
   111   54  179 1    
   112   55   56 2    
   113   55   57 1    
   114   57   58 1    
   115   57   59 1    
   116   57  180 1    
   117   58  181 1    
   118   58  182 1    
   119   58  183 1    
   120   59   60 am   BACKBONE|DICT|INTERRES
   121   59  184 1    
   122   60   61 2    
   123   60   62 1    
   124   62   63 1    
   125   62   64 1    
   126   62  185 1    
   127   63  186 1    
   128   63  187 1    
   129   63  188 1    
   130   64   65 am   BACKBONE|DICT|INTERRES
   131   64  189 1    
   132   65   66 2    
   133   67   68 2    
   134   67   69 am   BACKBONE|DICT|INTERRES
   135   69   70 1    
   136   69  190 1    
   137   70   71 1    
   138   70   72 1    
   139   70  191 1    
   140   71  192 1    
   141   71  193 1    
   142   71  194 1    
   143   72   73 2    
   144   72   74 am   BACKBONE|DICT|INTERRES
   145   74   75 1    
   146   74  195 1    
   147   75   76 1    
   148   75   77 1    
   149   75  196 1    
   150   76  197 1    
   151   76  198 1    
   152   76  199 1    
   153   77   78 2    
   154   77   79 am   BACKBONE|DICT|INTERRES
   155   79   80 1    
   156   79  200 1    
   157   80   81 1    
   158   80   82 1    
   159   80  201 1    
   160   81  202 1    
   161   81  203 1    
   162   81  204 1    
   163   82   83 2    
   164   82   84 am   BACKBONE|DICT|INTERRES
   165   84   85 1    
   166   84  205 1    
   167   85   86 1    
   168   85   87 1    
   169   85  206 1    
   170   86  207 1    
   171   86  208 1    
   172   86  209 1    
   173   87   88 2    
   174   87   89 am   BACKBONE|DICT|INTERRES
   175   89   90 1    
   176   89  210 1    
   177   90   91 1    
   178   90   92 1    
   179   90  211 1    
   180   91  212 1    
   181   91  213 1    
   182   91  214 1    
   183   92   93 2    
   184   92   94 am   BACKBONE|DICT|INTERRES
   185   94   95 1    
   186   94  215 1    
   187   95   96 1    
   188   95   97 1    
   189   95  216 1    
   190   96  217 1    
   191   96  218 1    
   192   96  219 1    
   193   97   98 2    
   194   97   99 am   BACKBONE|DICT|INTERRES
   195   99  100 1    
   196   99  220 1    
   197  100  101 1    
   198  100  102 1    
   199  100  221 1    
   200  101  222 1    
   201  101  223 1    
   202  101  224 1    
   203  102  103 2    
   204  102  104 am   BACKBONE|DICT|INTERRES
   205  104  105 1    
   206  104  225 1    
   207  105  106 1    
   208  105  107 1    
   209  105  226 1    
   210  106  227 1    
   211  106  228 1    
   212  106  229 1    
   213  107  108 2    
   214  107  109 am   BACKBONE|DICT|INTERRES
   215  109  110 1    
   216  109  230 1    
   217  110  111 1    
   218  110  112 1    
   219  110  231 1    
   220  111  232 1    
   221  111  233 1    
   222  111  234 1    
   223  112  113 2    
   224  112  114 am   BACKBONE|DICT|INTERRES
   225  114  115 1    
   226  114  235 1    
   227  115  116 1    
   228  115  117 1    
   229  115  236 1    
   230  116  237 1    
   231  116  238 1    
   232  116  239 1    
   233  117  118 2    
   234  117  119 am   BACKBONE|DICT|INTERRES
   235  119  120 1    
   236  119  240 1    
   237  120  121 1    
   238  120  124 1    
   239  120  241 1    
   240  121  122 am   BACKBONE|DICT|INTERRES
   241  121  123 2    
   242  122  242 1    
   243  122  243 1    
   244  124  125 1    
   245  124  244 1    
   246  124  245 1    
   247  125  126 1    
   248  126  246 1    
   249  126  247 1    
@<TRIPOS>SUBSTRUCTURE
     1 UNK         1 GROUP             0       ****    0 ROOT    
