@<TRIPOS>MOLECULE
3R540
247   249    1
SMALL
USER_CHARGES


@<TRIPOS>ATOM
      1 CA          4.5346  -17.0965  -46.1311 C.3       0 UNK        -0.1800 
      2 C           4.6905  -16.1595  -47.3211 C.2       0 UNK         0.5000 
      3 O           5.7560  -15.5692  -47.4943 O.2       0 UNK        -0.5000 
      4 N           3.6334  -16.0132  -48.1329 N.am      1 UNK        -0.5000 
      5 CA          3.5684  -15.1694  -49.3405 C.3       1 UNK         0.1400 
      6 C6          4.6802  -15.5063  -50.3812 C.3       23 UNK        -0.0398 
      7 S7          4.0838  -15.4994  -52.1081 S.3       23 UNK        -0.2404 
      8 C8          4.1119  -17.2730  -52.5263 C.3       23 UNK        -0.0205 
      9 C9          2.9526  -18.0205  -51.8864 C.ar      23 UNK        -0.0193 
     10 C10         1.7380  -18.1459  -52.5638 C.ar      23 UNK        -0.1150 
     11 C11         0.6569  -18.8084  -51.9737 C.ar      23 UNK        -0.0193 
     12 C12         0.7996  -19.3534  -50.6927 C.ar      23 UNK        -0.1150 
     13 C13         2.0184  -19.2471  -50.0130 C.ar      23 UNK        -0.0193 
     14 C14         3.0897  -18.5865  -50.6178 C.ar      23 UNK        -0.1150 
     15 C15         2.1968  -19.8245  -48.6193 C.3       23 UNK        -0.0205 
     16 S16         2.9193  -21.4897  -48.6764 S.3       23 UNK        -0.2404 
     17 C17         1.4181  -22.5144  -48.8001 C.3       23 UNK        -0.0398 
     18 CA          1.1286  -23.2496  -47.4727 C.3       11 UNK         0.1400 
     19 N           0.8786  -22.3307  -46.3578 N.am      11 UNK        -0.5000 
     20 C           1.2172  -22.5805  -45.0854 C.2       10 UNK         0.5000 
     21 O           1.8233  -23.5895  -44.7242 O.2       10 UNK        -0.5000 
     22 CA          0.7887  -21.5418  -44.0282 C.3       10 UNK         0.1400 
     23 CB          1.8602  -20.4474  -43.8978 C.3       10 UNK        -0.1800 
     24 N          -0.5014  -20.9080  -44.3047 N.am      10 UNK        -0.5000 
     25 C          -1.6654  -21.5452  -44.4947 C.2       9 UNK         0.5000 
     26 O          -1.8081  -22.7630  -44.3818 O.2       9 UNK        -0.5000 
     27 CA         -2.8598  -20.6822  -44.9466 C.3       9 UNK         0.1400 
     28 CB         -3.6751  -20.2200  -43.7317 C.3       9 UNK        -0.1800 
     29 N          -2.4945  -19.5177  -45.7581 N.am      9 UNK        -0.5000 
     30 C          -1.7803  -19.5295  -46.8965 C.2       8 UNK         0.5000 
     31 O          -1.2877  -20.5494  -47.3844 O.2       8 UNK        -0.5000 
     32 CA         -1.5155  -18.1542  -47.5363 C.3       8 UNK         0.1400 
     33 CB         -2.8010  -17.5461  -48.1248 C.3       8 UNK        -0.1800 
     34 N          -1.0031  -17.2538  -46.5069 N.am      8 UNK        -0.5000 
     35 C           0.2888  -16.9794  -46.2880 C.2       7 UNK         0.5000 
     36 O           1.1951  -17.2969  -47.0571 O.2       7 UNK        -0.5000 
     37 CA          0.6467  -16.2343  -44.9853 C.3       7 UNK         0.1400 
     38 CB          1.2913  -14.8752  -45.2801 C.3       7 UNK        -0.1800 
     39 N          -0.4991  -16.0211  -44.1031 N.am      7 UNK        -0.5000 
     40 C          -1.0325  -16.9439  -43.2922 C.2       6 UNK         0.5000 
     41 O          -0.6062  -18.0933  -43.1888 O.2       6 UNK        -0.5000 
     42 CA         -2.2966  -16.5181  -42.5204 C.3       6 UNK         0.1400 
     43 CB         -1.9151  -15.8513  -41.1907 C.3       6 UNK        -0.1800 
     44 N          -3.1509  -15.6078  -43.2893 N.am      6 UNK        -0.5000 
     45 C          -3.7426  -15.9143  -44.4535 C.2       5 UNK         0.5000 
     46 O          -3.6567  -17.0205  -44.9857 O.2       5 UNK        -0.5000 
     47 CA         -4.4912  -14.7785  -45.1749 C.3       5 UNK         0.1400 
     48 CB         -5.9594  -14.7256  -44.7298 C.3       5 UNK        -0.1800 
     49 N          -3.8636  -13.4706  -44.9612 N.am      5 UNK        -0.5000 
     50 C          -2.6747  -13.1201  -45.4685 C.2       4 UNK         0.5000 
     51 O          -2.0080  -13.8477  -46.2080 O.2       4 UNK        -0.5000 
     52 CA         -2.1153  -11.7615  -45.0265 C.3       4 UNK         0.1400 
     53 CB         -1.3390  -11.9039  -43.7049 C.3       4 UNK        -0.1800 
     54 N          -1.2299  -11.2450  -46.0633 N.am      4 UNK        -0.5000 
     55 C          -0.9385   -9.9587  -46.2795 C.2       3 UNK         0.5000 
     56 O          -1.3629   -9.0422  -45.5724 O.2       3 UNK        -0.5000 
     57 CA         -0.0137   -9.6498  -47.4805 C.3       3 UNK         0.1400 
     58 CB          0.1267   -8.1397  -47.7469 C.3       3 UNK        -0.1800 
     59 N           1.3278  -10.2218  -47.3291 N.am      3 UNK        -0.5000 
     60 C           1.6312  -11.5156  -47.4799 C.2       2 UNK         0.5000 
     61 O           0.7875  -12.3753  -47.7365 O.2       2 UNK        -0.5000 
     62 CA          3.1055  -11.9161  -47.2862 C.3       2 UNK         0.1400 
     63 CB          3.5051  -11.8285  -45.8042 C.3       2 UNK        -0.1800 
     64 N           3.3420  -13.2823  -47.7542 N.am      2 UNK        -0.5000 
     65 C           3.4899  -13.6492  -49.0345 C.2       1 UNK         0.5000 
     66 O           3.5624  -12.8345  -49.9561 O.2       1 UNK        -0.5000 
     67 C          -0.0555  -24.2139  -47.6435 C.2       11 UNK         0.5000 
     68 O           0.1578  -25.3874  -47.9537 O.2       11 UNK        -0.5000 
     69 N          -1.2832  -23.7221  -47.4113 N.am      12 UNK        -0.5000 
     70 CA         -2.5313  -24.4858  -47.5160 C.3       12 UNK         0.1400 
     71 CB         -3.7255  -23.5680  -47.2520 C.3       12 UNK        -0.1800 
     72 C          -2.5998  -25.7068  -46.5826 C.2       12 UNK         0.5000 
     73 O          -3.2763  -26.6771  -46.9166 O.2       12 UNK        -0.5000 
     74 N          -1.8511  -25.6669  -45.4726 N.am      13 UNK        -0.5000 
     75 CA         -1.6226  -26.7848  -44.5550 C.3       13 UNK         0.1400 
     76 CB         -0.6829  -26.3132  -43.4350 C.3       13 UNK        -0.1800 
     77 C          -1.0623  -28.0571  -45.2313 C.2       13 UNK         0.5000 
     78 O          -1.2978  -29.1545  -44.7237 O.2       13 UNK        -0.5000 
     79 N          -0.3599  -27.8931  -46.3618 N.am      14 UNK        -0.5000 
     80 CA          0.1170  -28.9785  -47.2163 C.3       14 UNK         0.1400 
     81 CB          1.6396  -28.8503  -47.3837 C.3       14 UNK        -0.1800 
     82 C          -0.5765  -28.9616  -48.5908 C.2       14 UNK         0.5000 
     83 O          -0.9563  -30.0221  -49.0883 O.2       14 UNK        -0.5000 
     84 N          -0.7069  -27.7725  -49.1958 N.am      15 UNK        -0.5000 
     85 CA         -1.1262  -27.5970  -50.5887 C.3       15 UNK         0.1400 
     86 CB         -0.5045  -26.2961  -51.1180 C.3       15 UNK        -0.1800 
     87 C          -2.6502  -27.5804  -50.8120 C.2       15 UNK         0.5000 
     88 O          -3.0784  -27.7251  -51.9579 O.2       15 UNK        -0.5000 
     89 N          -3.4387  -27.3714  -49.7472 N.am      16 UNK        -0.5000 
     90 CA         -4.9030  -27.2366  -49.6984 C.3       16 UNK         0.1400 
     91 CB         -5.6081  -28.5194  -50.1805 C.3       16 UNK        -0.1800 
     92 C          -5.4530  -25.9854  -50.4140 C.2       16 UNK         0.5000 
     93 O          -6.1154  -25.1630  -49.7816 O.2       16 UNK        -0.5000 
     94 N          -5.1694  -25.8567  -51.7149 N.am      17 UNK        -0.5000 
     95 CA         -5.6736  -24.8015  -52.5984 C.3       17 UNK         0.1400 
     96 CB         -5.4990  -25.2605  -54.0541 C.3       17 UNK        -0.1800 
     97 C          -5.0038  -23.4295  -52.3867 C.2       17 UNK         0.5000 
     98 O          -5.5424  -22.4163  -52.8329 O.2       17 UNK        -0.5000 
     99 N          -3.8468  -23.4112  -51.7124 N.am      18 UNK        -0.5000 
    100 CA        -3.0105  -22.2292  -51.4856 C.3       18 UNK         0.1400 
    101 CB        -1.5924  -22.6958  -51.1244 C.3       18 UNK        -0.1800 
    102 C         -3.5547  -21.2363  -50.4355 C.2       18 UNK         0.5000 
    103 O         -2.8694  -20.2666  -50.1266 O.2       18 UNK        -0.5000 
    104 N         -4.7618  -21.4721  -49.9032 N.am      19 UNK        -0.5000 
    105 CA        -5.4343  -20.6205  -48.9157 C.3       19 UNK         0.1400 
    106 CB        -6.5693  -21.4289  -48.2642 C.3       19 UNK        -0.1800 
    107 C         -6.0003  -19.3044  -49.4903 C.2       19 UNK         0.5000 
    108 O         -6.5015  -18.4854  -48.7196 O.2       19 UNK        -0.5000 
    109 N         -5.9495  -19.1321  -50.8180 N.am      20 UNK        -0.5000 
    110 CA        -6.5790  -18.0715  -51.6128 C.3       20 UNK         0.1400 
    111 CB        -6.5692  -18.5192  -53.0864 C.3       20 UNK        -0.1800 
    112 C         -6.0013  -16.6452  -51.4263 C.2       20 UNK         0.5000 
    113 O         -5.8373  -15.9218  -52.4103 O.2       20 UNK        -0.5000 
    114 N         -5.7369  -16.2526  -50.1720 N.am      21 UNK        -0.5000 
    115 CA        -5.3211  -14.9219  -49.7087 C.3       21 UNK         0.1400 
    116 CB        -6.5004  -13.9332  -49.8087 C.3       21 UNK        -0.1800 
    117 C         -4.0356  -14.3951  -50.3833 C.2       21 UNK         0.5000 
    118 O         -3.9434  -13.2104  -50.7100 O.2       21 UNK        -0.5000 
    119 N         -3.0728  -15.3013  -50.5860 N.am      22 UNK        -0.5000 
    120 CA        -1.7761  -15.0490  -51.2323 C.3       22 UNK         0.1400 
    121 C         -0.8554  -14.0343  -50.4977 C.2       22 UNK         0.5000 
    122 N         -0.9804  -13.8667  -49.1884 N.am      22 UNK        -0.7600 
    123 O         -0.0041  -13.4123  -51.1261 O.2       22 UNK        -0.5000 
    124 C124       -0.9774  -16.3558  -51.4572 C.3       23 UNK        -0.0398 
    125 S125       -1.9447  -17.7352  -52.1633 S.3       23 UNK        -0.2404 
    126 C126       -0.6642  -18.9118  -52.7278 C.3       23 UNK        -0.0205 
    127 H127        5.3805  -17.7820  -46.0803 H         1 UNK         0.0600 
    128 H128        3.6258  -17.6932  -46.1950 H         1 UNK         0.0600 
    129 H129        4.5025  -16.5238  -45.2044 H         1 UNK         0.0600 
    130 H130        2.7750  -16.5131  -47.9107 H         1 UNK         0.3000 
    131 H131        2.6024  -15.4212  -49.7821 H         1 UNK         0.0600 
    132 H132        5.5211  -14.8151  -50.3005 H         1 UNK         0.0800 
    133 H133        5.1138  -16.4844  -50.1771 H         1 UNK         0.0800 
    134 H134        5.0644  -17.7140  -52.2286 H         1 UNK         0.0800 
    135 H135        4.0601  -17.3761  -53.6112 H         1 UNK         0.0800 
    136 H136        1.6292  -17.7099  -53.5470 H         1 UNK         0.1150 
    137 H137       -0.0409  -19.8456  -50.2237 H         1 UNK         0.1150 
    138 H138        4.0295  -18.5080  -50.0910 H         1 UNK         0.1150 
    139 H139        2.8628  -19.1819  -48.0428 H         1 UNK         0.0800 
    140 H140        1.2502  -19.8352  -48.0791 H         1 UNK         0.0800 
    141 H141        1.5744  -23.2301  -49.6096 H         1 UNK         0.0800 
    142 H142        0.5675  -21.8996  -49.0965 H         1 UNK         0.0800 
    143 H143        2.0034  -23.8624  -47.2436 H         1 UNK         0.0600 
    144 H144        0.3399  -21.4990  -46.5712 H         1 UNK         0.3000 
    145 H145        0.7027  -22.0600  -43.0712 H         1 UNK         0.0600 
    146 H146        1.9471  -19.8586  -44.8123 H         1 UNK         0.0600 
    147 H147        1.6289  -19.7642  -43.0805 H         1 UNK         0.0600 
    148 H148        2.8398  -20.8800  -43.6903 H         1 UNK         0.0600 
    149 H149       -0.5072  -19.8952  -44.3328 H         1 UNK         0.3000 
    150 H150       -3.5073  -21.3003  -45.5655 H         1 UNK         0.0600 
    151 H151       -4.0434  -21.0742  -43.1622 H         1 UNK         0.0600 
    152 H152       -4.5418  -19.6319  -44.0341 H         1 UNK         0.0600 
    153 H153       -3.0734  -19.6125  -43.0565 H         1 UNK         0.0600 
    154 H154       -2.8760  -18.6293  -45.4426 H         1 UNK         0.3000 
    155 H155       -0.7845  -18.2665  -48.3393 H         1 UNK         0.0600 
    156 H156       -3.6827  -17.7482  -47.5164 H         1 UNK         0.0600 
    157 H157       -2.7122  -16.4648  -48.2128 H         1 UNK         0.0600 
    158 H158       -2.9986  -17.9422  -49.1191 H         1 UNK         0.0600 
    159 H159       -1.6785  -16.9292  -45.8282 H         1 UNK         0.3000 
    160 H160        1.3810  -16.8475  -44.4584 H         1 UNK         0.0600 
    161 H161        1.5475  -14.3526  -44.3586 H         1 UNK         0.0600 
    162 H162        2.2113  -14.9988  -45.8473 H         1 UNK         0.0600 
    163 H163        0.6273  -14.2336  -45.8584 H         1 UNK         0.0600 
    164 H164       -0.9486  -15.1199  -44.1697 H         1 UNK         0.3000 
    165 H165       -2.8752  -17.4160  -42.2987 H         1 UNK         0.0600 
    166 H166       -2.8003  -15.6129  -40.6008 H         1 UNK         0.0600 
    167 H167       -1.2926  -16.5132  -40.5871 H         1 UNK         0.0600 
    168 H168       -1.3566  -14.9275  -41.3476 H         1 UNK         0.0600 
    169 H169       -3.2745  -14.6779  -42.9178 H         1 UNK         0.3000 
    170 H170       -4.4679  -14.9992  -46.2440 H         1 UNK         0.0600 
    171 H171       -6.4522  -15.6842  -44.8985 H         1 UNK         0.0600 
    172 H172       -6.0524  -14.4902  -43.6689 H         1 UNK         0.0600 
    173 H173       -6.5141  -13.9737  -45.2915 H         1 UNK         0.0600 
    174 H174       -4.3573  -12.8231  -44.3634 H         1 UNK         0.3000 
    175 H175       -2.9514  -11.0725  -44.8895 H         1 UNK         0.0600 
    176 H176       -0.4825  -12.5707  -43.8132 H         1 UNK         0.0600 
    177 H177       -0.9671  -10.9392  -43.3594 H         1 UNK         0.0600 
    178 H178       -1.9737  -12.3062  -42.9146 H         1 UNK         0.0600 
    179 H179       -0.8252  -11.9502  -46.6746 H         1 UNK         0.3000 
    180 H180       -0.4810  -10.0933  -48.3626 H         1 UNK         0.0600 
    181 H181        0.6083   -7.6258  -46.9140 H         1 UNK         0.0600 
    182 H182       -0.8489   -7.6766  -47.9003 H         1 UNK         0.0600 
    183 H183        0.7169   -7.9510  -48.6438 H         1 UNK         0.0600 
    184 H184        2.0607   -9.5739  -47.0793 H         1 UNK         0.3000 
    185 H185        3.7300  -11.2290  -47.8606 H         1 UNK         0.0600 
    186 H186        4.5370  -12.1470  -45.6544 H         1 UNK         0.0600 
    187 H187        3.4277  -10.8051  -45.4355 H         1 UNK         0.0600 
    188 H188        2.8680  -12.4494  -45.1747 H         1 UNK         0.0600 
    189 H189        3.2659  -14.0138  -47.0656 H         1 UNK         0.3000 
    190 H190       -1.3707  -22.7427  -47.1698 H         1 UNK         0.3000 
    191 H191       -2.5986  -24.8445  -48.5445 H         1 UNK         0.0600 
    192 H192       -3.8878  -23.4159  -46.1852 H         1 UNK         0.0600 
    193 H193       -4.6354  -24.0130  -47.6547 H         1 UNK         0.0600 
    194 H194       -3.5922  -22.5936  -47.7175 H         1 UNK         0.0600 
    195 H195       -1.3922  -24.7930  -45.2458 H         1 UNK         0.3000 
    196 H196       -2.5854  -27.0467  -44.1121 H         1 UNK         0.0600 
    197 H197       -0.5099  -27.1071  -42.7074 H         1 UNK         0.0600 
    198 H198       -1.1057  -25.4646  -42.8964 H         1 UNK         0.0600 
    199 H199        0.2880  -26.0088  -43.8286 H         1 UNK         0.0600 
    200 H200       -0.2171  -26.9518  -46.7094 H         1 UNK         0.3000 
    201 H201       -0.0895  -29.9487  -46.7601 H         1 UNK         0.0600 
    202 H202        2.1476  -28.9340  -46.4228 H         1 UNK         0.0600 
    203 H203        1.9189  -27.8932  -47.8265 H         1 UNK         0.0600 
    204 H204        2.0306  -29.6388  -48.0281 H         1 UNK         0.0600 
    205 H205       -0.3541  -26.9395  -48.7303 H         1 UNK         0.3000 
    206 H206       -0.7257  -28.4216  -51.1825 H         1 UNK         0.0600 
    207 H207        0.5837  -26.3276  -51.0616 H         1 UNK         0.0600 
    208 H208       -0.7706  -26.1236  -52.1618 H         1 UNK         0.0600 
    209 H209       -0.8422  -25.4351  -50.5437 H         1 UNK         0.0600 
    210 H210       -2.9919  -27.2798  -48.8414 H         1 UNK         0.3000 
    211 H211       -5.1567  -27.1195  -48.6444 H         1 UNK         0.0600 
    212 H212       -5.4257  -28.7216  -51.2361 H         1 UNK         0.0600 
    213 H213       -6.6878  -28.4409  -50.0481 H         1 UNK         0.0600 
    214 H214       -5.2738  -29.3871  -49.6118 H         1 UNK         0.0600 
    215 H215       -4.5659  -26.5620  -52.1306 H         1 UNK         0.3000 
    216 H216       -6.7409  -24.6742  -52.4061 H         1 UNK         0.0600 
    217 H217       -5.8885  -24.5167  -54.7505 H         1 UNK         0.0600 
    218 H218       -6.0358  -26.1908  -54.2410 H         1 UNK         0.0600 
    219 H219       -4.4488  -25.4240  -54.3000 H         1 UNK         0.0600 
    220 H220       -3.4904  -24.2917  -51.3739 H         1 UNK         0.3000 
    221 H221       -2.9484  -21.6790  -52.4267 H         1 UNK         0.0600 
    222 H222       -1.5758  -23.2092  -50.1648 H         1 UNK         0.0600 
    223 H223       -1.1914  -23.3691  -51.8818 H         1 UNK         0.0600 
    224 H224       -0.9067  -21.8525  -51.0558 H         1 UNK         0.0600 
    225 H225       -5.2685  -22.2873  -50.2168 H         1 UNK         0.3000 
    226 H226       -4.7130  -20.3513  -48.1412 H         1 UNK         0.0600 
    227 H227       -6.1986  -22.3304  -47.7814 H         1 UNK         0.0600 
    228 H228       -7.0782  -20.8453  -47.4959 H         1 UNK         0.0600 
    229 H229       -7.3187  -21.7294  -48.9976 H         1 UNK         0.0600 
    230 H230       -5.4943  -19.8588  -51.3509 H         1 UNK         0.3000 
    231 H231       -7.6228  -18.0133  -51.2987 H         1 UNK         0.0600 
    232 H232       -7.1203  -17.8207  -53.7174 H         1 UNK         0.0600 
    233 H233       -7.0380  -19.4963  -53.2067 H         1 UNK         0.0600 
    234 H234       -5.5524  -18.5856  -53.4756 H         1 UNK         0.0600 
    235 H235       -5.9328  -16.9362  -49.4429 H         1 UNK         0.3000 
    236 H236       -5.0783  -15.0332  -48.6514 H         1 UNK         0.0600 
    237 H237       -6.2483  -12.9735  -49.3561 H         1 UNK         0.0600 
    238 H238       -7.3789  -14.3141  -49.2878 H         1 UNK         0.0600 
    239 H239       -6.7807  -13.7444  -50.8456 H         1 UNK         0.0600 
    240 H240       -3.2592  -16.2631  -50.3455 H         1 UNK         0.3000 
    241 H241       -1.9972  -14.6217  -52.2120 H         1 UNK         0.0600 
    242 H242       -1.6728  -14.3580  -48.6477 H         1 UNK         0.3800 
    243 H243       -0.3281  -13.2494  -48.7057 H         1 UNK         0.3800 
    244 H244       -0.5533  -16.7062  -50.5136 H         1 UNK         0.0800 
    245 H245       -0.1349  -16.1478  -52.1184 H         1 UNK         0.0800 
    246 H246       -1.0564  -19.9245  -52.6339 H         1 UNK         0.0800 
    247 H247       -0.4991  -18.7536  -53.7945 H         1 UNK         0.0800 
@<TRIPOS>BOND
     1    1    2 1    
     2    1  127 1    
     3    1  128 1    
     4    1  129 1    
     5    2    3 2    
     6    2    4 am   BACKBONE|DICT|INTERRES
     7    4    5 1    
     8    4  130 1    
     9    5    6 1    
    10    5   65 1    
    11    5  131 1    
    12    6    7 1    
    13    6  132 1    
    14    6  133 1    
    15    7    8 1    
    16    8    9 1    
    17    8  134 1    
    18    8  135 1    
    19    9   10 ar   
    20    9   14 ar   
    21   10   11 ar   
    22   10  136 1    
    23   11   12 ar   
    24   11  126 1    
    25   12   13 ar   
    26   12  137 1    
    27   13   14 ar   
    28   13   15 1    
    29   14  138 1    
    30   15   16 1    
    31   15  139 1    
    32   15  140 1    
    33   16   17 1    
    34   17   18 1    
    35   17  141 1    
    36   17  142 1    
    37   18   19 1    
    38   18   67 1    
    39   18  143 1    
    40   19   20 am   BACKBONE|DICT|INTERRES
    41   19  144 1    
    42   20   21 2    
    43   20   22 1    
    44   22   23 1    
    45   22   24 1    
    46   22  145 1    
    47   23  146 1    
    48   23  147 1    
    49   23  148 1    
    50   24   25 am   BACKBONE|DICT|INTERRES
    51   24  149 1    
    52   25   26 2    
    53   25   27 1    
    54   27   28 1    
    55   27   29 1    
    56   27  150 1    
    57   28  151 1    
    58   28  152 1    
    59   28  153 1    
    60   29   30 am   BACKBONE|DICT|INTERRES
    61   29  154 1    
    62   30   31 2    
    63   30   32 1    
    64   32   33 1    
    65   32   34 1    
    66   32  155 1    
    67   33  156 1    
    68   33  157 1    
    69   33  158 1    
    70   34   35 am   BACKBONE|DICT|INTERRES
    71   34  159 1    
    72   35   36 2    
    73   35   37 1    
    74   37   38 1    
    75   37   39 1    
    76   37  160 1    
    77   38  161 1    
    78   38  162 1    
    79   38  163 1    
    80   39   40 am   BACKBONE|DICT|INTERRES
    81   39  164 1    
    82   40   41 2    
    83   40   42 1    
    84   42   43 1    
    85   42   44 1    
    86   42  165 1    
    87   43  166 1    
    88   43  167 1    
    89   43  168 1    
    90   44   45 am   BACKBONE|DICT|INTERRES
    91   44  169 1    
    92   45   46 2    
    93   45   47 1    
    94   47   48 1    
    95   47   49 1    
    96   47  170 1    
    97   48  171 1    
    98   48  172 1    
    99   48  173 1    
   100   49   50 am   BACKBONE|DICT|INTERRES
   101   49  174 1    
   102   50   51 2    
   103   50   52 1    
   104   52   53 1    
   105   52   54 1    
   106   52  175 1    
   107   53  176 1    
   108   53  177 1    
   109   53  178 1    
   110   54   55 am   BACKBONE|DICT|INTERRES
   111   54  179 1    
   112   55   56 2    
   113   55   57 1    
   114   57   58 1    
   115   57   59 1    
   116   57  180 1    
   117   58  181 1    
   118   58  182 1    
   119   58  183 1    
   120   59   60 am   BACKBONE|DICT|INTERRES
   121   59  184 1    
   122   60   61 2    
   123   60   62 1    
   124   62   63 1    
   125   62   64 1    
   126   62  185 1    
   127   63  186 1    
   128   63  187 1    
   129   63  188 1    
   130   64   65 am   BACKBONE|DICT|INTERRES
   131   64  189 1    
   132   65   66 2    
   133   67   68 2    
   134   67   69 am   BACKBONE|DICT|INTERRES
   135   69   70 1    
   136   69  190 1    
   137   70   71 1    
   138   70   72 1    
   139   70  191 1    
   140   71  192 1    
   141   71  193 1    
   142   71  194 1    
   143   72   73 2    
   144   72   74 am   BACKBONE|DICT|INTERRES
   145   74   75 1    
   146   74  195 1    
   147   75   76 1    
   148   75   77 1    
   149   75  196 1    
   150   76  197 1    
   151   76  198 1    
   152   76  199 1    
   153   77   78 2    
   154   77   79 am   BACKBONE|DICT|INTERRES
   155   79   80 1    
   156   79  200 1    
   157   80   81 1    
   158   80   82 1    
   159   80  201 1    
   160   81  202 1    
   161   81  203 1    
   162   81  204 1    
   163   82   83 2    
   164   82   84 am   BACKBONE|DICT|INTERRES
   165   84   85 1    
   166   84  205 1    
   167   85   86 1    
   168   85   87 1    
   169   85  206 1    
   170   86  207 1    
   171   86  208 1    
   172   86  209 1    
   173   87   88 2    
   174   87   89 am   BACKBONE|DICT|INTERRES
   175   89   90 1    
   176   89  210 1    
   177   90   91 1    
   178   90   92 1    
   179   90  211 1    
   180   91  212 1    
   181   91  213 1    
   182   91  214 1    
   183   92   93 2    
   184   92   94 am   BACKBONE|DICT|INTERRES
   185   94   95 1    
   186   94  215 1    
   187   95   96 1    
   188   95   97 1    
   189   95  216 1    
   190   96  217 1    
   191   96  218 1    
   192   96  219 1    
   193   97   98 2    
   194   97   99 am   BACKBONE|DICT|INTERRES
   195   99  100 1    
   196   99  220 1    
   197  100  101 1    
   198  100  102 1    
   199  100  221 1    
   200  101  222 1    
   201  101  223 1    
   202  101  224 1    
   203  102  103 2    
   204  102  104 am   BACKBONE|DICT|INTERRES
   205  104  105 1    
   206  104  225 1    
   207  105  106 1    
   208  105  107 1    
   209  105  226 1    
   210  106  227 1    
   211  106  228 1    
   212  106  229 1    
   213  107  108 2    
   214  107  109 am   BACKBONE|DICT|INTERRES
   215  109  110 1    
   216  109  230 1    
   217  110  111 1    
   218  110  112 1    
   219  110  231 1    
   220  111  232 1    
   221  111  233 1    
   222  111  234 1    
   223  112  113 2    
   224  112  114 am   BACKBONE|DICT|INTERRES
   225  114  115 1    
   226  114  235 1    
   227  115  116 1    
   228  115  117 1    
   229  115  236 1    
   230  116  237 1    
   231  116  238 1    
   232  116  239 1    
   233  117  118 2    
   234  117  119 am   BACKBONE|DICT|INTERRES
   235  119  120 1    
   236  119  240 1    
   237  120  121 1    
   238  120  124 1    
   239  120  241 1    
   240  121  122 am   BACKBONE|DICT|INTERRES
   241  121  123 2    
   242  122  242 1    
   243  122  243 1    
   244  124  125 1    
   245  124  244 1    
   246  124  245 1    
   247  125  126 1    
   248  126  246 1    
   249  126  247 1    
@<TRIPOS>SUBSTRUCTURE
     1 UNK         1 GROUP             0       ****    0 ROOT    
