@<TRIPOS>MOLECULE
3R540
247   249    1
SMALL
USER_CHARGES


@<TRIPOS>ATOM
      1 CA          6.8185  -15.0873  -50.8916 C.3       0 UNK        -0.1800 
      2 C           6.5896  -16.3298  -50.0432 C.2       0 UNK         0.5000 
      3 O           7.5505  -16.9947  -49.6532 O.2       0 UNK        -0.5000 
      4 N           5.3226  -16.6464  -49.7520 N.am      1 UNK        -0.5000 
      5 CA          4.8801  -17.7716  -48.9220 C.3       1 UNK         0.1400 
      6 C6          3.4379  -18.2226  -49.2757 C.3       23 UNK        -0.0398 
      7 S7          2.2100  -16.8754  -49.3979 S.3       23 UNK        -0.2404 
      8 C8          0.6691  -17.8323  -49.3010 C.3       23 UNK        -0.0205 
      9 C9         -0.5440  -16.9227  -49.3891 C.ar      23 UNK        -0.0193 
     10 C10        -1.0877  -16.5879  -50.6327 C.ar      23 UNK        -0.1150 
     11 C11        -2.2087  -15.7558  -50.7174 C.ar      23 UNK        -0.0193 
     12 C12        -2.8007  -15.2795  -49.5445 C.ar      23 UNK        -0.1150 
     13 C13        -2.2651  -15.6084  -48.2956 C.ar      23 UNK        -0.0193 
     14 C14        -1.1258  -16.4152  -48.2252 C.ar      23 UNK        -0.1150 
     15 C15        -2.9135  -15.0827  -47.0254 C.3       23 UNK        -0.0205 
     16 S16        -4.1936  -16.2137  -46.3989 S.3       23 UNK        -0.2404 
     17 C17        -3.1912  -17.4788  -45.5447 C.3       23 UNK        -0.0398 
     18 CA         -2.9168  -18.7387  -46.4018 C.3       11 UNK         0.1400 
     19 N          -1.7481  -19.4695  -45.9018 N.am      11 UNK        -0.5000 
     20 C          -1.1477  -20.5084  -46.4970 C.2       10 UNK         0.5000 
     21 O          -1.5188  -20.9993  -47.5615 O.2       10 UNK        -0.5000 
     22 CA          0.0445  -21.1322  -45.7578 C.3       10 UNK         0.1400 
     23 CB          1.3243  -20.3154  -45.9963 C.3       10 UNK        -0.1800 
     24 N          -0.2311  -21.2372  -44.3257 N.am      10 UNK        -0.5000 
     25 C          -0.9940  -22.1958  -43.7800 C.2       9 UNK         0.5000 
     26 O          -1.4710  -23.1339  -44.4189 O.2       9 UNK        -0.5000 
     27 CA         -1.2968  -22.0782  -42.2734 C.3       9 UNK         0.1400 
     28 CB         -0.2093  -22.7834  -41.4493 C.3       9 UNK        -0.1800 
     29 N          -1.4249  -20.6937  -41.8147 N.am      9 UNK        -0.5000 
     30 C          -2.4068  -19.8579  -42.1805 C.2       8 UNK         0.5000 
     31 O          -3.3274  -20.1721  -42.9343 O.2       8 UNK        -0.5000 
     32 CA         -2.3110  -18.4090  -41.6627 C.3       8 UNK         0.1400 
     33 CB         -2.9600  -18.2872  -40.2765 C.3       8 UNK        -0.1800 
     34 N          -0.9447  -17.8769  -41.6063 N.am      8 UNK        -0.5000 
     35 C          -0.0889  -17.8322  -42.6359 C.2       7 UNK         0.5000 
     36 O          -0.3430  -18.2927  -43.7493 O.2       7 UNK        -0.5000 
     37 CA          1.2582  -17.1431  -42.3734 C.3       7 UNK         0.1400 
     38 CB          2.2988  -17.4676  -43.4614 C.3       7 UNK        -0.1800 
     39 N           1.0466  -15.6982  -42.3062 N.am      7 UNK        -0.5000 
     40 C           0.7973  -15.0143  -41.1798 C.2       6 UNK         0.5000 
     41 O           0.7696  -15.5442  -40.0681 O.2       6 UNK        -0.5000 
     42 CA          0.5160  -13.5014  -41.2899 C.3       6 UNK         0.1400 
     43 CB          1.6231  -12.6765  -40.6169 C.3       6 UNK        -0.1800 
     44 N           0.3709  -13.0472  -42.6727 N.am      6 UNK        -0.5000 
     45 C          -0.8010  -12.9213  -43.3096 C.2       5 UNK         0.5000 
     46 O          -1.8939  -13.1312  -42.7828 O.2       5 UNK        -0.5000 
     47 CA         -0.7467  -12.5089  -44.7947 C.3       5 UNK         0.1400 
     48 CB         -0.8429  -10.9821  -44.9302 C.3       5 UNK        -0.1800 
     49 N           0.4496  -12.9737  -45.5024 N.am      5 UNK        -0.5000 
     50 C           0.8502  -14.2481  -45.6116 C.2       4 UNK         0.5000 
     51 O           0.2331  -15.1983  -45.1336 O.2       4 UNK        -0.5000 
     52 CA          2.1852  -14.5094  -46.3302 C.3       4 UNK         0.1400 
     53 CB          2.5641  -13.4212  -47.3561 C.3       4 UNK        -0.1800 
     54 N           3.2957  -14.7375  -45.4011 N.am      4 UNK        -0.5000 
     55 C           3.7160  -13.9536  -44.3934 C.2       3 UNK         0.5000 
     56 O           3.1309  -12.9301  -44.0350 O.2       3 UNK        -0.5000 
     57 CA          5.0061  -14.3698  -43.6493 C.3       3 UNK         0.1400 
     58 CB          4.7663  -14.5336  -42.1399 C.3       3 UNK        -0.1800 
     59 N           5.6086  -15.6003  -44.1650 N.am      3 UNK        -0.5000 
     60 C           6.3906  -15.6747  -45.2487 C.2       2 UNK         0.5000 
     61 O           6.7219  -14.6956  -45.9194 O.2       2 UNK        -0.5000 
     62 CA          6.8674  -17.0763  -45.6811 C.3       2 UNK         0.1400 
     63 CB          6.5239  -18.2076  -44.6837 C.3       2 UNK        -0.1800 
     64 N           6.3728  -17.4014  -47.0201 N.am      2 UNK        -0.5000 
     65 C           5.0953  -17.4792  -47.4191 C.2       1 UNK         0.5000 
     66 O           4.1343  -17.3118  -46.6657 O.2       1 UNK        -0.5000 
     67 C          -4.1710  -19.6247  -46.5511 C.2       11 UNK         0.5000 
     68 O          -4.9362  -19.4297  -47.4928 O.2       11 UNK        -0.5000 
     69 N          -4.3326  -20.6183  -45.6657 N.am      12 UNK        -0.5000 
     70 CA         -5.3955  -21.6257  -45.7259 C.3       12 UNK         0.1400 
     71 CB         -5.3346  -22.4894  -44.4570 C.3       12 UNK        -0.1800 
     72 C          -5.3427  -22.5171  -46.9853 C.2       12 UNK         0.5000 
     73 O          -6.3809  -23.0242  -47.4091 O.2       12 UNK        -0.5000 
     74 N          -4.1444  -22.6888  -47.5561 N.am      13 UNK        -0.5000 
     75 CA         -3.9033  -23.4402  -48.7862 C.3       13 UNK         0.1400 
     76 CB         -2.6310  -24.2801  -48.5887 C.3       13 UNK        -0.1800 
     77 C          -3.7293  -22.5191  -50.0060 C.2       13 UNK         0.5000 
     78 O          -4.0909  -22.9062  -51.1175 O.2       13 UNK        -0.5000 
     79 N          -3.1558  -21.3309  -49.7710 N.am      14 UNK        -0.5000 
     80 CA         -2.4221  -20.4932  -50.7238 C.3       14 UNK         0.1400 
     81 CB         -3.3032  -19.9686  -51.8692 C.3       14 UNK        -0.1800 
     82 C          -1.1307  -21.2020  -51.1780 C.2       14 UNK         0.5000 
     83 O          -0.8225  -21.2593  -52.3699 O.2       14 UNK        -0.5000 
     84 N          -0.4138  -21.7491  -50.1832 N.am      15 UNK        -0.5000 
     85 CA          0.8419  -22.4939  -50.2806 C.3       15 UNK         0.1400 
     86 CB          2.0093  -21.5147  -50.5262 C.3       15 UNK        -0.1800 
     87 C           0.7597  -23.6538  -51.2955 C.2       15 UNK         0.5000 
     88 O           0.0035  -24.6004  -51.0702 O.2       15 UNK        -0.5000 
     89 N           1.5118  -23.5509  -52.3997 N.am      16 UNK        -0.5000 
     90 CA          1.6060  -24.5375  -53.4790 C.3       16 UNK         0.1400 
     91 CB          2.6883  -24.0803  -54.4693 C.3       16 UNK        -0.1800 
     92 C           0.2826  -24.8198  -54.2199 C.2       16 UNK         0.5000 
     93 O           0.1762  -25.8565  -54.8763 O.2       16 UNK        -0.5000 
     94 N          -0.7059  -23.9220  -54.0949 N.am      17 UNK        -0.5000 
     95 CA         -2.0551  -24.0981  -54.6365 C.3       17 UNK         0.1400 
     96 CB         -2.7372  -22.7299  -54.7195 C.3       17 UNK        -0.1800 
     97 C          -2.9169  -25.1014  -53.8367 C.2       17 UNK         0.5000 
     98 O          -3.9946  -25.4691  -54.3065 O.2       17 UNK        -0.5000 
     99 N          -2.4315  -25.5347  -52.6631 N.am      18 UNK        -0.5000 
    100 CA        -2.9073  -26.6256  -51.8040 C.3       18 UNK         0.1400 
    101 CB        -2.8838  -27.9699  -52.5558 C.3       18 UNK        -0.1800 
    102 C         -4.2663  -26.4116  -51.1099 C.2       18 UNK         0.5000 
    103 O         -4.3933  -26.7801  -49.9416 O.2       18 UNK        -0.5000 
    104 N         -5.2546  -25.8453  -51.8093 N.am      19 UNK        -0.5000 
    105 CA        -6.6164  -25.6552  -51.3051 C.3       19 UNK         0.1400 
    106 CB        -7.4011  -26.9777  -51.4288 C.3       19 UNK        -0.1800 
    107 C         -7.3536  -24.4842  -51.9811 C.2       19 UNK         0.5000 
    108 O         -8.5766  -24.3982  -51.8576 O.2       19 UNK        -0.5000 
    109 N         -6.6306  -23.6049  -52.6894 N.am      20 UNK        -0.5000 
    110 CA        -7.2208  -22.4467  -53.3688 C.3       20 UNK         0.1400 
    111 CB        -6.2799  -21.9593  -54.4778 C.3       20 UNK        -0.1800 
    112 C         -7.5389  -21.3006  -52.3937 C.2       20 UNK         0.5000 
    113 O         -8.5550  -20.6237  -52.5576 O.2       20 UNK        -0.5000 
    114 N         -6.6505  -21.1014  -51.4084 N.am      21 UNK        -0.5000 
    115 CA        -6.7341  -20.1353  -50.3030 C.3       21 UNK         0.1400 
    116 CB        -7.8977  -20.5092  -49.3629 C.3       21 UNK        -0.1800 
    117 C         -6.7934  -18.6455  -50.7189 C.2       21 UNK         0.5000 
    118 O         -7.0813  -17.7952  -49.8755 O.2       21 UNK        -0.5000 
    119 N         -6.5321  -18.3504  -52.0014 N.am      22 UNK        -0.5000 
    120 CA        -6.6197  -17.0181  -52.6271 C.3       22 UNK         0.1400 
    121 C         -8.0476  -16.3866  -52.5915 C.2       22 UNK         0.5000 
    122 N         -9.1086  -17.1821  -52.5083 N.am      22 UNK        -0.7600 
    123 O         -8.2068  -15.1715  -52.6750 O.2       22 UNK        -0.5000 
    124 C124       -5.4901  -16.0571  -52.1542 C.3       23 UNK        -0.0398 
    125 S125       -3.8640  -16.5969  -52.7809 S.3       23 UNK        -0.2404 
    126 C126       -2.7507  -15.3440  -52.0780 C.3       23 UNK        -0.0205 
    127 H127        7.4224  -14.3649  -50.3423 H         1 UNK         0.0600 
    128 H128        5.8797  -14.6062  -51.1673 H         1 UNK         0.0600 
    129 H129        7.3479  -15.3504  -51.8073 H         1 UNK         0.0600 
    130 H130        4.5748  -16.0515  -50.0814 H         1 UNK         0.3000 
    131 H131        5.5237  -18.6242  -49.1504 H         1 UNK         0.0600 
    132 H132        3.0894  -18.9653  -48.5567 H         1 UNK         0.0800 
    133 H133        3.4538  -18.7300  -50.2411 H         1 UNK         0.0800 
    134 H134        0.6458  -18.3934  -48.3658 H         1 UNK         0.0800 
    135 H135        0.6444  -18.5678  -50.1067 H         1 UNK         0.0800 
    136 H136       -0.6307  -16.9650  -51.5369 H         1 UNK         0.1150 
    137 H137       -3.6737  -14.6448  -49.6032 H         1 UNK         0.1150 
    138 H138       -0.7031  -16.6654  -47.2617 H         1 UNK         0.1150 
    139 H139       -2.1606  -14.9213  -46.2560 H         1 UNK         0.0800 
    140 H140       -3.3663  -14.1090  -47.2176 H         1 UNK         0.0800 
    141 H141       -3.6941  -17.7494  -44.6154 H         1 UNK         0.0800 
    142 H142       -2.2498  -17.0179  -45.2414 H         1 UNK         0.0800 
    143 H143       -2.6594  -18.4208  -47.4121 H         1 UNK         0.0600 
    144 H144       -1.3298  -19.1100  -45.0460 H         1 UNK         0.3000 
    145 H145        0.2072  -22.1341  -46.1615 H         1 UNK         0.0600 
    146 H146        2.1668  -20.7275  -45.4410 H         1 UNK         0.0600 
    147 H147        1.2075  -19.2720  -45.7021 H         1 UNK         0.0600 
    148 H148        1.5963  -20.3268  -47.0520 H         1 UNK         0.0600 
    149 H149        0.0599  -20.4571  -43.7521 H         1 UNK         0.3000 
    150 H150       -2.2473  -22.5834  -42.0884 H         1 UNK         0.0600 
    151 H151       -0.1051  -23.8263  -41.7519 H         1 UNK         0.0600 
    152 H152       -0.4535  -22.7779  -40.3868 H         1 UNK         0.0600 
    153 H153        0.7638  -22.3067  -41.5737 H         1 UNK         0.0600 
    154 H154       -0.7051  -20.3481  -41.1973 H         1 UNK         0.3000 
    155 H155       -2.8727  -17.7785  -42.3538 H         1 UNK         0.0600 
    156 H156       -3.9868  -18.6553  -40.2917 H         1 UNK         0.0600 
    157 H157       -2.9939  -17.2486  -39.9466 H         1 UNK         0.0600 
    158 H158       -2.4161  -18.8610  -39.5251 H         1 UNK         0.0600 
    159 H159       -0.6606  -17.4530  -40.7332 H         1 UNK         0.3000 
    160 H160        1.6496  -17.5160  -41.4247 H         1 UNK         0.0600 
    161 H161        3.2608  -17.0124  -43.2382 H         1 UNK         0.0600 
    162 H162        2.4640  -18.5432  -43.5329 H         1 UNK         0.0600 
    163 H163        1.9842  -17.1228  -44.4465 H         1 UNK         0.0600 
    164 H164        0.9218  -15.2352  -43.1994 H         1 UNK         0.3000 
    165 H165       -0.4081  -13.3165  -40.7385 H         1 UNK         0.0600 
    166 H166        1.3395  -11.6260  -40.5505 H         1 UNK         0.0600 
    167 H167        1.8188  -13.0236  -39.6014 H         1 UNK         0.0600 
    168 H168        2.5566  -12.7302  -41.1728 H         1 UNK         0.0600 
    169 H169        1.2290  -12.8684  -43.1856 H         1 UNK         0.3000 
    170 H170       -1.6167  -12.9441  -45.2862 H         1 UNK         0.0600 
    171 H171        0.0191  -10.4842  -44.4843 H         1 UNK         0.0600 
    172 H172       -0.9019  -10.6811  -45.9763 H         1 UNK         0.0600 
    173 H173       -1.7360  -10.6007  -44.4332 H         1 UNK         0.0600 
    174 H174        1.0485  -12.2571  -45.8855 H         1 UNK         0.3000 
    175 H175        2.0490  -15.4435  -46.8747 H         1 UNK         0.0600 
    176 H176        2.8124  -12.4716  -46.8813 H         1 UNK         0.0600 
    177 H177        3.4296  -13.7316  -47.9420 H         1 UNK         0.0600 
    178 H178        1.7491  -13.2438  -48.0592 H         1 UNK         0.0600 
    179 H179        3.8138  -15.5902  -45.5861 H         1 UNK         0.3000 
    180 H180        5.7228  -13.5563  -43.7799 H         1 UNK         0.0600 
    181 H181        5.6457  -14.9392  -41.6391 H         1 UNK         0.0600 
    182 H182        3.9241  -15.1902  -41.9237 H         1 UNK         0.0600 
    183 H183        4.5625  -13.5681  -41.6794 H         1 UNK         0.0600 
    184 H184        5.3745  -16.4560  -43.6836 H         1 UNK         0.3000 
    185 H185        7.9542  -17.0199  -45.7558 H         1 UNK         0.0600 
    186 H186        6.9328  -19.1590  -45.0241 H         1 UNK         0.0600 
    187 H187        6.9549  -18.0108  -43.7012 H         1 UNK         0.0600 
    188 H188        5.4490  -18.3419  -44.5571 H         1 UNK         0.0600 
    189 H189        7.0792  -17.4580  -47.7473 H         1 UNK         0.3000 
    190 H190       -3.7095  -20.6633  -44.8658 H         1 UNK         0.3000 
    191 H191       -6.3524  -21.1000  -45.7385 H         1 UNK         0.0600 
    192 H192       -5.4741  -21.8843  -43.5610 H         1 UNK         0.0600 
    193 H193       -4.3770  -23.0040  -44.3678 H         1 UNK         0.0600 
    194 H194       -6.1180  -23.2485  -44.4605 H         1 UNK         0.0600 
    195 H195       -3.3432  -22.2385  -47.1340 H         1 UNK         0.3000 
    196 H196       -4.7343  -24.1163  -48.9950 H         1 UNK         0.0600 
    197 H197       -2.7881  -25.0573  -47.8408 H         1 UNK         0.0600 
    198 H198       -1.7858  -23.6720  -48.2653 H         1 UNK         0.0600 
    199 H199       -2.3341  -24.7739  -49.5132 H         1 UNK         0.0600 
    200 H200       -2.9092  -21.1376  -48.8060 H         1 UNK         0.3000 
    201 H201       -2.0889  -19.6193  -50.1616 H         1 UNK         0.0600 
    202 H202       -4.0562  -19.2928  -51.4739 H         1 UNK         0.0600 
    203 H203       -3.8120  -20.7568  -52.4159 H         1 UNK         0.0600 
    204 H204       -2.7126  -19.4009  -52.5888 H         1 UNK         0.0600 
    205 H205       -0.7801  -21.6428  -49.2425 H         1 UNK         0.3000 
    206 H206        1.0017  -22.9585  -49.3065 H         1 UNK         0.0600 
    207 H207        1.8879  -20.9483  -51.4504 H         1 UNK         0.0600 
    208 H208        2.0767  -20.7989  -49.7089 H         1 UNK         0.0600 
    209 H209        2.9658  -22.0371  -50.5708 H         1 UNK         0.0600 
    210 H210        2.0686  -22.7166  -52.5134 H         1 UNK         0.3000 
    211 H211        1.9280  -25.4803  -53.0323 H         1 UNK         0.0600 
    212 H212        2.4334  -23.1243  -54.9286 H         1 UNK         0.0600 
    213 H213        2.8169  -24.8065  -55.2731 H         1 UNK         0.0600 
    214 H214        3.6546  -23.9706  -53.9767 H         1 UNK         0.0600 
    215 H215       -0.5479  -23.0900  -53.5366 H         1 UNK         0.3000 
    216 H216       -1.9654  -24.4873  -55.6528 H         1 UNK         0.0600 
    217 H217       -3.6601  -22.7976  -55.2937 H         1 UNK         0.0600 
    218 H218       -2.1028  -21.9930  -55.2124 H         1 UNK         0.0600 
    219 H219       -2.9819  -22.3555  -53.7276 H         1 UNK         0.0600 
    220 H220       -1.5699  -25.1076  -52.3395 H         1 UNK         0.3000 
    221 H221       -2.1660  -26.6963  -51.0065 H         1 UNK         0.0600 
    222 H222       -3.6059  -27.9930  -53.3725 H         1 UNK         0.0600 
    223 H223       -1.8972  -28.1701  -52.9739 H         1 UNK         0.0600 
    224 H224       -3.1263  -28.7950  -51.8849 H         1 UNK         0.0600 
    225 H225       -5.0719  -25.6063  -52.7810 H         1 UNK         0.3000 
    226 H226       -6.5632  -25.3878  -50.2477 H         1 UNK         0.0600 
    227 H227       -6.9118  -27.7846  -50.8831 H         1 UNK         0.0600 
    228 H228       -8.4075  -26.8838  -51.0193 H         1 UNK         0.0600 
    229 H229       -7.4955  -27.2875  -52.4701 H         1 UNK         0.0600 
    230 H230       -5.6215  -23.6751  -52.6763 H         1 UNK         0.3000 
    231 H231       -8.1569  -22.7540  -53.8404 H         1 UNK         0.0600 
    232 H232       -6.7306  -21.1391  -55.0380 H         1 UNK         0.0600 
    233 H233       -6.0647  -22.7574  -55.1885 H         1 UNK         0.0600 
    234 H234       -5.3358  -21.5970  -54.0730 H         1 UNK         0.0600 
    235 H235       -5.8381  -21.7074  -51.3890 H         1 UNK         0.3000 
    236 H236       -5.8066  -20.2539  -49.7459 H         1 UNK         0.0600 
    237 H237       -8.8666  -20.2996  -49.8170 H         1 UNK         0.0600 
    238 H238       -7.8730  -21.5670  -49.1036 H         1 UNK         0.0600 
    239 H239       -7.8417  -19.9462  -48.4304 H         1 UNK         0.0600 
    240 H240       -6.3190  -19.1136  -52.6249 H         1 UNK         0.3000 
    241 H241       -6.4584  -17.1933  -53.6914 H         1 UNK         0.0600 
    242 H242       -8.9953  -18.1849  -52.4562 H         1 UNK         0.3800 
    243 H243      -10.0325  -16.7795  -52.4964 H         1 UNK         0.3800 
    244 H244       -5.4619  -15.9859  -51.0663 H         1 UNK         0.0800 
    245 H245       -5.6539  -15.0447  -52.5260 H         1 UNK         0.0800 
    246 H246       -3.2603  -14.3813  -52.0161 H         1 UNK         0.0800 
    247 H247       -1.9169  -15.1972  -52.7661 H         1 UNK         0.0800 
@<TRIPOS>BOND
     1    1    2 1    
     2    1  127 1    
     3    1  128 1    
     4    1  129 1    
     5    2    3 2    
     6    2    4 am   BACKBONE|DICT|INTERRES
     7    4    5 1    
     8    4  130 1    
     9    5    6 1    
    10    5   65 1    
    11    5  131 1    
    12    6    7 1    
    13    6  132 1    
    14    6  133 1    
    15    7    8 1    
    16    8    9 1    
    17    8  134 1    
    18    8  135 1    
    19    9   10 ar   
    20    9   14 ar   
    21   10   11 ar   
    22   10  136 1    
    23   11   12 ar   
    24   11  126 1    
    25   12   13 ar   
    26   12  137 1    
    27   13   14 ar   
    28   13   15 1    
    29   14  138 1    
    30   15   16 1    
    31   15  139 1    
    32   15  140 1    
    33   16   17 1    
    34   17   18 1    
    35   17  141 1    
    36   17  142 1    
    37   18   19 1    
    38   18   67 1    
    39   18  143 1    
    40   19   20 am   BACKBONE|DICT|INTERRES
    41   19  144 1    
    42   20   21 2    
    43   20   22 1    
    44   22   23 1    
    45   22   24 1    
    46   22  145 1    
    47   23  146 1    
    48   23  147 1    
    49   23  148 1    
    50   24   25 am   BACKBONE|DICT|INTERRES
    51   24  149 1    
    52   25   26 2    
    53   25   27 1    
    54   27   28 1    
    55   27   29 1    
    56   27  150 1    
    57   28  151 1    
    58   28  152 1    
    59   28  153 1    
    60   29   30 am   BACKBONE|DICT|INTERRES
    61   29  154 1    
    62   30   31 2    
    63   30   32 1    
    64   32   33 1    
    65   32   34 1    
    66   32  155 1    
    67   33  156 1    
    68   33  157 1    
    69   33  158 1    
    70   34   35 am   BACKBONE|DICT|INTERRES
    71   34  159 1    
    72   35   36 2    
    73   35   37 1    
    74   37   38 1    
    75   37   39 1    
    76   37  160 1    
    77   38  161 1    
    78   38  162 1    
    79   38  163 1    
    80   39   40 am   BACKBONE|DICT|INTERRES
    81   39  164 1    
    82   40   41 2    
    83   40   42 1    
    84   42   43 1    
    85   42   44 1    
    86   42  165 1    
    87   43  166 1    
    88   43  167 1    
    89   43  168 1    
    90   44   45 am   BACKBONE|DICT|INTERRES
    91   44  169 1    
    92   45   46 2    
    93   45   47 1    
    94   47   48 1    
    95   47   49 1    
    96   47  170 1    
    97   48  171 1    
    98   48  172 1    
    99   48  173 1    
   100   49   50 am   BACKBONE|DICT|INTERRES
   101   49  174 1    
   102   50   51 2    
   103   50   52 1    
   104   52   53 1    
   105   52   54 1    
   106   52  175 1    
   107   53  176 1    
   108   53  177 1    
   109   53  178 1    
   110   54   55 am   BACKBONE|DICT|INTERRES
   111   54  179 1    
   112   55   56 2    
   113   55   57 1    
   114   57   58 1    
   115   57   59 1    
   116   57  180 1    
   117   58  181 1    
   118   58  182 1    
   119   58  183 1    
   120   59   60 am   BACKBONE|DICT|INTERRES
   121   59  184 1    
   122   60   61 2    
   123   60   62 1    
   124   62   63 1    
   125   62   64 1    
   126   62  185 1    
   127   63  186 1    
   128   63  187 1    
   129   63  188 1    
   130   64   65 am   BACKBONE|DICT|INTERRES
   131   64  189 1    
   132   65   66 2    
   133   67   68 2    
   134   67   69 am   BACKBONE|DICT|INTERRES
   135   69   70 1    
   136   69  190 1    
   137   70   71 1    
   138   70   72 1    
   139   70  191 1    
   140   71  192 1    
   141   71  193 1    
   142   71  194 1    
   143   72   73 2    
   144   72   74 am   BACKBONE|DICT|INTERRES
   145   74   75 1    
   146   74  195 1    
   147   75   76 1    
   148   75   77 1    
   149   75  196 1    
   150   76  197 1    
   151   76  198 1    
   152   76  199 1    
   153   77   78 2    
   154   77   79 am   BACKBONE|DICT|INTERRES
   155   79   80 1    
   156   79  200 1    
   157   80   81 1    
   158   80   82 1    
   159   80  201 1    
   160   81  202 1    
   161   81  203 1    
   162   81  204 1    
   163   82   83 2    
   164   82   84 am   BACKBONE|DICT|INTERRES
   165   84   85 1    
   166   84  205 1    
   167   85   86 1    
   168   85   87 1    
   169   85  206 1    
   170   86  207 1    
   171   86  208 1    
   172   86  209 1    
   173   87   88 2    
   174   87   89 am   BACKBONE|DICT|INTERRES
   175   89   90 1    
   176   89  210 1    
   177   90   91 1    
   178   90   92 1    
   179   90  211 1    
   180   91  212 1    
   181   91  213 1    
   182   91  214 1    
   183   92   93 2    
   184   92   94 am   BACKBONE|DICT|INTERRES
   185   94   95 1    
   186   94  215 1    
   187   95   96 1    
   188   95   97 1    
   189   95  216 1    
   190   96  217 1    
   191   96  218 1    
   192   96  219 1    
   193   97   98 2    
   194   97   99 am   BACKBONE|DICT|INTERRES
   195   99  100 1    
   196   99  220 1    
   197  100  101 1    
   198  100  102 1    
   199  100  221 1    
   200  101  222 1    
   201  101  223 1    
   202  101  224 1    
   203  102  103 2    
   204  102  104 am   BACKBONE|DICT|INTERRES
   205  104  105 1    
   206  104  225 1    
   207  105  106 1    
   208  105  107 1    
   209  105  226 1    
   210  106  227 1    
   211  106  228 1    
   212  106  229 1    
   213  107  108 2    
   214  107  109 am   BACKBONE|DICT|INTERRES
   215  109  110 1    
   216  109  230 1    
   217  110  111 1    
   218  110  112 1    
   219  110  231 1    
   220  111  232 1    
   221  111  233 1    
   222  111  234 1    
   223  112  113 2    
   224  112  114 am   BACKBONE|DICT|INTERRES
   225  114  115 1    
   226  114  235 1    
   227  115  116 1    
   228  115  117 1    
   229  115  236 1    
   230  116  237 1    
   231  116  238 1    
   232  116  239 1    
   233  117  118 2    
   234  117  119 am   BACKBONE|DICT|INTERRES
   235  119  120 1    
   236  119  240 1    
   237  120  121 1    
   238  120  124 1    
   239  120  241 1    
   240  121  122 am   BACKBONE|DICT|INTERRES
   241  121  123 2    
   242  122  242 1    
   243  122  243 1    
   244  124  125 1    
   245  124  244 1    
   246  124  245 1    
   247  125  126 1    
   248  126  246 1    
   249  126  247 1    
@<TRIPOS>SUBSTRUCTURE
     1 UNK         1 GROUP             0       ****    0 ROOT    
