@<TRIPOS>MOLECULE
3R540
247   249    1
SMALL
USER_CHARGES


@<TRIPOS>ATOM
      1 CA          3.1974  -11.6679  -51.8930 C.3       0 UNK        -0.1800 
      2 C           3.2676  -12.3218  -50.5210 C.2       0 UNK         0.5000 
      3 O           2.2956  -12.9449  -50.0941 O.2       0 UNK        -0.5000 
      4 N           4.4130  -12.1840  -49.8382 N.am      1 UNK        -0.5000 
      5 CA          4.7545  -12.7179  -48.5099 C.3       1 UNK         0.1400 
      6 C6          4.6994  -14.2665  -48.4075 C.3       23 UNK        -0.0398 
      7 S7          6.1023  -15.0769  -49.2425 S.3       23 UNK        -0.2404 
      8 C8          5.4312  -15.4467  -50.8937 C.3       23 UNK        -0.0205 
      9 C9          4.2832  -16.4470  -50.8700 C.ar      23 UNK        -0.0193 
     10 C10         3.0203  -16.0749  -51.3392 C.ar      23 UNK        -0.1150 
     11 C11         1.9770  -17.0028  -51.3938 C.ar      23 UNK        -0.0193 
     12 C12         2.2119  -18.3165  -50.9816 C.ar      23 UNK        -0.1150 
     13 C13         3.4572  -18.6955  -50.4694 C.ar      23 UNK        -0.0193 
     14 C14         4.4914  -17.7556  -50.4238 C.ar      23 UNK        -0.1150 
     15 C15         3.6951  -20.1210  -49.9862 C.3       23 UNK        -0.0205 
     16 S16         2.9908  -20.4114  -48.3284 S.3       23 UNK        -0.2404 
     17 C17         1.2153  -20.5336  -48.7219 C.3       23 UNK        -0.0398 
     18 CA          0.4575  -21.5672  -47.8608 C.3       11 UNK         0.1400 
     19 N           0.3755  -21.1918  -46.4470 N.am      11 UNK        -0.5000 
     20 C          -0.1599  -21.9572  -45.4842 C.2       10 UNK         0.5000 
     21 O          -0.5614  -23.1073  -45.6639 O.2       10 UNK        -0.5000 
     22 CA         -0.3478  -21.3018  -44.1062 C.3       10 UNK         0.1400 
     23 CB          0.9452  -21.3485  -43.2804 C.3       10 UNK        -0.1800 
     24 N          -0.8236  -19.9234  -44.2310 N.am      10 UNK        -0.5000 
     25 C          -2.0610  -19.5994  -44.6342 C.2       9 UNK         0.5000 
     26 O          -2.9419  -20.4286  -44.8567 O.2       9 UNK        -0.5000 
     27 CA         -2.3607  -18.1097  -44.8709 C.3       9 UNK         0.1400 
     28 CB         -2.9767  -17.4714  -43.6187 C.3       9 UNK        -0.1800 
     29 N          -1.1762  -17.3642  -45.3069 N.am      9 UNK        -0.5000 
     30 C          -0.6805  -17.4625  -46.5485 C.2       8 UNK         0.5000 
     31 O          -1.1608  -18.2027  -47.4068 O.2       8 UNK        -0.5000 
     32 CA          0.5742  -16.6371  -46.8886 C.3       8 UNK         0.1400 
     33 CB          0.1867  -15.2032  -47.2754 C.3       8 UNK        -0.1800 
     34 N           1.6108  -16.6046  -45.8511 N.am      8 UNK        -0.5000 
     35 C           2.1987  -17.6899  -45.3274 C.2       7 UNK         0.5000 
     36 O           1.7782  -18.8356  -45.4856 O.2       7 UNK        -0.5000 
     37 CA          3.4876  -17.4808  -44.5218 C.3       7 UNK         0.1400 
     38 CB          4.4230  -16.4156  -45.1270 C.3       7 UNK        -0.1800 
     39 N           3.1924  -17.1907  -43.1221 N.am      7 UNK        -0.5000 
     40 C           4.0420  -17.4485  -42.1153 C.2       6 UNK         0.5000 
     41 O           5.1625  -17.9333  -42.2817 O.2       6 UNK        -0.5000 
     42 CA          3.5900  -17.1268  -40.6765 C.3       6 UNK         0.1400 
     43 CB          4.2730  -15.8519  -40.1630 C.3       6 UNK        -0.1800 
     44 N           2.1397  -16.9910  -40.5486 N.am      6 UNK        -0.5000 
     45 C           1.2990  -18.0352  -40.5332 C.2       5 UNK         0.5000 
     46 O           1.6797  -19.2056  -40.5365 O.2       5 UNK        -0.5000 
     47 CA         -0.2153  -17.7472  -40.5196 C.3       5 UNK         0.1400 
     48 CB         -0.8230  -18.1077  -39.1553 C.3       5 UNK        -0.1800 
     49 N          -0.5812  -16.3669  -40.8447 N.am      5 UNK        -0.5000 
     50 C          -0.3878  -15.7614  -42.0230 C.2       4 UNK         0.5000 
     51 O           0.1641  -16.3046  -42.9825 O.2       4 UNK        -0.5000 
     52 CA         -0.8893  -14.3084  -42.1630 C.3       4 UNK         0.1400 
     53 CB         -1.6114  -13.7598  -40.9119 C.3       4 UNK        -0.1800 
     54 N           0.1861  -13.4000  -42.5623 N.am      4 UNK        -0.5000 
     55 C           1.3729  -13.2324  -41.9604 C.2       3 UNK         0.5000 
     56 O           1.7014  -13.8231  -40.9297 O.2       3 UNK        -0.5000 
     57 CA          2.3474  -12.2182  -42.5997 C.3       3 UNK         0.1400 
     58 CB          3.8061  -12.7182  -42.5732 C.3       3 UNK        -0.1800 
     59 N           1.9825  -11.7751  -43.9534 N.am      3 UNK        -0.5000 
     60 C           1.9328  -12.5159  -45.0703 C.2       2 UNK         0.5000 
     61 O           2.0908  -13.7383  -45.0905 O.2       2 UNK        -0.5000 
     62 CA          1.6516  -11.7764  -46.3977 C.3       2 UNK         0.1400 
     63 CB          1.5711  -10.2380  -46.2747 C.3       2 UNK        -0.1800 
     64 N           2.6198  -12.1585  -47.4269 N.am      2 UNK        -0.5000 
     65 C           3.9548  -12.0637  -47.3644 C.2       1 UNK         0.5000 
     66 O           4.5652  -11.5038  -46.4523 O.2       1 UNK        -0.5000 
     67 C          -0.9410  -21.8145  -48.4591 C.2       11 UNK         0.5000 
     68 O          -1.1414  -22.8422  -49.1033 O.2       11 UNK        -0.5000 
     69 N          -1.8844  -20.8934  -48.2118 N.am      12 UNK        -0.5000 
     70 CA         -3.2775  -21.0027  -48.6448 C.3       12 UNK         0.1400 
     71 CB         -4.0335  -19.7137  -48.2954 C.3       12 UNK        -0.1800 
     72 C          -3.9886  -22.2304  -48.0485 C.2       12 UNK         0.5000 
     73 O          -4.6623  -22.9505  -48.7831 O.2       12 UNK        -0.5000 
     74 N          -3.7995  -22.4747  -46.7434 N.am      13 UNK        -0.5000 
     75 CA         -4.3195  -23.6471  -46.0377 C.3       13 UNK         0.1400 
     76 CB         -4.0116  -23.5368  -44.5371 C.3       13 UNK        -0.1800 
     77 C          -3.7860  -24.9701  -46.6152 C.2       13 UNK         0.5000 
     78 O          -4.5795  -25.8747  -46.8815 O.2       13 UNK        -0.5000 
     79 N          -2.4648  -25.0340  -46.8417 N.am      14 UNK        -0.5000 
     80 CA         -1.7771  -26.1631  -47.4713 C.3       14 UNK         0.1400 
     81 CB         -0.2584  -25.9421  -47.4081 C.3       14 UNK        -0.1800 
     82 C          -2.2345  -26.4119  -48.9206 C.2       14 UNK         0.5000 
     83 O          -2.4094  -27.5664  -49.3129 O.2       14 UNK        -0.5000 
     84 N          -2.4811  -25.3318  -49.6729 N.am      15 UNK        -0.5000 
     85 CA         -3.0411  -25.3286  -51.0252 C.3       15 UNK         0.1400 
     86 CB         -2.6643  -24.0087  -51.7183 C.3       15 UNK        -0.1800 
     87 C          -4.5647  -25.5845  -51.0404 C.2       15 UNK         0.5000 
     88 O          -5.3122  -24.8262  -51.6608 O.2       15 UNK        -0.5000 
     89 N          -4.9894  -26.6572  -50.3570 N.am      16 UNK        -0.5000 
     90 CA         -6.3468  -27.2061  -50.2824 C.3       16 UNK         0.1400 
     91 CB         -6.6771  -27.9524  -51.5906 C.3       16 UNK        -0.1800 
     92 C          -7.4227  -26.1731  -49.8834 C.2       16 UNK         0.5000 
     93 O          -8.4999  -26.1447  -50.4815 O.2       16 UNK        -0.5000 
     94 N          -7.0999  -25.3478  -48.8759 N.am      17 UNK        -0.5000 
     95 CA         -7.9146  -24.2500  -48.3444 C.3       17 UNK         0.1400 
     96 CB         -9.1801  -24.7897  -47.6451 C.3       17 UNK        -0.1800 
     97 C          -8.2140  -23.1739  -49.4100 C.2       17 UNK         0.5000 
     98 O          -9.3759  -22.8884  -49.7062 O.2       17 UNK        -0.5000 
     99 N          -7.1328  -22.5979  -49.9498 N.am      18 UNK        -0.5000 
    100 CA        -7.0778  -21.5195  -50.9366 C.3       18 UNK         0.1400 
    101 CB        -7.6724  -20.2176  -50.3580 C.3       18 UNK        -0.1800 
    102 C         -7.6976  -21.9142  -52.2899 C.2       18 UNK         0.5000 
    103 O         -8.5112  -21.1680  -52.8412 O.2       18 UNK        -0.5000 
    104 N         -7.2889  -23.0730  -52.8247 N.am      19 UNK        -0.5000 
    105 CA        -7.6502  -23.5482  -54.1616 C.3       19 UNK         0.1400 
    106 CB        -7.4157  -25.0655  -54.2423 C.3       19 UNK        -0.1800 
    107 C         -6.8750  -22.7670  -55.2428 C.2       19 UNK         0.5000 
    108 O         -5.9333  -23.2915  -55.8411 O.2       19 UNK        -0.5000 
    109 N         -7.2634  -21.4976  -55.4234 N.am      20 UNK        -0.5000 
    110 CA        -6.6909  -20.4538  -56.2806 C.3       20 UNK         0.1400 
    111 CB        -6.6780  -20.8671  -57.7650 C.3       20 UNK        -0.1800 
    112 C         -5.3074  -19.9649  -55.8126 C.2       20 UNK         0.5000 
    113 O         -5.1285  -18.7615  -55.6160 O.2       20 UNK        -0.5000 
    114 N         -4.3648  -20.8967  -55.6246 N.am      21 UNK        -0.5000 
    115 CA        -2.9985  -20.6606  -55.1608 C.3       21 UNK         0.1400 
    116 CB        -2.2198  -21.9840  -55.1948 C.3       21 UNK        -0.1800 
    117 C         -2.9725  -20.0180  -53.7610 C.2       21 UNK         0.5000 
    118 O         -3.3193  -20.6712  -52.7754 O.2       21 UNK        -0.5000 
    119 N         -2.5986  -18.7336  -53.7232 N.am      22 UNK        -0.5000 
    120 CA        -2.6264  -17.8575  -52.5415 C.3       22 UNK         0.1400 
    121 C         -4.0574  -17.5541  -51.9921 C.2       22 UNK         0.5000 
    122 N         -5.1127  -17.7257  -52.7813 N.am      22 UNK        -0.7600 
    123 O         -4.2206  -17.1254  -50.8541 O.2       22 UNK        -0.5000 
    124 C124       -1.5957  -18.2872  -51.4538 C.3       23 UNK        -0.0398 
    125 S125       -0.7299  -16.8538  -50.7230 S.3       23 UNK        -0.2404 
    126 C126        0.6127  -16.5883  -51.9303 C.3       23 UNK        -0.0205 
    127 H127        2.3889  -10.9373  -51.9188 H         1 UNK         0.0600 
    128 H128        3.0021  -12.4212  -52.6563 H         1 UNK         0.0600 
    129 H129        4.1264  -11.1576  -52.1485 H         1 UNK         0.0600 
    130 H130        5.1491  -11.6343  -50.2592 H         1 UNK         0.3000 
    131 H131        5.7913  -12.4195  -48.3438 H         1 UNK         0.0600 
    132 H132        4.7617  -14.5726  -47.3629 H         1 UNK         0.0800 
    133 H133        3.7529  -14.6670  -48.7711 H         1 UNK         0.0800 
    134 H134        5.1302  -14.5163  -51.3756 H         1 UNK         0.0800 
    135 H135        6.2338  -15.8559  -51.5085 H         1 UNK         0.0800 
    136 H136        2.8528  -15.0644  -51.6825 H         1 UNK         0.1150 
    137 H137        1.4130  -19.0368  -51.0528 H         1 UNK         0.1150 
    138 H138        5.4649  -18.0426  -50.0514 H         1 UNK         0.1150 
    139 H139        3.2833  -20.8337  -50.7021 H         1 UNK         0.0800 
    140 H140        4.7658  -20.3264  -49.9444 H         1 UNK         0.0800 
    141 H141        1.1244  -20.8173  -49.7712 H         1 UNK         0.0800 
    142 H142        0.7704  -19.5422  -48.6293 H         1 UNK         0.0800 
    143 H143        1.0001  -22.5136  -47.9125 H         1 UNK         0.0600 
    144 H144        0.7398  -20.2761  -46.1962 H         1 UNK         0.3000 
    145 H145       -1.1041  -21.8769  -43.5677 H         1 UNK         0.0600 
    146 H146        0.7726  -20.9822  -42.2695 H         1 UNK         0.0600 
    147 H147        1.3144  -22.3711  -43.1938 H         1 UNK         0.0600 
    148 H148        1.7409  -20.7506  -43.7238 H         1 UNK         0.0600 
    149 H149       -0.1301  -19.1918  -44.1540 H         1 UNK         0.3000 
    150 H150       -3.1080  -18.0437  -45.6641 H         1 UNK         0.0600 
    151 H151       -3.9631  -17.8928  -43.4219 H         1 UNK         0.0600 
    152 H152       -3.1012  -16.3951  -43.7368 H         1 UNK         0.0600 
    153 H153       -2.3725  -17.6543  -42.7328 H         1 UNK         0.0600 
    154 H154       -0.6805  -16.8122  -44.6118 H         1 UNK         0.3000 
    155 H155        1.0272  -17.1016  -47.7674 H         1 UNK         0.0600 
    156 H156       -0.5777  -15.1991  -48.0534 H         1 UNK         0.0600 
    157 H157       -0.2087  -14.6515  -46.4220 H         1 UNK         0.0600 
    158 H158        1.0458  -14.6581  -47.6660 H         1 UNK         0.0600 
    159 H159        1.9598  -15.6845  -45.5985 H         1 UNK         0.3000 
    160 H160        4.0149  -18.4364  -44.5700 H         1 UNK         0.0600 
    161 H161        4.0340  -15.4067  -45.0013 H         1 UNK         0.0600 
    162 H162        4.5691  -16.5928  -46.1930 H         1 UNK         0.0600 
    163 H163        5.4078  -16.4461  -44.6611 H         1 UNK         0.0600 
    164 H164        2.2668  -16.8255  -42.9243 H         1 UNK         0.3000 
    165 H165        3.9168  -17.9523  -40.0404 H         1 UNK         0.0600 
    166 H166        3.9550  -15.6100  -39.1489 H         1 UNK         0.0600 
    167 H167        5.3570  -15.9706  -40.1461 H         1 UNK         0.0600 
    168 H168        4.0503  -14.9984  -40.7994 H         1 UNK         0.0600 
    169 H169        1.7663  -16.0490  -40.5533 H         1 UNK         0.3000 
    170 H170       -0.6625  -18.3989  -41.2725 H         1 UNK         0.0600 
    171 H171       -0.4265  -17.4754  -38.3599 H         1 UNK         0.0600 
    172 H172       -1.9076  -17.9977  -39.1646 H         1 UNK         0.0600 
    173 H173       -0.6066  -19.1435  -38.8901 H         1 UNK         0.0600 
    174 H174       -1.0163  -15.8362  -40.1041 H         1 UNK         0.3000 
    175 H175       -1.6080  -14.3168  -42.9835 H         1 UNK         0.0600 
    176 H176       -1.9832  -12.7510  -41.0918 H         1 UNK         0.0600 
    177 H177       -0.9538  -13.7148  -40.0428 H         1 UNK         0.0600 
    178 H178       -2.4751  -14.3728  -40.6509 H         1 UNK         0.0600 
    179 H179        0.0358  -12.8939  -43.4220 H         1 UNK         0.3000 
    180 H180        2.2977  -11.3259  -41.9744 H         1 UNK         0.0600 
    181 H181        4.1688  -12.8031  -41.5488 H         1 UNK         0.0600 
    182 H182        4.4715  -12.0276  -43.0915 H         1 UNK         0.0600 
    183 H183        3.9073  -13.6970  -43.0437 H         1 UNK         0.0600 
    184 H184        1.8213  -10.7822  -44.0489 H         1 UNK         0.3000 
    185 H185        0.6802  -12.1315  -46.7437 H         1 UNK         0.0600 
    186 H186        0.7634   -9.9346  -45.6077 H         1 UNK         0.0600 
    187 H187        2.4989   -9.8051  -45.8987 H         1 UNK         0.0600 
    188 H188        1.3676   -9.7830  -47.2443 H         1 UNK         0.0600 
    189 H189        2.2368  -12.6040  -48.2574 H         1 UNK         0.3000 
    190 H190       -1.6268  -20.0393  -47.7240 H         1 UNK         0.3000 
    191 H191       -3.2767  -21.1102  -49.7317 H         1 UNK         0.0600 
    192 H192       -3.5374  -18.8355  -48.7081 H         1 UNK         0.0600 
    193 H193       -5.0426  -19.7345  -48.7043 H         1 UNK         0.0600 
    194 H194       -4.1191  -19.5738  -47.2183 H         1 UNK         0.0600 
    195 H195       -3.2746  -21.8065  -46.1865 H         1 UNK         0.3000 
    196 H196       -5.4041  -23.6478  -46.1554 H         1 UNK         0.0600 
    197 H197       -4.3995  -24.3994  -43.9941 H         1 UNK         0.0600 
    198 H198       -4.4720  -22.6480  -44.1055 H         1 UNK         0.0600 
    199 H199       -2.9398  -23.4834  -44.3467 H         1 UNK         0.0600 
    200 H200       -1.8830  -24.2463  -46.5700 H         1 UNK         0.3000 
    201 H201       -2.0141  -27.0581  -46.8925 H         1 UNK         0.0600 
    202 H202        0.0829  -25.8468  -46.3771 H         1 UNK         0.0600 
    203 H203        0.0401  -25.0398  -47.9425 H         1 UNK         0.0600 
    204 H204        0.2781  -26.7811  -47.8528 H         1 UNK         0.0600 
    205 H205       -2.2731  -24.4172  -49.2821 H         1 UNK         0.3000 
    206 H206       -2.5791  -26.1396  -51.5915 H         1 UNK         0.0600 
    207 H207       -1.5838  -23.8692  -51.7500 H         1 UNK         0.0600 
    208 H208       -3.0250  -23.9967  -52.7458 H         1 UNK         0.0600 
    209 H209       -3.0991  -23.1484  -51.2083 H         1 UNK         0.0600 
    210 H210       -4.2756  -27.1878  -49.8677 H         1 UNK         0.3000 
    211 H211       -6.3327  -27.9446  -49.4796 H         1 UNK         0.0600 
    212 H212       -6.6842  -27.2789  -52.4465 H         1 UNK         0.0600 
    213 H213       -7.6553  -28.4317  -51.5379 H         1 UNK         0.0600 
    214 H214       -5.9457  -28.7354  -51.7906 H         1 UNK         0.0600 
    215 H215       -6.1777  -25.4459  -48.4674 H         1 UNK         0.3000 
    216 H216       -7.3090  -23.7614  -47.5808 H         1 UNK         0.0600 
    217 H217       -9.7307  -23.9814  -47.1625 H         1 UNK         0.0600 
    218 H218       -8.9237  -25.5142  -46.8723 H         1 UNK         0.0600 
    219 H219       -9.8611  -25.2735  -48.3457 H         1 UNK         0.0600 
    220 H220       -6.2205  -22.9202  -49.6267 H         1 UNK         0.3000 
    221 H221       -6.0180  -21.3398  -51.1263 H         1 UNK         0.0600 
    222 H222       -8.7538  -20.2847  -50.2356 H         1 UNK         0.0600 
    223 H223       -7.2446  -19.9810  -49.3850 H         1 UNK         0.0600 
    224 H224       -7.4698  -19.3729  -51.0173 H         1 UNK         0.0600 
    225 H225       -6.6050  -23.6364  -52.3217 H         1 UNK         0.3000 
    226 H226       -8.7161  -23.3736  -54.3228 H         1 UNK         0.0600 
    227 H227       -8.0108  -25.5907  -53.4952 H         1 UNK         0.0600 
    228 H228       -7.7035  -25.4534  -55.2200 H         1 UNK         0.0600 
    229 H229       -6.3684  -25.3234  -54.0821 H         1 UNK         0.0600 
    230 H230       -7.9836  -21.1690  -54.7868 H         1 UNK         0.3000 
    231 H231       -7.3677  -19.6027  -56.1905 H         1 UNK         0.0600 
    232 H232       -6.0025  -21.7012  -57.9559 H         1 UNK         0.0600 
    233 H233       -6.3524  -20.0376  -58.3938 H         1 UNK         0.0600 
    234 H234       -7.6731  -21.1582  -58.1010 H         1 UNK         0.0600 
    235 H235       -4.6408  -21.8646  -55.7629 H         1 UNK         0.3000 
    236 H236       -2.5217  -19.9785  -55.8677 H         1 UNK         0.0600 
    237 H237       -2.1141  -22.3508  -56.2159 H         1 UNK         0.0600 
    238 H238       -1.2162  -21.8621  -54.7856 H         1 UNK         0.0600 
    239 H239       -2.7226  -22.7573  -54.6161 H         1 UNK         0.0600 
    240 H240       -2.3767  -18.2738  -54.5948 H         1 UNK         0.3000 
    241 H241       -2.3003  -16.8968  -52.9411 H         1 UNK         0.0600 
    242 H242       -5.0046  -18.0505  -53.7361 H         1 UNK         0.3800 
    243 H243       -6.0298  -17.5055  -52.4288 H         1 UNK         0.3800 
    244 H244       -2.0741  -18.8610  -50.6591 H         1 UNK         0.0800 
    245 H245       -0.8436  -18.9552  -51.8744 H         1 UNK         0.0800 
    246 H246        0.4112  -17.1288  -52.8560 H         1 UNK         0.0800 
    247 H247        0.6169  -15.5299  -52.1952 H         1 UNK         0.0800 
@<TRIPOS>BOND
     1    1    2 1    
     2    1  127 1    
     3    1  128 1    
     4    1  129 1    
     5    2    3 2    
     6    2    4 am   BACKBONE|DICT|INTERRES
     7    4    5 1    
     8    4  130 1    
     9    5    6 1    
    10    5   65 1    
    11    5  131 1    
    12    6    7 1    
    13    6  132 1    
    14    6  133 1    
    15    7    8 1    
    16    8    9 1    
    17    8  134 1    
    18    8  135 1    
    19    9   10 ar   
    20    9   14 ar   
    21   10   11 ar   
    22   10  136 1    
    23   11   12 ar   
    24   11  126 1    
    25   12   13 ar   
    26   12  137 1    
    27   13   14 ar   
    28   13   15 1    
    29   14  138 1    
    30   15   16 1    
    31   15  139 1    
    32   15  140 1    
    33   16   17 1    
    34   17   18 1    
    35   17  141 1    
    36   17  142 1    
    37   18   19 1    
    38   18   67 1    
    39   18  143 1    
    40   19   20 am   BACKBONE|DICT|INTERRES
    41   19  144 1    
    42   20   21 2    
    43   20   22 1    
    44   22   23 1    
    45   22   24 1    
    46   22  145 1    
    47   23  146 1    
    48   23  147 1    
    49   23  148 1    
    50   24   25 am   BACKBONE|DICT|INTERRES
    51   24  149 1    
    52   25   26 2    
    53   25   27 1    
    54   27   28 1    
    55   27   29 1    
    56   27  150 1    
    57   28  151 1    
    58   28  152 1    
    59   28  153 1    
    60   29   30 am   BACKBONE|DICT|INTERRES
    61   29  154 1    
    62   30   31 2    
    63   30   32 1    
    64   32   33 1    
    65   32   34 1    
    66   32  155 1    
    67   33  156 1    
    68   33  157 1    
    69   33  158 1    
    70   34   35 am   BACKBONE|DICT|INTERRES
    71   34  159 1    
    72   35   36 2    
    73   35   37 1    
    74   37   38 1    
    75   37   39 1    
    76   37  160 1    
    77   38  161 1    
    78   38  162 1    
    79   38  163 1    
    80   39   40 am   BACKBONE|DICT|INTERRES
    81   39  164 1    
    82   40   41 2    
    83   40   42 1    
    84   42   43 1    
    85   42   44 1    
    86   42  165 1    
    87   43  166 1    
    88   43  167 1    
    89   43  168 1    
    90   44   45 am   BACKBONE|DICT|INTERRES
    91   44  169 1    
    92   45   46 2    
    93   45   47 1    
    94   47   48 1    
    95   47   49 1    
    96   47  170 1    
    97   48  171 1    
    98   48  172 1    
    99   48  173 1    
   100   49   50 am   BACKBONE|DICT|INTERRES
   101   49  174 1    
   102   50   51 2    
   103   50   52 1    
   104   52   53 1    
   105   52   54 1    
   106   52  175 1    
   107   53  176 1    
   108   53  177 1    
   109   53  178 1    
   110   54   55 am   BACKBONE|DICT|INTERRES
   111   54  179 1    
   112   55   56 2    
   113   55   57 1    
   114   57   58 1    
   115   57   59 1    
   116   57  180 1    
   117   58  181 1    
   118   58  182 1    
   119   58  183 1    
   120   59   60 am   BACKBONE|DICT|INTERRES
   121   59  184 1    
   122   60   61 2    
   123   60   62 1    
   124   62   63 1    
   125   62   64 1    
   126   62  185 1    
   127   63  186 1    
   128   63  187 1    
   129   63  188 1    
   130   64   65 am   BACKBONE|DICT|INTERRES
   131   64  189 1    
   132   65   66 2    
   133   67   68 2    
   134   67   69 am   BACKBONE|DICT|INTERRES
   135   69   70 1    
   136   69  190 1    
   137   70   71 1    
   138   70   72 1    
   139   70  191 1    
   140   71  192 1    
   141   71  193 1    
   142   71  194 1    
   143   72   73 2    
   144   72   74 am   BACKBONE|DICT|INTERRES
   145   74   75 1    
   146   74  195 1    
   147   75   76 1    
   148   75   77 1    
   149   75  196 1    
   150   76  197 1    
   151   76  198 1    
   152   76  199 1    
   153   77   78 2    
   154   77   79 am   BACKBONE|DICT|INTERRES
   155   79   80 1    
   156   79  200 1    
   157   80   81 1    
   158   80   82 1    
   159   80  201 1    
   160   81  202 1    
   161   81  203 1    
   162   81  204 1    
   163   82   83 2    
   164   82   84 am   BACKBONE|DICT|INTERRES
   165   84   85 1    
   166   84  205 1    
   167   85   86 1    
   168   85   87 1    
   169   85  206 1    
   170   86  207 1    
   171   86  208 1    
   172   86  209 1    
   173   87   88 2    
   174   87   89 am   BACKBONE|DICT|INTERRES
   175   89   90 1    
   176   89  210 1    
   177   90   91 1    
   178   90   92 1    
   179   90  211 1    
   180   91  212 1    
   181   91  213 1    
   182   91  214 1    
   183   92   93 2    
   184   92   94 am   BACKBONE|DICT|INTERRES
   185   94   95 1    
   186   94  215 1    
   187   95   96 1    
   188   95   97 1    
   189   95  216 1    
   190   96  217 1    
   191   96  218 1    
   192   96  219 1    
   193   97   98 2    
   194   97   99 am   BACKBONE|DICT|INTERRES
   195   99  100 1    
   196   99  220 1    
   197  100  101 1    
   198  100  102 1    
   199  100  221 1    
   200  101  222 1    
   201  101  223 1    
   202  101  224 1    
   203  102  103 2    
   204  102  104 am   BACKBONE|DICT|INTERRES
   205  104  105 1    
   206  104  225 1    
   207  105  106 1    
   208  105  107 1    
   209  105  226 1    
   210  106  227 1    
   211  106  228 1    
   212  106  229 1    
   213  107  108 2    
   214  107  109 am   BACKBONE|DICT|INTERRES
   215  109  110 1    
   216  109  230 1    
   217  110  111 1    
   218  110  112 1    
   219  110  231 1    
   220  111  232 1    
   221  111  233 1    
   222  111  234 1    
   223  112  113 2    
   224  112  114 am   BACKBONE|DICT|INTERRES
   225  114  115 1    
   226  114  235 1    
   227  115  116 1    
   228  115  117 1    
   229  115  236 1    
   230  116  237 1    
   231  116  238 1    
   232  116  239 1    
   233  117  118 2    
   234  117  119 am   BACKBONE|DICT|INTERRES
   235  119  120 1    
   236  119  240 1    
   237  120  121 1    
   238  120  124 1    
   239  120  241 1    
   240  121  122 am   BACKBONE|DICT|INTERRES
   241  121  123 2    
   242  122  242 1    
   243  122  243 1    
   244  124  125 1    
   245  124  244 1    
   246  124  245 1    
   247  125  126 1    
   248  126  246 1    
   249  126  247 1    
@<TRIPOS>SUBSTRUCTURE
     1 UNK         1 GROUP             0       ****    0 ROOT    
