@<TRIPOS>MOLECULE
3R540
247   249    1
SMALL
USER_CHARGES


@<TRIPOS>ATOM
      1 CA          4.8035  -19.5877  -45.0631 C.3       0 UNK        -0.1800 
      2 C           4.6077  -18.4839  -46.0933 C.2       0 UNK         0.5000 
      3 O           4.9489  -18.6741  -47.2596 O.2       0 UNK        -0.5000 
      4 N           4.0458  -17.3517  -45.6549 N.am      1 UNK        -0.5000 
      5 CA          3.7545  -16.1284  -46.4034 C.3       1 UNK         0.1400 
      6 C6          3.0063  -16.3689  -47.7379 C.3       23 UNK        -0.0398 
      7 S7          2.0954  -14.8995  -48.3258 S.3       23 UNK        -0.2404 
      8 C8          1.7161  -15.3965  -50.0371 C.3       23 UNK        -0.0205 
      9 C9          0.8445  -16.6416  -50.0667 C.ar      23 UNK        -0.0193 
     10 C10        -0.5348  -16.5370  -49.8707 C.ar      23 UNK        -0.1150 
     11 C11        -1.3323  -17.6827  -49.8118 C.ar      23 UNK        -0.0193 
     12 C12        -0.7341  -18.9393  -49.9507 C.ar      23 UNK        -0.1150 
     13 C13         0.6412  -19.0563  -50.1713 C.ar      23 UNK        -0.0193 
     14 C14         1.4232  -17.9017  -50.2426 C.ar      23 UNK        -0.1150 
     15 C15         1.2830  -20.4294  -50.3152 C.3       23 UNK        -0.0205 
     16 S16         2.4270  -20.8348  -48.9486 S.3       23 UNK        -0.2404 
     17 C17         1.3913  -20.6277  -47.4583 C.3       23 UNK        -0.0398 
     18 CA          0.7223  -21.9385  -46.9803 C.3       11 UNK         0.1400 
     19 N           0.3139  -21.8617  -45.5741 N.am      11 UNK        -0.5000 
     20 C          -0.2147  -22.8737  -44.8690 C.2       10 UNK         0.5000 
     21 O          -0.3388  -24.0200  -45.2978 O.2       10 UNK        -0.5000 
     22 CA         -0.7671  -22.5264  -43.4776 C.3       10 UNK         0.1400 
     23 CB          0.3515  -22.5166  -42.4255 C.3       10 UNK        -0.1800 
     24 N          -1.4605  -21.2370  -43.4943 N.am      10 UNK        -0.5000 
     25 C          -2.6511  -21.0401  -44.0813 C.2       9 UNK         0.5000 
     26 O          -3.3135  -21.9442  -44.5909 O.2       9 UNK        -0.5000 
     27 CA         -3.1709  -19.5896  -44.1440 C.3       9 UNK         0.1400 
     28 CB         -3.9773  -19.2508  -42.8818 C.3       9 UNK        -0.1800 
     29 N          -2.0991  -18.6050  -44.3112 N.am      9 UNK        -0.5000 
     30 C          -1.3373  -18.4916  -45.4091 C.2       8 UNK         0.5000 
     31 O          -1.5075  -19.1675  -46.4203 O.2       8 UNK        -0.5000 
     32 CA         -0.1479  -17.5124  -45.3460 C.3       8 UNK         0.1400 
     33 CB         -0.5332  -16.1500  -45.9325 C.3       8 UNK        -0.1800 
     34 N           0.3812  -17.3436  -43.9879 N.am      8 UNK        -0.5000 
     35 C           0.9687  -18.3327  -43.2975 C.2       7 UNK         0.5000 
     36 O           1.1481  -19.4579  -43.7691 O.2       7 UNK        -0.5000 
     37 CA          1.3666  -18.0309  -41.8362 C.3       7 UNK         0.1400 
     38 CB          2.3507  -19.0688  -41.2572 C.3       7 UNK        -0.1800 
     39 N           1.8683  -16.6692  -41.6242 N.am      7 UNK        -0.5000 
     40 C           2.9604  -16.1152  -42.1664 C.2       6 UNK         0.5000 
     41 O           3.6778  -16.6895  -42.9853 O.2       6 UNK        -0.5000 
     42 CA          3.2986  -14.6796  -41.7130 C.3       6 UNK         0.1400 
     43 CB          4.4829  -14.0752  -42.4886 C.3       6 UNK        -0.1800 
     44 N           2.1481  -13.7794  -41.8206 N.am      6 UNK        -0.5000 
     45 C           1.1710  -13.6607  -40.9093 C.2       5 UNK         0.5000 
     46 O           1.1100  -14.3582  -39.8961 O.2       5 UNK        -0.5000 
     47 CA          0.0739  -12.6067  -41.1609 C.3       5 UNK         0.1400 
     48 CB          0.3185  -11.3656  -40.2889 C.3       5 UNK        -0.1800 
     49 N          -0.0259  -12.1846  -42.5576 N.am      5 UNK        -0.5000 
     50 C          -0.5059  -12.9381  -43.5561 C.2       4 UNK         0.5000 
     51 O          -0.9504  -14.0750  -43.3978 O.2       4 UNK        -0.5000 
     52 CA         -0.4350  -12.3249  -44.9712 C.3       4 UNK         0.1400 
     53 CB         -1.7394  -11.5865  -45.3047 C.3       4 UNK        -0.1800 
     54 N           0.7008  -11.4098  -45.1461 N.am      4 UNK        -0.5000 
     55 C           1.9813  -11.7935  -45.0759 C.2       3 UNK         0.5000 
     56 O           2.3256  -12.9667  -44.8933 O.2       3 UNK        -0.5000 
     57 CA          3.0538  -10.6898  -45.1628 C.3       3 UNK         0.1400 
     58 CB          3.0828   -9.8672  -43.8642 C.3       3 UNK        -0.1800 
     59 N           4.3499  -11.3396  -45.3294 N.am      3 UNK        -0.5000 
     60 C           4.9147  -11.6012  -46.5127 C.2       2 UNK         0.5000 
     61 O           4.6726  -10.9915  -47.5545 O.2       2 UNK        -0.5000 
     62 CA          5.7716  -12.8699  -46.5421 C.3       2 UNK         0.1400 
     63 CB          6.9214  -12.8486  -45.5162 C.3       2 UNK        -0.1800 
     64 N           4.8434  -13.9641  -46.2770 N.am      2 UNK        -0.5000 
     65 C           5.0087  -15.2499  -46.5896 C.2       1 UNK         0.5000 
     66 O           6.0575  -15.7194  -47.0357 O.2       1 UNK        -0.5000 
     67 C          -0.4586  -22.3383  -47.8902 C.2       11 UNK         0.5000 
     68 O          -0.3089  -23.2393  -48.7141 O.2       11 UNK        -0.5000 
     69 N          -1.6208  -21.6991  -47.6906 N.am      12 UNK        -0.5000 
     70 CA         -2.8675  -21.9657  -48.4096 C.3       12 UNK         0.1400 
     71 CB         -3.9540  -20.9887  -47.9395 C.3       12 UNK        -0.1800 
     72 C          -3.3528  -23.4178  -48.2745 C.2       12 UNK         0.5000 
     73 O          -3.8325  -23.9852  -49.2561 O.2       12 UNK        -0.5000 
     74 N          -3.1951  -23.9956  -47.0776 N.am      13 UNK        -0.5000 
     75 CA         -3.4846  -25.3992  -46.8028 C.3       13 UNK         0.1400 
     76 CB         -3.5932  -25.6105  -45.2846 C.3       13 UNK        -0.1800 
     77 C          -2.4321  -26.3382  -47.4207 C.2       13 UNK         0.5000 
     78 O          -2.8019  -27.3072  -48.0839 O.2       13 UNK        -0.5000 
     79 N          -1.1456  -26.0353  -47.1962 N.am      14 UNK        -0.5000 
     80 CA         -0.0055  -26.8556  -47.6113 C.3       14 UNK         0.1400 
     81 CB          1.2740  -26.3260  -46.9455 C.3       14 UNK        -0.1800 
     82 C           0.1777  -26.9399  -49.1366 C.2       14 UNK         0.5000 
     83 O           0.3951  -28.0322  -49.6626 O.2       14 UNK        -0.5000 
     84 N           0.0844  -25.7919  -49.8187 N.am      15 UNK        -0.5000 
     85 CA          0.2352  -25.6773  -51.2712 C.3       15 UNK         0.1400 
     86 CB          0.7639  -24.2710  -51.6021 C.3       15 UNK        -0.1800 
     87 C          -1.0788  -25.9415  -52.0306 C.2       15 UNK         0.5000 
     88 O          -1.0553  -26.0085  -53.2596 O.2       15 UNK        -0.5000 
     89 N          -2.1984  -26.0356  -51.2961 N.am      16 UNK        -0.5000 
     90 CA         -3.5850  -26.1164  -51.7739 C.3       16 UNK         0.1400 
     91 CB         -3.8220  -27.3819  -52.6229 C.3       16 UNK        -0.1800 
     92 C          -4.0654  -24.8286  -52.4791 C.2       16 UNK         0.5000 
     93 O          -5.0979  -24.8427  -53.1509 O.2       16 UNK        -0.5000 
     94 N          -3.3437  -23.7166  -52.2731 N.am      17 UNK        -0.5000 
     95 CA         -3.6459  -22.3880  -52.8078 C.3       17 UNK         0.1400 
     96 CB         -2.4237  -21.4771  -52.6236 C.3       17 UNK        -0.1800 
     97 C          -4.9282  -21.7595  -52.2228 C.2       17 UNK         0.5000 
     98 O          -5.4373  -20.7932  -52.7908 O.2       17 UNK        -0.5000 
     99 N          -5.4770  -22.3520  -51.1510 N.am      18 UNK        -0.5000 
    100 CA        -6.8222  -22.0813  -50.6406 C.3       18 UNK         0.1400 
    101 CB        -7.0743  -22.9335  -49.3863 C.3       18 UNK        -0.1800 
    102 C         -7.9237  -22.3484  -51.6872 C.2       18 UNK         0.5000 
    103 O         -8.8943  -21.5939  -51.7455 O.2       18 UNK        -0.5000 
    104 N         -7.7359  -23.3819  -52.5239 N.am      19 UNK        -0.5000 
    105 CA        -8.6378  -23.7243  -53.6276 C.3       19 UNK         0.1400 
    106 CB        -8.3753  -25.1717  -54.0703 C.3       19 UNK        -0.1800 
    107 C         -8.5045  -22.7593  -54.8218 C.2       19 UNK         0.5000 
    108 O         -9.4718  -22.5688  -55.5592 O.2       19 UNK        -0.5000 
    109 N         -7.3208  -22.1493  -54.9746 N.am      20 UNK        -0.5000 
    110 CA        -7.0362  -21.0990  -55.9555 C.3       20 UNK         0.1400 
    111 CB        -5.5291  -21.0971  -56.2611 C.3       20 UNK        -0.1800 
    112 C         -7.5008  -19.7036  -55.4859 C.2       20 UNK         0.5000 
    113 O         -7.4916  -18.7701  -56.2892 O.2       20 UNK        -0.5000 
    114 N         -7.8959  -19.5922  -54.2079 N.am      21 UNK        -0.5000 
    115 CA        -8.3526  -18.3941  -53.5030 C.3       21 UNK         0.1400 
    116 CB        -9.6823  -17.8799  -54.0940 C.3       21 UNK        -0.1800 
    117 C         -7.2566  -17.3133  -53.4221 C.2       21 UNK         0.5000 
    118 O         -7.4671  -16.1792  -53.8573 O.2       21 UNK        -0.5000 
    119 N         -6.0978  -17.6939  -52.8667 N.am      22 UNK        -0.5000 
    120 CA        -4.9365  -16.8115  -52.6464 C.3       22 UNK         0.1400 
    121 C         -5.1609  -15.6015  -51.6877 C.2       22 UNK         0.5000 
    122 N         -6.1943  -15.5923  -50.8542 N.am      22 UNK        -0.7600 
    123 O         -4.3828  -14.6518  -51.7069 O.2       22 UNK        -0.5000 
    124 C124       -3.6740  -17.6176  -52.2472 C.3       23 UNK        -0.0398 
    125 S125       -3.8533  -18.5448  -50.6803 S.3       23 UNK        -0.2404 
    126 C126       -2.8268  -17.5534  -49.5435 C.3       23 UNK        -0.0205 
    127 H127        4.3139  -20.5032  -45.3956 H         1 UNK         0.0600 
    128 H128        4.3843  -19.3148  -44.0940 H         1 UNK         0.0600 
    129 H129        5.8653  -19.7947  -44.9303 H         1 UNK         0.0600 
    130 H130        3.8672  -17.2620  -44.6546 H         1 UNK         0.3000 
    131 H131        3.0703  -15.5903  -45.7440 H         1 UNK         0.0600 
    132 H132        2.2796  -17.1715  -47.6090 H         1 UNK         0.0800 
    133 H133        3.6942  -16.7042  -48.5160 H         1 UNK         0.0800 
    134 H134        1.2044  -14.5759  -50.5419 H         1 UNK         0.0800 
    135 H135        2.6452  -15.5625  -50.5845 H         1 UNK         0.0800 
    136 H136       -0.9800  -15.5618  -49.7312 H         1 UNK         0.1150 
    137 H137       -1.3434  -19.8269  -49.8782 H         1 UNK         0.1150 
    138 H138        2.4900  -17.9901  -50.3932 H         1 UNK         0.1150 
    139 H139        0.5211  -21.2051  -50.3934 H         1 UNK         0.0800 
    140 H140        1.8378  -20.4619  -51.2537 H         1 UNK         0.0800 
    141 H141        2.0555  -20.2566  -46.6769 H         1 UNK         0.0800 
    142 H142        0.6615  -19.8347  -47.6112 H         1 UNK         0.0800 
    143 H143        1.4640  -22.7378  -47.0396 H         1 UNK         0.0600 
    144 H144        0.4061  -20.9613  -45.1187 H         1 UNK         0.3000 
    145 H145       -1.4860  -23.2994  -43.1966 H         1 UNK         0.0600 
    146 H146       -0.0264  -22.2244  -41.4457 H         1 UNK         0.0600 
    147 H147        0.7902  -23.5097  -42.3222 H         1 UNK         0.0600 
    148 H148        1.1581  -21.8355  -42.6943 H         1 UNK         0.0600 
    149 H149       -0.9496  -20.4420  -43.1404 H         1 UNK         0.3000 
    150 H150       -3.8372  -19.5141  -45.0060 H         1 UNK         0.0600 
    151 H151       -4.7982  -19.9557  -42.7430 H         1 UNK         0.0600 
    152 H152       -4.4143  -18.2543  -42.9488 H         1 UNK         0.0600 
    153 H153       -3.3579  -19.2873  -41.9848 H         1 UNK         0.0600 
    154 H154       -1.9047  -18.0016  -43.5261 H         1 UNK         0.3000 
    155 H155        0.6518  -17.9272  -45.9623 H         1 UNK         0.0600 
    156 H156        0.2993  -15.4492  -45.8749 H         1 UNK         0.0600 
    157 H157       -1.3855  -15.7129  -45.4125 H         1 UNK         0.0600 
    158 H158       -0.8065  -16.2449  -46.9837 H         1 UNK         0.0600 
    159 H159        0.2531  -16.4399  -43.5527 H         1 UNK         0.3000 
    160 H160        0.4446  -18.1026  -41.2580 H         1 UNK         0.0600 
    161 H161        3.2735  -19.1208  -41.8353 H         1 UNK         0.0600 
    162 H162        1.9114  -20.0662  -41.2530 H         1 UNK         0.0600 
    163 H163        2.6140  -18.8307  -40.2268 H         1 UNK         0.0600 
    164 H164        1.3540  -16.1027  -40.9578 H         1 UNK         0.3000 
    165 H165        3.5983  -14.7425  -40.6648 H         1 UNK         0.0600 
    166 H166        4.2901  -14.0524  -43.5592 H         1 UNK         0.0600 
    167 H167        4.6956  -13.0578  -42.1602 H         1 UNK         0.0600 
    168 H168        5.3897  -14.6616  -42.3353 H         1 UNK         0.0600 
    169 H169        2.0832  -13.2429  -42.6754 H         1 UNK         0.3000 
    170 H170       -0.8800  -13.0499  -40.8669 H         1 UNK         0.0600 
    171 H171        0.3694  -11.6329  -39.2325 H         1 UNK         0.0600 
    172 H172        1.2554  -10.8702  -40.5476 H         1 UNK         0.0600 
    173 H173       -0.4876  -10.6401  -40.3996 H         1 UNK         0.0600 
    174 H174        0.3141  -11.2603  -42.7766 H         1 UNK         0.3000 
    175 H175       -0.3179  -13.1444  -45.6824 H         1 UNK         0.0600 
    176 H176       -1.9032  -10.7366  -44.6409 H         1 UNK         0.0600 
    177 H177       -1.7320  -11.2166  -46.3301 H         1 UNK         0.0600 
    178 H178       -2.5992  -12.2507  -45.2067 H         1 UNK         0.0600 
    179 H179        0.4808  -10.4358  -45.2986 H         1 UNK         0.3000 
    180 H180        2.8314  -10.0352  -46.0080 H         1 UNK         0.0600 
    181 H181        3.2458  -10.4971  -42.9883 H         1 UNK         0.0600 
    182 H182        2.1449   -9.3311  -43.7147 H         1 UNK         0.0600 
    183 H183        3.8783   -9.1222  -43.8908 H         1 UNK         0.0600 
    184 H184        4.6219  -11.9286  -44.5562 H         1 UNK         0.3000 
    185 H185        6.1861  -12.9811  -47.5462 H         1 UNK         0.0600 
    186 H186        7.5545  -13.7298  -45.6202 H         1 UNK         0.0600 
    187 H187        7.5570  -11.9747  -45.6631 H         1 UNK         0.0600 
    188 H188        6.5580  -12.8251  -44.4886 H         1 UNK         0.0600 
    189 H189        3.9319  -13.6686  -45.9370 H         1 UNK         0.3000 
    190 H190       -1.6373  -20.9169  -47.0405 H         1 UNK         0.3000 
    191 H191       -2.6764  -21.7787  -49.4645 H         1 UNK         0.0600 
    192 H192       -4.7993  -20.9884  -48.6261 H         1 UNK         0.0600 
    193 H193       -3.5811  -19.9683  -47.8994 H         1 UNK         0.0600 
    194 H194       -4.3317  -21.2413  -46.9491 H         1 UNK         0.0600 
    195 H195       -2.8174  -23.4443  -46.3176 H         1 UNK         0.3000 
    196 H196       -4.4529  -25.6435  -47.2453 H         1 UNK         0.0600 
    197 H197       -3.8326  -26.6487  -45.0514 H         1 UNK         0.0600 
    198 H198       -4.3814  -24.9902  -44.8575 H         1 UNK         0.0600 
    199 H199       -2.6629  -25.3646  -44.7719 H         1 UNK         0.0600 
    200 H200       -0.9265  -25.2232  -46.6240 H         1 UNK         0.3000 
    201 H201       -0.1787  -27.8697  -47.2452 H         1 UNK         0.0600 
    202 H202        1.1952  -26.3601  -45.8588 H         1 UNK         0.0600 
    203 H203        1.4787  -25.2941  -47.2332 H         1 UNK         0.0600 
    204 H204        2.1405  -26.9253  -47.2276 H         1 UNK         0.0600 
    205 H205       -0.0874  -24.9227  -49.3135 H         1 UNK         0.3000 
    206 H206        0.9711  -26.4061  -51.6170 H         1 UNK         0.0600 
    207 H207        1.6771  -24.0494  -51.0492 H         1 UNK         0.0600 
    208 H208        0.9964  -24.1802  -52.6638 H         1 UNK         0.0600 
    209 H209        0.0323  -23.4989  -51.3624 H         1 UNK         0.0600 
    210 H210       -2.0960  -25.9729  -50.2921 H         1 UNK         0.3000 
    211 H211       -4.1993  -26.2095  -50.8772 H         1 UNK         0.0600 
    212 H212       -3.3173  -27.3271  -53.5875 H         1 UNK         0.0600 
    213 H213       -4.8849  -27.5232  -52.8222 H         1 UNK         0.0600 
    214 H214       -3.4683  -28.2746  -52.1071 H         1 UNK         0.0600 
    215 H215       -2.5428  -23.7902  -51.6644 H         1 UNK         0.3000 
    216 H216       -3.8148  -22.5015  -53.8803 H         1 UNK         0.0600 
    217 H217       -2.5882  -20.5077  -53.0928 H         1 UNK         0.0600 
    218 H218       -1.5360  -21.9095  -53.0855 H         1 UNK         0.0600 
    219 H219       -2.1995  -21.2976  -51.5747 H         1 UNK         0.0600 
    220 H220       -4.9703  -23.1122  -50.7101 H         1 UNK         0.3000 
    221 H221       -6.8703  -21.0264  -50.3627 H         1 UNK         0.0600 
    222 H222       -6.9807  -23.9992  -49.5996 H         1 UNK         0.0600 
    223 H223       -6.3741  -22.6936  -48.5879 H         1 UNK         0.0600 
    224 H224       -8.0777  -22.7638  -48.9937 H         1 UNK         0.0600 
    225 H225       -6.8890  -23.9345  -52.4488 H         1 UNK         0.3000 
    226 H226       -9.6660  -23.6633  -53.2645 H         1 UNK         0.0600 
    227 H227       -8.4790  -25.8659  -53.2363 H         1 UNK         0.0600 
    228 H228       -9.0861  -25.4779  -54.8389 H         1 UNK         0.0600 
    229 H229       -7.3744  -25.2922  -54.4857 H         1 UNK         0.0600 
    230 H230       -6.5880  -22.3534  -54.3111 H         1 UNK         0.3000 
    231 H231       -7.5678  -21.3272  -56.8817 H         1 UNK         0.0600 
    232 H232       -5.2975  -20.3979  -57.0654 H         1 UNK         0.0600 
    233 H233       -5.1876  -22.0821  -56.5800 H         1 UNK         0.0600 
    234 H234       -4.9391  -20.7993  -55.3946 H         1 UNK         0.0600 
    235 H235       -7.8226  -20.4215  -53.6354 H         1 UNK         0.3000 
    236 H236       -8.5531  -18.7041  -52.4763 H         1 UNK         0.0600 
    237 H237      -10.4385  -18.6649  -54.1008 H         1 UNK         0.0600 
    238 H238      -10.0772  -17.0541  -53.5011 H         1 UNK         0.0600 
    239 H239       -9.5643  -17.5194  -55.1161 H         1 UNK         0.0600 
    240 H240       -5.9779  -18.6600  -52.5837 H         1 UNK         0.3000 
    241 H241       -4.7208  -16.3630  -53.6180 H         1 UNK         0.0600 
    242 H242       -6.8313  -16.3711  -50.8208 H         1 UNK         0.3800 
    243 H243       -6.3332  -14.8026  -50.2441 H         1 UNK         0.3800 
    244 H244       -3.4485  -18.3367  -53.0344 H         1 UNK         0.0800 
    245 H245       -2.8007  -16.9651  -52.1950 H         1 UNK         0.0800 
    246 H246       -3.0185  -17.8670  -48.5178 H         1 UNK         0.0800 
    247 H247       -3.1428  -16.5110  -49.6023 H         1 UNK         0.0800 
@<TRIPOS>BOND
     1    1    2 1    
     2    1  127 1    
     3    1  128 1    
     4    1  129 1    
     5    2    3 2    
     6    2    4 am   BACKBONE|DICT|INTERRES
     7    4    5 1    
     8    4  130 1    
     9    5    6 1    
    10    5   65 1    
    11    5  131 1    
    12    6    7 1    
    13    6  132 1    
    14    6  133 1    
    15    7    8 1    
    16    8    9 1    
    17    8  134 1    
    18    8  135 1    
    19    9   10 ar   
    20    9   14 ar   
    21   10   11 ar   
    22   10  136 1    
    23   11   12 ar   
    24   11  126 1    
    25   12   13 ar   
    26   12  137 1    
    27   13   14 ar   
    28   13   15 1    
    29   14  138 1    
    30   15   16 1    
    31   15  139 1    
    32   15  140 1    
    33   16   17 1    
    34   17   18 1    
    35   17  141 1    
    36   17  142 1    
    37   18   19 1    
    38   18   67 1    
    39   18  143 1    
    40   19   20 am   BACKBONE|DICT|INTERRES
    41   19  144 1    
    42   20   21 2    
    43   20   22 1    
    44   22   23 1    
    45   22   24 1    
    46   22  145 1    
    47   23  146 1    
    48   23  147 1    
    49   23  148 1    
    50   24   25 am   BACKBONE|DICT|INTERRES
    51   24  149 1    
    52   25   26 2    
    53   25   27 1    
    54   27   28 1    
    55   27   29 1    
    56   27  150 1    
    57   28  151 1    
    58   28  152 1    
    59   28  153 1    
    60   29   30 am   BACKBONE|DICT|INTERRES
    61   29  154 1    
    62   30   31 2    
    63   30   32 1    
    64   32   33 1    
    65   32   34 1    
    66   32  155 1    
    67   33  156 1    
    68   33  157 1    
    69   33  158 1    
    70   34   35 am   BACKBONE|DICT|INTERRES
    71   34  159 1    
    72   35   36 2    
    73   35   37 1    
    74   37   38 1    
    75   37   39 1    
    76   37  160 1    
    77   38  161 1    
    78   38  162 1    
    79   38  163 1    
    80   39   40 am   BACKBONE|DICT|INTERRES
    81   39  164 1    
    82   40   41 2    
    83   40   42 1    
    84   42   43 1    
    85   42   44 1    
    86   42  165 1    
    87   43  166 1    
    88   43  167 1    
    89   43  168 1    
    90   44   45 am   BACKBONE|DICT|INTERRES
    91   44  169 1    
    92   45   46 2    
    93   45   47 1    
    94   47   48 1    
    95   47   49 1    
    96   47  170 1    
    97   48  171 1    
    98   48  172 1    
    99   48  173 1    
   100   49   50 am   BACKBONE|DICT|INTERRES
   101   49  174 1    
   102   50   51 2    
   103   50   52 1    
   104   52   53 1    
   105   52   54 1    
   106   52  175 1    
   107   53  176 1    
   108   53  177 1    
   109   53  178 1    
   110   54   55 am   BACKBONE|DICT|INTERRES
   111   54  179 1    
   112   55   56 2    
   113   55   57 1    
   114   57   58 1    
   115   57   59 1    
   116   57  180 1    
   117   58  181 1    
   118   58  182 1    
   119   58  183 1    
   120   59   60 am   BACKBONE|DICT|INTERRES
   121   59  184 1    
   122   60   61 2    
   123   60   62 1    
   124   62   63 1    
   125   62   64 1    
   126   62  185 1    
   127   63  186 1    
   128   63  187 1    
   129   63  188 1    
   130   64   65 am   BACKBONE|DICT|INTERRES
   131   64  189 1    
   132   65   66 2    
   133   67   68 2    
   134   67   69 am   BACKBONE|DICT|INTERRES
   135   69   70 1    
   136   69  190 1    
   137   70   71 1    
   138   70   72 1    
   139   70  191 1    
   140   71  192 1    
   141   71  193 1    
   142   71  194 1    
   143   72   73 2    
   144   72   74 am   BACKBONE|DICT|INTERRES
   145   74   75 1    
   146   74  195 1    
   147   75   76 1    
   148   75   77 1    
   149   75  196 1    
   150   76  197 1    
   151   76  198 1    
   152   76  199 1    
   153   77   78 2    
   154   77   79 am   BACKBONE|DICT|INTERRES
   155   79   80 1    
   156   79  200 1    
   157   80   81 1    
   158   80   82 1    
   159   80  201 1    
   160   81  202 1    
   161   81  203 1    
   162   81  204 1    
   163   82   83 2    
   164   82   84 am   BACKBONE|DICT|INTERRES
   165   84   85 1    
   166   84  205 1    
   167   85   86 1    
   168   85   87 1    
   169   85  206 1    
   170   86  207 1    
   171   86  208 1    
   172   86  209 1    
   173   87   88 2    
   174   87   89 am   BACKBONE|DICT|INTERRES
   175   89   90 1    
   176   89  210 1    
   177   90   91 1    
   178   90   92 1    
   179   90  211 1    
   180   91  212 1    
   181   91  213 1    
   182   91  214 1    
   183   92   93 2    
   184   92   94 am   BACKBONE|DICT|INTERRES
   185   94   95 1    
   186   94  215 1    
   187   95   96 1    
   188   95   97 1    
   189   95  216 1    
   190   96  217 1    
   191   96  218 1    
   192   96  219 1    
   193   97   98 2    
   194   97   99 am   BACKBONE|DICT|INTERRES
   195   99  100 1    
   196   99  220 1    
   197  100  101 1    
   198  100  102 1    
   199  100  221 1    
   200  101  222 1    
   201  101  223 1    
   202  101  224 1    
   203  102  103 2    
   204  102  104 am   BACKBONE|DICT|INTERRES
   205  104  105 1    
   206  104  225 1    
   207  105  106 1    
   208  105  107 1    
   209  105  226 1    
   210  106  227 1    
   211  106  228 1    
   212  106  229 1    
   213  107  108 2    
   214  107  109 am   BACKBONE|DICT|INTERRES
   215  109  110 1    
   216  109  230 1    
   217  110  111 1    
   218  110  112 1    
   219  110  231 1    
   220  111  232 1    
   221  111  233 1    
   222  111  234 1    
   223  112  113 2    
   224  112  114 am   BACKBONE|DICT|INTERRES
   225  114  115 1    
   226  114  235 1    
   227  115  116 1    
   228  115  117 1    
   229  115  236 1    
   230  116  237 1    
   231  116  238 1    
   232  116  239 1    
   233  117  118 2    
   234  117  119 am   BACKBONE|DICT|INTERRES
   235  119  120 1    
   236  119  240 1    
   237  120  121 1    
   238  120  124 1    
   239  120  241 1    
   240  121  122 am   BACKBONE|DICT|INTERRES
   241  121  123 2    
   242  122  242 1    
   243  122  243 1    
   244  124  125 1    
   245  124  244 1    
   246  124  245 1    
   247  125  126 1    
   248  126  246 1    
   249  126  247 1    
@<TRIPOS>SUBSTRUCTURE
     1 UNK         1 GROUP             0       ****    0 ROOT    
