@<TRIPOS>MOLECULE
3R540
247   249    1
SMALL
USER_CHARGES


@<TRIPOS>ATOM
      1 CA         -3.8045  -19.1278  -43.2058 C.3       0 UNK        -0.1800 
      2 C          -3.7321  -17.6092  -43.2371 C.2       0 UNK         0.5000 
      3 O          -4.2064  -16.9451  -42.3155 O.2       0 UNK        -0.5000 
      4 N          -3.1199  -17.0530  -44.2863 N.am      1 UNK        -0.5000 
      5 CA         -2.9235  -15.6199  -44.5194 C.3       1 UNK         0.1400 
      6 C6         -2.9731  -15.3551  -46.0442 C.3       23 UNK        -0.0398 
      7 S7         -2.7325  -13.6405  -46.6205 S.3       23 UNK        -0.2404 
      8 C8         -3.4441  -13.7185  -48.3017 C.3       23 UNK        -0.0205 
      9 C9         -2.9374  -14.8979  -49.1294 C.ar      23 UNK        -0.0193 
     10 C10        -1.7584  -14.8000  -49.8760 C.ar      23 UNK        -0.1150 
     11 C11        -1.3275  -15.8738  -50.6641 C.ar      23 UNK        -0.0193 
     12 C12        -2.0760  -17.0552  -50.6897 C.ar      23 UNK        -0.1150 
     13 C13        -3.2465  -17.1744  -49.9336 C.ar      23 UNK        -0.0193 
     14 C14        -3.6759  -16.0849  -49.1717 C.ar      23 UNK        -0.1150 
     15 C15        -4.0925  -18.4442  -49.9613 C.3       23 UNK        -0.0205 
     16 S16        -3.1332  -19.9955  -49.9074 S.3       23 UNK        -0.2404 
     17 C17        -2.3233  -19.8957  -48.2743 C.3       23 UNK        -0.0398 
     18 CA         -1.9512  -21.2845  -47.6936 C.3       11 UNK         0.1400 
     19 N          -0.8315  -21.2156  -46.7416 N.am      11 UNK        -0.5000 
     20 C          -0.1789  -22.2775  -46.2379 C.2       10 UNK         0.5000 
     21 O          -0.4846  -23.4382  -46.5113 O.2       10 UNK        -0.5000 
     22 CA          0.9738  -22.0386  -45.2403 C.3       10 UNK         0.1400 
     23 CB          2.3145  -22.4721  -45.8520 C.3       10 UNK        -0.1800 
     24 N           1.0872  -20.6591  -44.7684 N.am      10 UNK        -0.5000 
     25 C           0.2433  -20.0573  -43.9191 C.2       9 UNK         0.5000 
     26 O          -0.7246  -20.6166  -43.4041 O.2       9 UNK        -0.5000 
     27 CA          0.4913  -18.5564  -43.6652 C.3       9 UNK         0.1400 
     28 CB          1.5906  -18.3569  -42.6101 C.3       9 UNK        -0.1800 
     29 N           0.8554  -17.8468  -44.8948 N.am      9 UNK        -0.5000 
     30 C           0.0763  -17.7649  -45.9829 C.2       8 UNK         0.5000 
     31 O          -1.0751  -18.1999  -46.0201 O.2       8 UNK        -0.5000 
     32 CA          0.7101  -17.1818  -47.2568 C.3       8 UNK         0.1400 
     33 CB          0.6894  -15.6485  -47.2589 C.3       8 UNK        -0.1800 
     34 N           2.0883  -17.6382  -47.4085 N.am      8 UNK        -0.5000 
     35 C           2.4451  -18.8581  -47.8302 C.2       7 UNK         0.5000 
     36 O           1.6433  -19.7282  -48.1633 O.2       7 UNK        -0.5000 
     37 CA          3.9551  -19.1643  -47.8579 C.3       7 UNK         0.1400 
     38 CB          4.5490  -18.7967  -49.2259 C.3       7 UNK        -0.1800 
     39 N           4.6941  -18.4608  -46.8068 N.am      7 UNK        -0.5000 
     40 C           4.5588  -18.7001  -45.4939 C.2       6 UNK         0.5000 
     41 O           3.8475  -19.5930  -45.0357 O.2       6 UNK        -0.5000 
     42 CA          5.2867  -17.7352  -44.5354 C.3       6 UNK         0.1400 
     43 CB          6.7165  -18.2226  -44.2595 C.3       6 UNK        -0.1800 
     44 N           5.3280  -16.3557  -45.0360 N.am      6 UNK        -0.5000 
     45 C           4.2417  -15.6059  -45.2681 C.2       5 UNK         0.5000 
     46 O           3.0972  -15.9942  -45.0308 O.2       5 UNK        -0.5000 
     47 CA          4.4826  -14.2517  -45.9648 C.3       5 UNK         0.1400 
     48 CB          4.8925  -14.4807  -47.4305 C.3       5 UNK        -0.1800 
     49 N           3.3132  -13.3699  -45.9597 N.am      5 UNK        -0.5000 
     50 C           2.7900  -12.7646  -44.8862 C.2       4 UNK         0.5000 
     51 O           3.2479  -12.8905  -43.7481 O.2       4 UNK        -0.5000 
     52 CA          1.6010  -11.8089  -45.1309 C.3       4 UNK         0.1400 
     53 CB          0.8591  -12.0332  -46.4638 C.3       4 UNK        -0.1800 
     54 N           0.6364  -11.9111  -44.0399 N.am      4 UNK        -0.5000 
     55 C           0.4741  -11.0089  -43.0619 C.2       3 UNK         0.5000 
     56 O           1.1014   -9.9504  -42.9951 O.2       3 UNK        -0.5000 
     57 CA         -0.5743  -11.3241  -41.9733 C.3       3 UNK         0.1400 
     58 CB         -1.8745  -10.5498  -42.2408 C.3       3 UNK        -0.1800 
     59 N          -0.8897  -12.7486  -41.8736 N.am      3 UNK        -0.5000 
     60 C          -0.0602  -13.6857  -41.3970 C.2       2 UNK         0.5000 
     61 O           1.0149  -13.4292  -40.8546 O.2       2 UNK        -0.5000 
     62 CA         -0.4900  -15.1569  -41.5634 C.3       2 UNK         0.1400 
     63 CB         -0.8114  -15.7965  -40.2042 C.3       2 UNK        -0.1800 
     64 N          -1.6281  -15.3706  -42.4624 N.am      2 UNK        -0.5000 
     65 C          -1.6369  -15.1684  -43.7874 C.2       1 UNK         0.5000 
     66 O          -0.6834  -14.6851  -44.3963 O.2       1 UNK        -0.5000 
     67 C          -3.1845  -22.0284  -47.1308 C.2       11 UNK         0.5000 
     68 O          -4.0007  -22.5132  -47.9122 O.2       11 UNK        -0.5000 
     69 N          -3.2705  -22.1935  -45.8019 N.am      12 UNK        -0.5000 
     70 CA         -4.2348  -23.0678  -45.1277 C.3       12 UNK         0.1400 
     71 CB         -4.0306  -22.9663  -43.6093 C.3       12 UNK        -0.1800 
     72 C          -4.1560  -24.5429  -45.5805 C.2       12 UNK         0.5000 
     73 O          -5.1895  -25.2093  -45.6397 O.2       12 UNK        -0.5000 
     74 N          -2.9530  -25.0142  -45.9476 N.am      13 UNK        -0.5000 
     75 CA         -2.7245  -26.3453  -46.5208 C.3       13 UNK         0.1400 
     76 CB         -1.2336  -26.6981  -46.4090 C.3       13 UNK        -0.1800 
     77 C          -3.1987  -26.4561  -47.9850 C.2       13 UNK         0.5000 
     78 O          -3.4396  -27.5650  -48.4617 O.2       13 UNK        -0.5000 
     79 N          -3.3566  -25.3081  -48.6564 N.am      14 UNK        -0.5000 
     80 CA         -3.9311  -25.1574  -49.9929 C.3       14 UNK         0.1400 
     81 CB         -3.0767  -24.1478  -50.7815 C.3       14 UNK        -0.1800 
     82 C          -5.4092  -24.7156  -49.9141 C.2       14 UNK         0.5000 
     83 O          -5.9200  -24.1271  -50.8688 O.2       14 UNK        -0.5000 
     84 N          -6.0563  -24.9637  -48.7621 N.am      15 UNK        -0.5000 
     85 CA         -7.4522  -24.6618  -48.4180 C.3       15 UNK         0.1400 
     86 CB         -8.4074  -25.5132  -49.2800 C.3       15 UNK        -0.1800 
     87 C          -7.8078  -23.1593  -48.4644 C.2       15 UNK         0.5000 
     88 O          -8.9834  -22.8162  -48.5976 O.2       15 UNK        -0.5000 
     89 N          -6.7857  -22.2932  -48.3853 N.am      16 UNK        -0.5000 
     90 CA         -6.8177  -20.8423  -48.5917 C.3       16 UNK         0.1400 
     91 CB         -7.6355  -20.1406  -47.4891 C.3       16 UNK        -0.1800 
     92 C          -7.2482  -20.4301  -50.0188 C.2       16 UNK         0.5000 
     93 O          -7.6323  -19.2792  -50.2301 O.2       16 UNK        -0.5000 
     94 N          -7.1685  -21.3654  -50.9764 N.am      17 UNK        -0.5000 
     95 CA         -7.6260  -21.1967  -52.3559 C.3       17 UNK         0.1400 
     96 CB         -8.2429  -22.5254  -52.8250 C.3       17 UNK        -0.1800 
     97 C          -6.5015  -20.7578  -53.3117 C.2       17 UNK         0.5000 
     98 O          -6.7793  -20.5359  -54.4908 O.2       17 UNK        -0.5000 
     99 N          -5.2605  -20.6670  -52.8054 N.am      18 UNK        -0.5000 
    100 CA        -4.0260  -20.3671  -53.5450 C.3       18 UNK         0.1400 
    101 CB        -4.0601  -18.9394  -54.1314 C.3       18 UNK        -0.1800 
    102 C         -3.6837  -21.4556  -54.5868 C.2       18 UNK         0.5000 
    103 O         -3.1424  -21.1596  -55.6529 O.2       18 UNK        -0.5000 
    104 N         -4.0164  -22.7110  -54.2534 N.am      19 UNK        -0.5000 
    105 CA        -3.8039  -23.8856  -55.1006 C.3       19 UNK         0.1400 
    106 CB        -4.7311  -25.0132  -54.6191 C.3       19 UNK        -0.1800 
    107 C         -2.3389  -24.3654  -55.1289 C.2       19 UNK         0.5000 
    108 O         -1.9439  -25.0328  -56.0857 O.2       19 UNK        -0.5000 
    109 N         -1.5666  -24.0326  -54.0865 N.am      20 UNK        -0.5000 
    110 CA        -0.1722  -24.4427  -53.9043 C.3       20 UNK         0.1400 
    111 CB        -0.1230  -25.8313  -53.2364 C.3       20 UNK        -0.1800 
    112 C          0.6308  -23.3786  -53.1305 C.2       20 UNK         0.5000 
    113 O          1.6031  -23.7137  -52.4524 O.2       20 UNK        -0.5000 
    114 N          0.2122  -22.1132  -53.2377 N.am      21 UNK        -0.5000 
    115 CA         0.8148  -20.9495  -52.5953 C.3       21 UNK         0.1400 
    116 CB         0.3969  -20.9004  -51.1138 C.3       21 UNK        -0.1800 
    117 C          0.3364  -19.6938  -53.3463 C.2       21 UNK         0.5000 
    118 O         -0.7215  -19.7532  -53.9712 O.2       21 UNK        -0.5000 
    119 N          1.0492  -18.5618  -53.3086 N.am      22 UNK        -0.5000 
    120 CA         2.3616  -18.3301  -52.6761 C.3       22 UNK         0.1400 
    121 C          3.5704  -18.6690  -53.5974 C.2       22 UNK         0.5000 
    122 N          3.3671  -19.0523  -54.8521 N.am      22 UNK        -0.7600 
    123 O          4.7144  -18.6072  -53.1576 O.2       22 UNK        -0.5000 
    124 C124        2.4648  -16.8855  -52.1218 C.3       23 UNK        -0.0398 
    125 S125        1.3242  -16.6273  -50.7249 S.3       23 UNK        -0.2404 
    126 C126       -0.0686  -15.7642  -51.5109 C.3       23 UNK        -0.0205 
    127 H127       -3.2712  -19.5119  -42.3361 H         1 UNK         0.0600 
    128 H128       -3.3609  -19.5709  -44.0981 H         1 UNK         0.0600 
    129 H129       -4.8429  -19.4531  -43.1444 H         1 UNK         0.0600 
    130 H130       -2.6548  -17.6525  -44.9622 H         1 UNK         0.3000 
    131 H131       -3.7506  -15.0658  -44.0706 H         1 UNK         0.0600 
    132 H132       -2.2528  -15.9845  -46.5612 H         1 UNK         0.0800 
    133 H133       -3.9516  -15.6783  -46.3994 H         1 UNK         0.0800 
    134 H134       -3.2193  -12.7852  -48.8198 H         1 UNK         0.0800 
    135 H135       -4.5314  -13.7610  -48.2210 H         1 UNK         0.0800 
    136 H136       -1.1837  -13.8849  -49.8510 H         1 UNK         0.1150 
    137 H137       -1.7439  -17.8820  -51.3021 H         1 UNK         0.1150 
    138 H138       -4.5964  -16.1588  -48.6104 H         1 UNK         0.1150 
    139 H139       -4.6922  -18.4355  -50.8718 H         1 UNK         0.0800 
    140 H140       -4.7989  -18.4441  -49.1306 H         1 UNK         0.0800 
    141 H141       -2.9451  -19.3285  -47.5796 H         1 UNK         0.0800 
    142 H142       -1.4184  -19.3074  -48.4266 H         1 UNK         0.0800 
    143 H143       -1.5850  -21.8949  -48.5221 H         1 UNK         0.0600 
    144 H144       -0.5362  -20.2881  -46.4654 H         1 UNK         0.3000 
    145 H145        0.7805  -22.6736  -44.3735 H         1 UNK         0.0600 
    146 H146        3.1307  -22.3583  -45.1383 H         1 UNK         0.0600 
    147 H147        2.2887  -23.5210  -46.1502 H         1 UNK         0.0600 
    148 H148        2.5588  -21.8869  -46.7379 H         1 UNK         0.0600 
    149 H149        1.8928  -20.1370  -45.0977 H         1 UNK         0.3000 
    150 H150       -0.4332  -18.1151  -43.2885 H         1 UNK         0.0600 
    151 H151        2.4960  -18.9109  -42.8569 H         1 UNK         0.0600 
    152 H152        1.2542  -18.7026  -41.6321 H         1 UNK         0.0600 
    153 H153        1.8689  -17.3084  -42.5112 H         1 UNK         0.0600 
    154 H154        1.7646  -17.3939  -44.9199 H         1 UNK         0.3000 
    155 H155        0.1323  -17.5268  -48.1161 H         1 UNK         0.0600 
    156 H156        1.0613  -15.2376  -46.3226 H         1 UNK         0.0600 
    157 H157       -0.3207  -15.2723  -47.3986 H         1 UNK         0.0600 
    158 H158        1.2930  -15.2373  -48.0673 H         1 UNK         0.0600 
    159 H159        2.8045  -17.0054  -47.0858 H         1 UNK         0.3000 
    160 H160        4.0840  -20.2375  -47.7052 H         1 UNK         0.0600 
    161 H161        4.4354  -17.7339  -49.4439 H         1 UNK         0.0600 
    162 H162        4.0545  -19.3505  -50.0245 H         1 UNK         0.0600 
    163 H163        5.6105  -19.0394  -49.2753 H         1 UNK         0.0600 
    164 H164        5.3079  -17.7159  -47.1005 H         1 UNK         0.3000 
    165 H165        4.7378  -17.7326  -43.5913 H         1 UNK         0.0600 
    166 H166        7.2119  -17.5932  -43.5201 H         1 UNK         0.0600 
    167 H167        7.3253  -18.2221  -45.1644 H         1 UNK         0.0600 
    168 H168        6.7122  -19.2405  -43.8671 H         1 UNK         0.0600 
    169 H169        6.2407  -15.9827  -45.2548 H         1 UNK         0.3000 
    170 H170        5.2959  -13.7423  -45.4440 H         1 UNK         0.0600 
    171 H171        5.0971  -13.5356  -47.9341 H         1 UNK         0.0600 
    172 H172        4.1113  -14.9954  -47.9922 H         1 UNK         0.0600 
    173 H173        5.7995  -15.0817  -47.5035 H         1 UNK         0.0600 
    174 H174        2.8623  -13.2268  -46.8504 H         1 UNK         0.3000 
    175 H175        2.0265  -10.8044  -45.1657 H         1 UNK         0.0600 
    176 H176        0.3919  -13.0153  -46.5041 H         1 UNK         0.0600 
    177 H177        0.0654  -11.2966  -46.5899 H         1 UNK         0.0600 
    178 H178        1.5203  -11.9316  -47.3246 H         1 UNK         0.0600 
    179 H179        0.1176  -12.7820  -43.9987 H         1 UNK         0.3000 
    180 H180       -0.1673  -10.9925  -41.0157 H         1 UNK         0.0600 
    181 H181       -2.3327  -10.8478  -43.1849 H         1 UNK         0.0600 
    182 H182       -1.6866   -9.4765  -42.2916 H         1 UNK         0.0600 
    183 H183       -2.6026  -10.7135  -41.4462 H         1 UNK         0.0600 
    184 H184       -1.7562  -13.0523  -42.2916 H         1 UNK         0.3000 
    185 H185        0.3657  -15.6785  -41.9921 H         1 UNK         0.0600 
    186 H186       -1.0176  -16.8619  -40.3091 H         1 UNK         0.0600 
    187 H187        0.0275  -15.6967  -39.5142 H         1 UNK         0.0600 
    188 H188       -1.6794  -15.3296  -39.7370 H         1 UNK         0.0600 
    189 H189       -2.4582  -15.7824  -42.0504 H         1 UNK         0.3000 
    190 H190       -2.5544  -21.7785  -45.2225 H         1 UNK         0.3000 
    191 H191       -5.2361  -22.7037  -45.3671 H         1 UNK         0.0600 
    192 H192       -4.7270  -23.6148  -43.0759 H         1 UNK         0.0600 
    193 H193       -4.2012  -21.9512  -43.2541 H         1 UNK         0.0600 
    194 H194       -3.0204  -23.2579  -43.3186 H         1 UNK         0.0600 
    195 H195       -2.1467  -24.3973  -45.9218 H         1 UNK         0.3000 
    196 H196       -3.2890  -27.0737  -45.9348 H         1 UNK         0.0600 
    197 H197       -0.6165  -26.0430  -47.0247 H         1 UNK         0.0600 
    198 H198       -0.8838  -26.6206  -45.3795 H         1 UNK         0.0600 
    199 H199       -1.0506  -27.7215  -46.7387 H         1 UNK         0.0600 
    200 H200       -3.1924  -24.4393  -48.1635 H         1 UNK         0.3000 
    201 H201       -3.9057  -26.1114  -50.5228 H         1 UNK         0.0600 
    202 H202       -3.1420  -23.1440  -50.3616 H         1 UNK         0.0600 
    203 H203       -3.4054  -24.0907  -51.8171 H         1 UNK         0.0600 
    204 H204       -2.0264  -24.4386  -50.7887 H         1 UNK         0.0600 
    205 H205       -5.5259  -25.4013  -48.0212 H         1 UNK         0.3000 
    206 H206       -7.5800  -24.9680  -47.3788 H         1 UNK         0.0600 
    207 H207       -8.1472  -26.5705  -49.2302 H         1 UNK         0.0600 
    208 H208       -9.4380  -25.4191  -48.9359 H         1 UNK         0.0600 
    209 H209       -8.3837  -25.2104  -50.3275 H         1 UNK         0.0600 
    210 H210       -5.8482  -22.6712  -48.2710 H         1 UNK         0.3000 
    211 H211       -5.7854  -20.5121  -48.4843 H         1 UNK         0.0600 
    212 H212       -7.5223  -19.0575  -47.5477 H         1 UNK         0.0600 
    213 H213       -7.3021  -20.4465  -46.4974 H         1 UNK         0.0600 
    214 H214       -8.7000  -20.3616  -47.5699 H         1 UNK         0.0600 
    215 H215       -6.8206  -22.2884  -50.7351 H         1 UNK         0.3000 
    216 H216       -8.4046  -20.4322  -52.3946 H         1 UNK         0.0600 
    217 H217       -7.4979  -23.3197  -52.8806 H         1 UNK         0.0600 
    218 H218       -8.6859  -22.4237  -53.8164 H         1 UNK         0.0600 
    219 H219       -9.0328  -22.8543  -52.1493 H         1 UNK         0.0600 
    220 H220       -5.1467  -20.8689  -51.8223 H         1 UNK         0.3000 
    221 H221       -3.2154  -20.3955  -52.8168 H         1 UNK         0.0600 
    222 H222       -4.2814  -18.2020  -53.3601 H         1 UNK         0.0600 
    223 H223       -4.8060  -18.8378  -54.9195 H         1 UNK         0.0600 
    224 H224       -3.0964  -18.6709  -54.5643 H         1 UNK         0.0600 
    225 H225       -4.4974  -22.8636  -53.3790 H         1 UNK         0.3000 
    226 H226       -4.0859  -23.6294  -56.1241 H         1 UNK         0.0600 
    227 H227       -4.5037  -25.3189  -53.5974 H         1 UNK         0.0600 
    228 H228       -5.7764  -24.7048  -54.6509 H         1 UNK         0.0600 
    229 H229       -4.6346  -25.8952  -55.2535 H         1 UNK         0.0600 
    230 H230       -1.9666  -23.4748  -53.3468 H         1 UNK         0.3000 
    231 H231        0.3070  -24.5183  -54.8825 H         1 UNK         0.0600 
    232 H232       -0.5607  -25.8112  -52.2381 H         1 UNK         0.0600 
    233 H233        0.9033  -26.1872  -53.1398 H         1 UNK         0.0600 
    234 H234       -0.6644  -26.5729  -53.8239 H         1 UNK         0.0600 
    235 H235       -0.5423  -21.8795  -53.8719 H         1 UNK         0.3000 
    236 H236        1.8995  -21.0300  -52.6797 H         1 UNK         0.0600 
    237 H237        0.8886  -21.6824  -50.5353 H         1 UNK         0.0600 
    238 H238        0.6530  -19.9462  -50.6526 H         1 UNK         0.0600 
    239 H239       -0.6780  -21.0338  -51.0034 H         1 UNK         0.0600 
    240 H240        0.6880  -17.7728  -53.8216 H         1 UNK         0.3000 
    241 H241        2.4663  -18.9957  -51.8200 H         1 UNK         0.0600 
    242 H242        4.1592  -19.2755  -55.4348 H         1 UNK         0.3800 
    243 H243        2.4368  -19.0968  -55.2370 H         1 UNK         0.3800 
    244 H244        2.2792  -16.1476  -52.9039 H         1 UNK         0.0800 
    245 H245        3.4698  -16.6842  -51.7468 H         1 UNK         0.0800 
    246 H246       -0.2652  -16.1902  -52.4950 H         1 UNK         0.0800 
    247 H247        0.2000  -14.7195  -51.6733 H         1 UNK         0.0800 
@<TRIPOS>BOND
     1    1    2 1    
     2    1  127 1    
     3    1  128 1    
     4    1  129 1    
     5    2    3 2    
     6    2    4 am   BACKBONE|DICT|INTERRES
     7    4    5 1    
     8    4  130 1    
     9    5    6 1    
    10    5   65 1    
    11    5  131 1    
    12    6    7 1    
    13    6  132 1    
    14    6  133 1    
    15    7    8 1    
    16    8    9 1    
    17    8  134 1    
    18    8  135 1    
    19    9   10 ar   
    20    9   14 ar   
    21   10   11 ar   
    22   10  136 1    
    23   11   12 ar   
    24   11  126 1    
    25   12   13 ar   
    26   12  137 1    
    27   13   14 ar   
    28   13   15 1    
    29   14  138 1    
    30   15   16 1    
    31   15  139 1    
    32   15  140 1    
    33   16   17 1    
    34   17   18 1    
    35   17  141 1    
    36   17  142 1    
    37   18   19 1    
    38   18   67 1    
    39   18  143 1    
    40   19   20 am   BACKBONE|DICT|INTERRES
    41   19  144 1    
    42   20   21 2    
    43   20   22 1    
    44   22   23 1    
    45   22   24 1    
    46   22  145 1    
    47   23  146 1    
    48   23  147 1    
    49   23  148 1    
    50   24   25 am   BACKBONE|DICT|INTERRES
    51   24  149 1    
    52   25   26 2    
    53   25   27 1    
    54   27   28 1    
    55   27   29 1    
    56   27  150 1    
    57   28  151 1    
    58   28  152 1    
    59   28  153 1    
    60   29   30 am   BACKBONE|DICT|INTERRES
    61   29  154 1    
    62   30   31 2    
    63   30   32 1    
    64   32   33 1    
    65   32   34 1    
    66   32  155 1    
    67   33  156 1    
    68   33  157 1    
    69   33  158 1    
    70   34   35 am   BACKBONE|DICT|INTERRES
    71   34  159 1    
    72   35   36 2    
    73   35   37 1    
    74   37   38 1    
    75   37   39 1    
    76   37  160 1    
    77   38  161 1    
    78   38  162 1    
    79   38  163 1    
    80   39   40 am   BACKBONE|DICT|INTERRES
    81   39  164 1    
    82   40   41 2    
    83   40   42 1    
    84   42   43 1    
    85   42   44 1    
    86   42  165 1    
    87   43  166 1    
    88   43  167 1    
    89   43  168 1    
    90   44   45 am   BACKBONE|DICT|INTERRES
    91   44  169 1    
    92   45   46 2    
    93   45   47 1    
    94   47   48 1    
    95   47   49 1    
    96   47  170 1    
    97   48  171 1    
    98   48  172 1    
    99   48  173 1    
   100   49   50 am   BACKBONE|DICT|INTERRES
   101   49  174 1    
   102   50   51 2    
   103   50   52 1    
   104   52   53 1    
   105   52   54 1    
   106   52  175 1    
   107   53  176 1    
   108   53  177 1    
   109   53  178 1    
   110   54   55 am   BACKBONE|DICT|INTERRES
   111   54  179 1    
   112   55   56 2    
   113   55   57 1    
   114   57   58 1    
   115   57   59 1    
   116   57  180 1    
   117   58  181 1    
   118   58  182 1    
   119   58  183 1    
   120   59   60 am   BACKBONE|DICT|INTERRES
   121   59  184 1    
   122   60   61 2    
   123   60   62 1    
   124   62   63 1    
   125   62   64 1    
   126   62  185 1    
   127   63  186 1    
   128   63  187 1    
   129   63  188 1    
   130   64   65 am   BACKBONE|DICT|INTERRES
   131   64  189 1    
   132   65   66 2    
   133   67   68 2    
   134   67   69 am   BACKBONE|DICT|INTERRES
   135   69   70 1    
   136   69  190 1    
   137   70   71 1    
   138   70   72 1    
   139   70  191 1    
   140   71  192 1    
   141   71  193 1    
   142   71  194 1    
   143   72   73 2    
   144   72   74 am   BACKBONE|DICT|INTERRES
   145   74   75 1    
   146   74  195 1    
   147   75   76 1    
   148   75   77 1    
   149   75  196 1    
   150   76  197 1    
   151   76  198 1    
   152   76  199 1    
   153   77   78 2    
   154   77   79 am   BACKBONE|DICT|INTERRES
   155   79   80 1    
   156   79  200 1    
   157   80   81 1    
   158   80   82 1    
   159   80  201 1    
   160   81  202 1    
   161   81  203 1    
   162   81  204 1    
   163   82   83 2    
   164   82   84 am   BACKBONE|DICT|INTERRES
   165   84   85 1    
   166   84  205 1    
   167   85   86 1    
   168   85   87 1    
   169   85  206 1    
   170   86  207 1    
   171   86  208 1    
   172   86  209 1    
   173   87   88 2    
   174   87   89 am   BACKBONE|DICT|INTERRES
   175   89   90 1    
   176   89  210 1    
   177   90   91 1    
   178   90   92 1    
   179   90  211 1    
   180   91  212 1    
   181   91  213 1    
   182   91  214 1    
   183   92   93 2    
   184   92   94 am   BACKBONE|DICT|INTERRES
   185   94   95 1    
   186   94  215 1    
   187   95   96 1    
   188   95   97 1    
   189   95  216 1    
   190   96  217 1    
   191   96  218 1    
   192   96  219 1    
   193   97   98 2    
   194   97   99 am   BACKBONE|DICT|INTERRES
   195   99  100 1    
   196   99  220 1    
   197  100  101 1    
   198  100  102 1    
   199  100  221 1    
   200  101  222 1    
   201  101  223 1    
   202  101  224 1    
   203  102  103 2    
   204  102  104 am   BACKBONE|DICT|INTERRES
   205  104  105 1    
   206  104  225 1    
   207  105  106 1    
   208  105  107 1    
   209  105  226 1    
   210  106  227 1    
   211  106  228 1    
   212  106  229 1    
   213  107  108 2    
   214  107  109 am   BACKBONE|DICT|INTERRES
   215  109  110 1    
   216  109  230 1    
   217  110  111 1    
   218  110  112 1    
   219  110  231 1    
   220  111  232 1    
   221  111  233 1    
   222  111  234 1    
   223  112  113 2    
   224  112  114 am   BACKBONE|DICT|INTERRES
   225  114  115 1    
   226  114  235 1    
   227  115  116 1    
   228  115  117 1    
   229  115  236 1    
   230  116  237 1    
   231  116  238 1    
   232  116  239 1    
   233  117  118 2    
   234  117  119 am   BACKBONE|DICT|INTERRES
   235  119  120 1    
   236  119  240 1    
   237  120  121 1    
   238  120  124 1    
   239  120  241 1    
   240  121  122 am   BACKBONE|DICT|INTERRES
   241  121  123 2    
   242  122  242 1    
   243  122  243 1    
   244  124  125 1    
   245  124  244 1    
   246  124  245 1    
   247  125  126 1    
   248  126  246 1    
   249  126  247 1    
@<TRIPOS>SUBSTRUCTURE
     1 UNK         1 GROUP             0       ****    0 ROOT    
