@<TRIPOS>MOLECULE
3R540
247   249    1
SMALL
USER_CHARGES


@<TRIPOS>ATOM
      1 CA          5.3373  -13.1239  -47.9385 C.3       0 UNK        -0.1800 
      2 C           4.0915  -13.1172  -47.0658 C.2       0 UNK         0.5000 
      3 O           4.1991  -13.0038  -45.8461 O.2       0 UNK        -0.5000 
      4 N           2.9072  -13.2202  -47.6842 N.am      1 UNK        -0.5000 
      5 CA          1.5847  -13.3126  -47.0405 C.3       1 UNK         0.1400 
      6 C6          0.4627  -13.5288  -48.0862 C.3       23 UNK        -0.0398 
      7 S7          0.7090  -15.0714  -49.0281 S.3       23 UNK        -0.2404 
      8 C8         -0.9712  -15.4004  -49.6412 C.3       23 UNK        -0.0205 
      9 C9         -0.9562  -16.5634  -50.6203 C.ar      23 UNK        -0.0193 
     10 C10        -0.8283  -16.3262  -51.9939 C.ar      23 UNK        -0.1150 
     11 C11        -0.7517  -17.3895  -52.9009 C.ar      23 UNK        -0.0193 
     12 C12        -0.7965  -18.6968  -52.4093 C.ar      23 UNK        -0.1150 
     13 C13        -0.9485  -18.9482  -51.0450 C.ar      23 UNK        -0.0193 
     14 C14        -1.0354  -17.8783  -50.1517 C.ar      23 UNK        -0.1150 
     15 C15        -1.0075  -20.3838  -50.5578 C.3       23 UNK        -0.0205 
     16 S16         0.6593  -21.0492  -50.2530 S.3       23 UNK        -0.2404 
     17 C17         0.8685  -20.6874  -48.4755 C.3       23 UNK        -0.0398 
     18 CA          0.7768  -21.9483  -47.5804 C.3       11 UNK         0.1400 
     19 N           1.0988  -21.6434  -46.1874 N.am      11 UNK        -0.5000 
     20 C           1.3346  -22.5606  -45.2389 C.2       10 UNK         0.5000 
     21 O           1.4123  -23.7698  -45.4570 O.2       10 UNK        -0.5000 
     22 CA          1.4609  -22.0413  -43.7947 C.3       10 UNK         0.1400 
     23 CB          2.8845  -21.5356  -43.5195 C.3       10 UNK        -0.1800 
     24 N           0.4938  -20.9846  -43.4888 N.am      10 UNK        -0.5000 
     25 C          -0.8378  -21.1477  -43.5054 C.2       9 UNK         0.5000 
     26 O          -1.3938  -22.2230  -43.7347 O.2       9 UNK        -0.5000 
     27 CA         -1.6918  -19.8891  -43.2682 C.3       9 UNK         0.1400 
     28 CB         -1.7978  -19.5782  -41.7679 C.3       9 UNK        -0.1800 
     29 N          -1.1841  -18.7134  -43.9768 N.am      9 UNK        -0.5000 
     30 C          -1.1019  -18.5960  -45.3102 C.2       8 UNK         0.5000 
     31 O          -1.4651  -19.4636  -46.1002 O.2       8 UNK        -0.5000 
     32 CA         -0.4455  -17.3186  -45.8564 C.3       8 UNK         0.1400 
     33 CB         -1.4009  -16.1206  -45.7526 C.3       8 UNK        -0.1800 
     34 N           0.8107  -17.0264  -45.1690 N.am      8 UNK        -0.5000 
     35 C           1.9046  -17.8009  -45.2332 C.2       7 UNK         0.5000 
     36 O           1.9845  -18.8200  -45.9189 O.2       7 UNK        -0.5000 
     37 CA          3.0927  -17.3878  -44.3461 C.3       7 UNK         0.1400 
     38 CB          3.9982  -16.3986  -45.0900 C.3       7 UNK        -0.1800 
     39 N           2.6607  -16.7889  -43.0828 N.am      7 UNK        -0.5000 
     40 C           2.0270  -17.4552  -42.1078 C.2       6 UNK         0.5000 
     41 O           1.7786  -18.6605  -42.1483 O.2       6 UNK        -0.5000 
     42 CA          1.5285  -16.6073  -40.9269 C.3       6 UNK         0.1400 
     43 CB          2.6807  -16.2515  -39.9757 C.3       6 UNK        -0.1800 
     44 N           0.8662  -15.3829  -41.3831 N.am      6 UNK        -0.5000 
     45 C          -0.3194  -15.3624  -42.0121 C.2       5 UNK         0.5000 
     46 O          -0.9397  -16.3885  -42.2903 O.2       5 UNK        -0.5000 
     47 CA         -0.8984  -13.9975  -42.4484 C.3       5 UNK         0.1400 
     48 CB         -2.4271  -13.9202  -42.2568 C.3       5 UNK        -0.1800 
     49 N          -0.2290  -12.8386  -41.8495 N.am      5 UNK        -0.5000 
     50 C          -0.1729  -12.5037  -40.5510 C.2       4 UNK         0.5000 
     51 O          -0.7899  -13.0966  -39.6648 O.2       4 UNK        -0.5000 
     52 CA          0.7574  -11.3262  -40.1804 C.3       4 UNK         0.1400 
     53 CB          1.3556  -11.4804  -38.7667 C.3       4 UNK        -0.1800 
     54 N           1.8309  -11.0717  -41.1522 N.am      4 UNK        -0.5000 
     55 C           2.7855  -11.9158  -41.5695 C.2       3 UNK         0.5000 
     56 O           2.8357  -13.1035  -41.2427 O.2       3 UNK        -0.5000 
     57 CA          3.8218  -11.3313  -42.5532 C.3       3 UNK         0.1400 
     58 CB          5.0070  -12.2855  -42.7854 C.3       3 UNK        -0.1800 
     59 N           3.2208  -10.9904  -43.8459 N.am      3 UNK        -0.5000 
     60 C           2.4170   -9.9408  -44.0816 C.2       2 UNK         0.5000 
     61 O           2.1241   -9.1124  -43.2175 O.2       2 UNK        -0.5000 
     62 CA          1.8288   -9.7728  -45.4997 C.3       2 UNK         0.1400 
     63 CB          2.5282   -8.6197  -46.2360 C.3       2 UNK        -0.1800 
     64 N           1.9085  -10.9741  -46.3311 N.am      2 UNK        -0.5000 
     65 C           1.2449  -12.1188  -46.1179 C.2       1 UNK         0.5000 
     66 O           0.4215  -12.2678  -45.2146 O.2       1 UNK        -0.5000 
     67 C          -0.5917  -22.6548  -47.6865 C.2       11 UNK         0.5000 
     68 O          -0.6735  -23.7232  -48.2926 O.2       11 UNK        -0.5000 
     69 N          -1.6319  -22.0669  -47.0760 N.am      12 UNK        -0.5000 
     70 CA         -3.0230  -22.5266  -47.1153 C.3       12 UNK         0.1400 
     71 CB         -3.9032  -21.5842  -46.2800 C.3       12 UNK        -0.1800 
     72 C          -3.2294  -23.9780  -46.6538 C.2       12 UNK         0.5000 
     73 O          -4.0697  -24.6767  -47.2216 O.2       12 UNK        -0.5000 
     74 N          -2.4356  -24.4095  -45.6654 N.am      13 UNK        -0.5000 
     75 CA         -2.4036  -25.7770  -45.1467 C.3       13 UNK         0.1400 
     76 CB         -1.4464  -25.8278  -43.9463 C.3       13 UNK        -0.1800 
     77 C          -2.0109  -26.8387  -46.1960 C.2       13 UNK         0.5000 
     78 O          -2.4405  -27.9866  -46.0740 O.2       13 UNK        -0.5000 
     79 N          -1.2191  -26.4435  -47.2020 N.am      14 UNK        -0.5000 
     80 CA         -0.8141  -27.2884  -48.3235 C.3       14 UNK         0.1400 
     81 CB          0.6785  -27.0597  -48.6105 C.3       14 UNK        -0.1800 
     82 C          -1.6552  -26.9905  -49.5760 C.2       14 UNK         0.5000 
     83 O          -2.1090  -27.9205  -50.2425 O.2       14 UNK        -0.5000 
     84 N          -1.8594  -25.7013  -49.8736 N.am      15 UNK        -0.5000 
     85 CA         -2.4806  -25.1843  -51.0948 C.3       15 UNK         0.1400 
     86 CB         -1.9035  -23.7864  -51.3713 C.3       15 UNK        -0.1800 
     87 C          -4.0239  -25.1704  -51.0644 C.2       15 UNK         0.5000 
     88 O          -4.6292  -24.2608  -51.6345 O.2       15 UNK        -0.5000 
     89 N          -4.6353  -26.1657  -50.4068 N.am      16 UNK        -0.5000 
     90 CA         -6.0771  -26.4400  -50.3490 C.3       16 UNK         0.1400 
     91 CB         -6.5569  -26.9928  -51.7074 C.3       16 UNK        -0.1800 
     92 C          -6.9160  -25.2368  -49.8656 C.2       16 UNK         0.5000 
     93 O          -7.8584  -24.8243  -50.5439 O.2       16 UNK        -0.5000 
     94 N          -6.5283  -24.6831  -48.7075 N.am      17 UNK        -0.5000 
     95 CA         -7.0895  -23.4866  -48.0671 C.3       17 UNK         0.1400 
     96 CB         -8.5859  -23.6626  -47.7304 C.3       17 UNK        -0.1800 
     97 C          -6.7833  -22.1905  -48.8492 C.2       17 UNK         0.5000 
     98 O          -7.5697  -21.2438  -48.8032 O.2       17 UNK        -0.5000 
     99 N          -5.6285  -22.1813  -49.5325 N.am      18 UNK        -0.5000 
    100 CA        -5.0984  -21.1262  -50.4004 C.3       18 UNK         0.1400 
    101 CB        -4.7762  -19.8387  -49.6135 C.3       18 UNK        -0.1800 
    102 C         -6.0088  -20.8926  -51.6175 C.2       18 UNK         0.5000 
    103 O         -6.5821  -19.8129  -51.7803 O.2       18 UNK        -0.5000 
    104 N         -6.1296  -21.9395  -52.4431 N.am      19 UNK        -0.5000 
    105 CA        -6.8261  -21.9277  -53.7282 C.3       19 UNK         0.1400 
    106 CB        -6.7980  -23.3498  -54.3092 C.3       19 UNK        -0.1800 
    107 C         -6.1992  -20.9275  -54.7203 C.2       19 UNK         0.5000 
    108 O         -5.0009  -20.6472  -54.6376 O.2       19 UNK        -0.5000 
    109 N         -7.0129  -20.4363  -55.6650 N.am      20 UNK        -0.5000 
    110 CA        -6.6637  -19.3934  -56.6405 C.3       20 UNK         0.1400 
    111 CB        -7.9143  -19.0498  -57.4648 C.3       20 UNK        -0.1800 
    112 C         -5.4810  -19.7289  -57.5739 C.2       20 UNK         0.5000 
    113 O         -4.8654  -18.8142  -58.1225 O.2       20 UNK        -0.5000 
    114 N         -5.1748  -21.0238  -57.7266 N.am      21 UNK        -0.5000 
    115 CA        -4.0052  -21.5292  -58.4454 C.3       21 UNK         0.1400 
    116 CB        -4.2208  -23.0222  -58.7401 C.3       21 UNK        -0.1800 
    117 C         -2.6753  -21.3168  -57.6891 C.2       21 UNK         0.5000 
    118 O         -1.6178  -21.4136  -58.3130 O.2       21 UNK        -0.5000 
    119 N         -2.7422  -21.0545  -56.3744 N.am      22 UNK        -0.5000 
    120 CA        -1.6049  -20.8648  -55.4552 C.3       22 UNK         0.1400 
    121 C         -0.7312  -22.1386  -55.2276 C.2       22 UNK         0.5000 
    122 N         -1.2189  -23.3368  -55.5266 N.am      22 UNK        -0.7600 
    123 O          0.3923  -22.0513  -54.7406 O.2       22 UNK        -0.5000 
    124 C124       -0.7645  -19.5936  -55.7818 C.3       23 UNK        -0.0398 
    125 S125       -1.6951  -18.0464  -55.4851 S.3       23 UNK        -0.2404 
    126 C126       -0.5643  -17.1098  -54.3921 C.3       23 UNK        -0.0205 
    127 H127        5.0909  -13.2124  -48.9968 H         1 UNK         0.0600 
    128 H128        5.9783  -13.9623  -47.6664 H         1 UNK         0.0600 
    129 H129        5.9004  -12.2019  -47.7950 H         1 UNK         0.0600 
    130 H130        2.8936  -13.3157  -48.6900 H         1 UNK         0.3000 
    131 H131        1.6119  -14.1921  -46.3941 H         1 UNK         0.0600 
    132 H132       -0.5164  -13.5645  -47.6062 H         1 UNK         0.0800 
    133 H133        0.4256  -12.6946  -48.7890 H         1 UNK         0.0800 
    134 H134       -1.6333  -15.6218  -48.8032 H         1 UNK         0.0800 
    135 H135       -1.3665  -14.5056  -50.1246 H         1 UNK         0.0800 
    136 H136       -0.7634  -15.3087  -52.3531 H         1 UNK         0.1150 
    137 H137       -0.7027  -19.5331  -53.0812 H         1 UNK         0.1150 
    138 H138       -1.1397  -18.0678  -49.0931 H         1 UNK         0.1150 
    139 H139       -1.6296  -20.4670  -49.6656 H         1 UNK         0.0800 
    140 H140       -1.4907  -20.9924  -51.3220 H         1 UNK         0.0800 
    141 H141        0.1529  -19.9288  -48.1586 H         1 UNK         0.0800 
    142 H142        1.8508  -20.2290  -48.3546 H         1 UNK         0.0800 
    143 H143        1.5302  -22.6551  -47.9350 H         1 UNK         0.0600 
    144 H144        1.1083  -20.6619  -45.9304 H         1 UNK         0.3000 
    145 H145        1.2609  -22.8783  -43.1225 H         1 UNK         0.0600 
    146 H146        2.9985  -21.2227  -42.4815 H         1 UNK         0.0600 
    147 H147        3.6198  -22.3193  -43.7060 H         1 UNK         0.0600 
    148 H148        3.1401  -20.6879  -44.1550 H         1 UNK         0.0600 
    149 H149        0.8728  -20.0779  -43.2334 H         1 UNK         0.3000 
    150 H150       -2.6966  -20.0922  -43.6420 H         1 UNK         0.0600 
    151 H151       -2.1852  -20.4359  -41.2165 H         1 UNK         0.0600 
    152 H152       -2.4737  -18.7422  -41.5868 H         1 UNK         0.0600 
    153 H153       -0.8283  -19.3210  -41.3400 H         1 UNK         0.0600 
    154 H154       -0.9017  -17.9283  -43.3958 H         1 UNK         0.3000 
    155 H155       -0.2142  -17.4772  -46.9117 H         1 UNK         0.0600 
    156 H156       -1.7863  -15.9877  -44.7428 H         1 UNK         0.0600 
    157 H157       -0.9104  -15.1943  -46.0440 H         1 UNK         0.0600 
    158 H158       -2.2612  -16.2576  -46.4084 H         1 UNK         0.0600 
    159 H159        0.8210  -16.2341  -44.5471 H         1 UNK         0.3000 
    160 H160        3.6739  -18.2839  -44.1205 H         1 UNK         0.0600 
    161 H161        3.4646  -15.4791  -45.3251 H         1 UNK         0.0600 
    162 H162        4.3547  -16.8220  -46.0300 H         1 UNK         0.0600 
    163 H163        4.8741  -16.1362  -44.4965 H         1 UNK         0.0600 
    164 H164        2.8268  -15.8002  -42.9614 H         1 UNK         0.3000 
    165 H165        0.8009  -17.2021  -40.3703 H         1 UNK         0.0600 
    166 H166        2.3221  -15.6770  -39.1213 H         1 UNK         0.0600 
    167 H167        3.1565  -17.1525  -39.5866 H         1 UNK         0.0600 
    168 H168        3.4515  -15.6623  -40.4736 H         1 UNK         0.0600 
    169 H169        1.3583  -14.5103  -41.2192 H         1 UNK         0.3000 
    170 H170       -0.7062  -13.9308  -43.5189 H         1 UNK         0.0600 
    171 H171       -2.7150  -14.0642  -41.2154 H         1 UNK         0.0600 
    172 H172       -2.8169  -12.9564  -42.5841 H         1 UNK         0.0600 
    173 H173       -2.9350  -14.6880  -42.8414 H         1 UNK         0.0600 
    174 H174        0.3185  -12.2846  -42.4939 H         1 UNK         0.3000 
    175 H175        0.1287  -10.4348  -40.1801 H         1 UNK         0.0600 
    176 H176        1.9961  -10.6352  -38.5151 H         1 UNK         0.0600 
    177 H177        1.9505  -12.3902  -38.6782 H         1 UNK         0.0600 
    178 H178        0.5722  -11.5263  -38.0093 H         1 UNK         0.0600 
    179 H179        1.8385  -10.1431  -41.5654 H         1 UNK         0.3000 
    180 H180        4.2189  -10.4185  -42.1043 H         1 UNK         0.0600 
    181 H181        4.6843  -13.2339  -43.2167 H         1 UNK         0.0600 
    182 H182        5.5168  -12.5095  -41.8476 H         1 UNK         0.0600 
    183 H183        5.7424  -11.8456  -43.4591 H         1 UNK         0.0600 
    184 H184        3.4213  -11.6332  -44.6064 H         1 UNK         0.3000 
    185 H185        0.7743   -9.5149  -45.3828 H         1 UNK         0.0600 
    186 H186        3.5865   -8.8292  -46.3970 H         1 UNK         0.0600 
    187 H187        2.0697   -8.4355  -47.2079 H         1 UNK         0.0600 
    188 H188        2.4602   -7.6918  -45.6663 H         1 UNK         0.0600 
    189 H189        2.5796  -10.9544  -47.0851 H         1 UNK         0.3000 
    190 H190       -1.4792  -21.1747  -46.6078 H         1 UNK         0.3000 
    191 H191       -3.3373  -22.4680  -48.1569 H         1 UNK         0.0600 
    192 H192       -3.8206  -20.5512  -46.6139 H         1 UNK         0.0600 
    193 H193       -4.9547  -21.8595  -46.3484 H         1 UNK         0.0600 
    194 H194       -3.6297  -21.6149  -45.2259 H         1 UNK         0.0600 
    195 H195       -1.8114  -23.7410  -45.2273 H         1 UNK         0.3000 
    196 H196       -3.4085  -26.0198  -44.7956 H         1 UNK         0.0600 
    197 H197       -1.4185  -26.8264  -43.5085 H         1 UNK         0.0600 
    198 H198       -1.7592  -25.1373  -43.1626 H         1 UNK         0.0600 
    199 H199       -0.4278  -25.5657  -44.2352 H         1 UNK         0.0600 
    200 H200       -0.9424  -25.4692  -47.2498 H         1 UNK         0.3000 
    201 H201       -0.9473  -28.3432  -48.0741 H         1 UNK         0.0600 
    202 H202        1.2884  -27.3233  -47.7463 H         1 UNK         0.0600 
    203 H203        0.8893  -26.0193  -48.8616 H         1 UNK         0.0600 
    204 H204        1.0147  -27.6748  -49.4461 H         1 UNK         0.0600 
    205 H205       -1.4540  -24.9969  -49.2597 H         1 UNK         0.3000 
    206 H206       -2.1930  -25.8286  -51.9279 H         1 UNK         0.0600 
    207 H207       -0.8145  -23.8085  -51.4189 H         1 UNK         0.0600 
    208 H208       -2.2583  -23.3856  -52.3218 H         1 UNK         0.0600 
    209 H209       -2.1893  -23.0881  -50.5851 H         1 UNK         0.0600 
    210 H210       -4.0369  -26.8583  -49.9749 H         1 UNK         0.3000 
    211 H211       -6.2142  -27.2269  -49.6061 H         1 UNK         0.0600 
    212 H212       -6.4562  -26.2535  -52.5029 H         1 UNK         0.0600 
    213 H213       -7.6063  -27.2865  -51.6631 H         1 UNK         0.0600 
    214 H214       -5.9862  -27.8750  -51.9971 H         1 UNK         0.0600 
    215 H215       -5.7013  -25.0550  -48.2468 H         1 UNK         0.3000 
    216 H216       -6.5648  -23.3923  -47.1165 H         1 UNK         0.0600 
    217 H217       -8.9375  -22.8525  -47.0906 H         1 UNK         0.0600 
    218 H218       -8.7635  -24.5961  -47.1964 H         1 UNK         0.0600 
    219 H219       -9.2098  -23.6613  -48.6242 H         1 UNK         0.0600 
    220 H220       -5.1237  -23.0554  -49.5664 H         1 UNK         0.3000 
    221 H221       -4.1530  -21.4996  -50.7967 H         1 UNK         0.0600 
    222 H222       -5.6594  -19.4137  -49.1368 H         1 UNK         0.0600 
    223 H223       -4.0312  -20.0247  -48.8424 H         1 UNK         0.0600 
    224 H224       -4.3636  -19.0751  -50.2741 H         1 UNK         0.0600 
    225 H225       -5.6249  -22.7934  -52.2143 H         1 UNK         0.3000 
    226 H226       -7.8626  -21.6377  -53.5457 H         1 UNK         0.0600 
    227 H227       -7.2711  -24.0598  -53.6301 H         1 UNK         0.0600 
    228 H228       -7.3341  -23.4009  -55.2576 H         1 UNK         0.0600 
    229 H229       -5.7767  -23.6900  -54.4873 H         1 UNK         0.0600 
    230 H230       -7.9753  -20.7425  -55.6774 H         1 UNK         0.3000 
    231 H231       -6.3755  -18.5057  -56.0738 H         1 UNK         0.0600 
    232 H232       -8.2730  -19.9122  -58.0280 H         1 UNK         0.0600 
    233 H233       -7.7057  -18.2538  -58.1811 H         1 UNK         0.0600 
    234 H234       -8.7265  -18.7027  -56.8258 H         1 UNK         0.0600 
    235 H235       -5.7416  -21.7051  -57.2444 H         1 UNK         0.3000 
    236 H236       -3.9284  -21.0002  -59.3977 H         1 UNK         0.0600 
    237 H237       -5.1182  -23.1804  -59.3385 H         1 UNK         0.0600 
    238 H238       -3.3818  -23.4361  -59.3011 H         1 UNK         0.0600 
    239 H239       -4.3214  -23.6036  -57.8228 H         1 UNK         0.0600 
    240 H240       -3.6549  -20.9683  -55.9351 H         1 UNK         0.3000 
    241 H241       -2.0694  -20.7032  -54.4824 H         1 UNK         0.0600 
    242 H242       -2.1420  -23.4324  -55.9165 H         1 UNK         0.3800 
    243 H243       -0.6510  -24.1542  -55.3702 H         1 UNK         0.3800 
    244 H244       -0.4284  -19.6051  -56.8187 H         1 UNK         0.0800 
    245 H245        0.1494  -19.5639  -55.1881 H         1 UNK         0.0800 
    246 H246        0.4727  -17.3040  -54.6682 H         1 UNK         0.0800 
    247 H247       -0.7302  -16.0497  -54.5893 H         1 UNK         0.0800 
@<TRIPOS>BOND
     1    1    2 1    
     2    1  127 1    
     3    1  128 1    
     4    1  129 1    
     5    2    3 2    
     6    2    4 am   BACKBONE|DICT|INTERRES
     7    4    5 1    
     8    4  130 1    
     9    5    6 1    
    10    5   65 1    
    11    5  131 1    
    12    6    7 1    
    13    6  132 1    
    14    6  133 1    
    15    7    8 1    
    16    8    9 1    
    17    8  134 1    
    18    8  135 1    
    19    9   10 ar   
    20    9   14 ar   
    21   10   11 ar   
    22   10  136 1    
    23   11   12 ar   
    24   11  126 1    
    25   12   13 ar   
    26   12  137 1    
    27   13   14 ar   
    28   13   15 1    
    29   14  138 1    
    30   15   16 1    
    31   15  139 1    
    32   15  140 1    
    33   16   17 1    
    34   17   18 1    
    35   17  141 1    
    36   17  142 1    
    37   18   19 1    
    38   18   67 1    
    39   18  143 1    
    40   19   20 am   BACKBONE|DICT|INTERRES
    41   19  144 1    
    42   20   21 2    
    43   20   22 1    
    44   22   23 1    
    45   22   24 1    
    46   22  145 1    
    47   23  146 1    
    48   23  147 1    
    49   23  148 1    
    50   24   25 am   BACKBONE|DICT|INTERRES
    51   24  149 1    
    52   25   26 2    
    53   25   27 1    
    54   27   28 1    
    55   27   29 1    
    56   27  150 1    
    57   28  151 1    
    58   28  152 1    
    59   28  153 1    
    60   29   30 am   BACKBONE|DICT|INTERRES
    61   29  154 1    
    62   30   31 2    
    63   30   32 1    
    64   32   33 1    
    65   32   34 1    
    66   32  155 1    
    67   33  156 1    
    68   33  157 1    
    69   33  158 1    
    70   34   35 am   BACKBONE|DICT|INTERRES
    71   34  159 1    
    72   35   36 2    
    73   35   37 1    
    74   37   38 1    
    75   37   39 1    
    76   37  160 1    
    77   38  161 1    
    78   38  162 1    
    79   38  163 1    
    80   39   40 am   BACKBONE|DICT|INTERRES
    81   39  164 1    
    82   40   41 2    
    83   40   42 1    
    84   42   43 1    
    85   42   44 1    
    86   42  165 1    
    87   43  166 1    
    88   43  167 1    
    89   43  168 1    
    90   44   45 am   BACKBONE|DICT|INTERRES
    91   44  169 1    
    92   45   46 2    
    93   45   47 1    
    94   47   48 1    
    95   47   49 1    
    96   47  170 1    
    97   48  171 1    
    98   48  172 1    
    99   48  173 1    
   100   49   50 am   BACKBONE|DICT|INTERRES
   101   49  174 1    
   102   50   51 2    
   103   50   52 1    
   104   52   53 1    
   105   52   54 1    
   106   52  175 1    
   107   53  176 1    
   108   53  177 1    
   109   53  178 1    
   110   54   55 am   BACKBONE|DICT|INTERRES
   111   54  179 1    
   112   55   56 2    
   113   55   57 1    
   114   57   58 1    
   115   57   59 1    
   116   57  180 1    
   117   58  181 1    
   118   58  182 1    
   119   58  183 1    
   120   59   60 am   BACKBONE|DICT|INTERRES
   121   59  184 1    
   122   60   61 2    
   123   60   62 1    
   124   62   63 1    
   125   62   64 1    
   126   62  185 1    
   127   63  186 1    
   128   63  187 1    
   129   63  188 1    
   130   64   65 am   BACKBONE|DICT|INTERRES
   131   64  189 1    
   132   65   66 2    
   133   67   68 2    
   134   67   69 am   BACKBONE|DICT|INTERRES
   135   69   70 1    
   136   69  190 1    
   137   70   71 1    
   138   70   72 1    
   139   70  191 1    
   140   71  192 1    
   141   71  193 1    
   142   71  194 1    
   143   72   73 2    
   144   72   74 am   BACKBONE|DICT|INTERRES
   145   74   75 1    
   146   74  195 1    
   147   75   76 1    
   148   75   77 1    
   149   75  196 1    
   150   76  197 1    
   151   76  198 1    
   152   76  199 1    
   153   77   78 2    
   154   77   79 am   BACKBONE|DICT|INTERRES
   155   79   80 1    
   156   79  200 1    
   157   80   81 1    
   158   80   82 1    
   159   80  201 1    
   160   81  202 1    
   161   81  203 1    
   162   81  204 1    
   163   82   83 2    
   164   82   84 am   BACKBONE|DICT|INTERRES
   165   84   85 1    
   166   84  205 1    
   167   85   86 1    
   168   85   87 1    
   169   85  206 1    
   170   86  207 1    
   171   86  208 1    
   172   86  209 1    
   173   87   88 2    
   174   87   89 am   BACKBONE|DICT|INTERRES
   175   89   90 1    
   176   89  210 1    
   177   90   91 1    
   178   90   92 1    
   179   90  211 1    
   180   91  212 1    
   181   91  213 1    
   182   91  214 1    
   183   92   93 2    
   184   92   94 am   BACKBONE|DICT|INTERRES
   185   94   95 1    
   186   94  215 1    
   187   95   96 1    
   188   95   97 1    
   189   95  216 1    
   190   96  217 1    
   191   96  218 1    
   192   96  219 1    
   193   97   98 2    
   194   97   99 am   BACKBONE|DICT|INTERRES
   195   99  100 1    
   196   99  220 1    
   197  100  101 1    
   198  100  102 1    
   199  100  221 1    
   200  101  222 1    
   201  101  223 1    
   202  101  224 1    
   203  102  103 2    
   204  102  104 am   BACKBONE|DICT|INTERRES
   205  104  105 1    
   206  104  225 1    
   207  105  106 1    
   208  105  107 1    
   209  105  226 1    
   210  106  227 1    
   211  106  228 1    
   212  106  229 1    
   213  107  108 2    
   214  107  109 am   BACKBONE|DICT|INTERRES
   215  109  110 1    
   216  109  230 1    
   217  110  111 1    
   218  110  112 1    
   219  110  231 1    
   220  111  232 1    
   221  111  233 1    
   222  111  234 1    
   223  112  113 2    
   224  112  114 am   BACKBONE|DICT|INTERRES
   225  114  115 1    
   226  114  235 1    
   227  115  116 1    
   228  115  117 1    
   229  115  236 1    
   230  116  237 1    
   231  116  238 1    
   232  116  239 1    
   233  117  118 2    
   234  117  119 am   BACKBONE|DICT|INTERRES
   235  119  120 1    
   236  119  240 1    
   237  120  121 1    
   238  120  124 1    
   239  120  241 1    
   240  121  122 am   BACKBONE|DICT|INTERRES
   241  121  123 2    
   242  122  242 1    
   243  122  243 1    
   244  124  125 1    
   245  124  244 1    
   246  124  245 1    
   247  125  126 1    
   248  126  246 1    
   249  126  247 1    
@<TRIPOS>SUBSTRUCTURE
     1 UNK         1 GROUP             0       ****    0 ROOT    
