@<TRIPOS>MOLECULE
3R540
247   249    1
SMALL
USER_CHARGES


@<TRIPOS>ATOM
      1 CA          3.6182  -12.9743  -45.9111 C.3       0 UNK        -0.1800 
      2 C           2.6874  -13.7277  -46.8496 C.2       0 UNK         0.5000 
      3 O           2.6297  -13.4086  -48.0368 O.2       0 UNK        -0.5000 
      4 N           1.9666  -14.7237  -46.3174 N.am      1 UNK        -0.5000 
      5 CA          1.0603  -15.6295  -47.0393 C.3       1 UNK         0.1400 
      6 C6          1.7381  -16.4517  -48.1716 C.3       23 UNK        -0.0398 
      7 S7          3.2454  -17.3362  -47.6437 S.3       23 UNK        -0.2404 
      8 C8          3.9649  -17.8107  -49.2477 C.3       23 UNK        -0.0205 
      9 C9          3.2371  -18.9978  -49.8603 C.ar      23 UNK        -0.0193 
     10 C10         2.0736  -18.7983  -50.6048 C.ar      23 UNK        -0.1150 
     11 C11         1.3765  -19.8844  -51.1342 C.ar      23 UNK        -0.0193 
     12 C12         1.8677  -21.1785  -50.9430 C.ar      23 UNK        -0.1150 
     13 C13         3.0450  -21.3994  -50.2206 C.ar      23 UNK        -0.0193 
     14 C14         3.7238  -20.2961  -49.6812 C.ar      23 UNK        -0.1150 
     15 C15         3.5438  -22.8403  -50.0714 C.3       23 UNK        -0.0205 
     16 S16         4.8058  -23.1206  -48.7801 S.3       23 UNK        -0.2404 
     17 C17         3.8327  -22.7939  -47.2732 C.3       23 UNK        -0.0398 
     18 CA          3.7991  -23.9887  -46.2848 C.3       11 UNK         0.1400 
     19 N           3.6297  -23.4937  -44.9166 N.am      11 UNK        -0.5000 
     20 C           4.1733  -24.0080  -43.8077 C.2       10 UNK         0.5000 
     21 O           4.9477  -24.9649  -43.8059 O.2       10 UNK        -0.5000 
     22 CA          3.7605  -23.3561  -42.4696 C.3       10 UNK         0.1400 
     23 CB          4.8184  -22.3370  -42.0206 C.3       10 UNK        -0.1800 
     24 N           2.4527  -22.6934  -42.5185 N.am      10 UNK        -0.5000 
     25 C           1.2838  -23.3194  -42.7183 C.2       9 UNK         0.5000 
     26 O           1.1755  -24.5409  -42.8264 O.2       9 UNK        -0.5000 
     27 CA          0.0436  -22.4289  -42.9159 C.3       9 UNK         0.1400 
     28 CB         -0.5279  -21.9746  -41.5655 C.3       9 UNK        -0.1800 
     29 N           0.3078  -21.2610  -43.7605 N.am      9 UNK        -0.5000 
     30 C           0.7348  -21.3130  -45.0308 C.2       8 UNK         0.5000 
     31 O           0.9597  -22.3591  -45.6338 O.2       8 UNK        -0.5000 
     32 CA          1.0195  -19.9764  -45.7295 C.3       8 UNK         0.1400 
     33 CB         -0.2817  -19.3415  -46.2415 C.3       8 UNK        -0.1800 
     34 N           1.7301  -19.0583  -44.8398 N.am      8 UNK        -0.5000 
     35 C           3.0125  -19.2167  -44.4760 C.2       7 UNK         0.5000 
     36 O           3.7407  -20.1099  -44.9081 O.2       7 UNK        -0.5000 
     37 CA          3.5599  -18.2454  -43.4135 C.3       7 UNK         0.1400 
     38 CB          4.0822  -16.9557  -44.0616 C.3       7 UNK        -0.1800 
     39 N           2.5603  -17.9072  -42.4008 N.am      7 UNK        -0.5000 
     40 C           2.0872  -18.7736  -41.4926 C.2       6 UNK         0.5000 
     41 O           2.4802  -19.9356  -41.3881 O.2       6 UNK        -0.5000 
     42 CA          0.9468  -18.2724  -40.5842 C.3       6 UNK         0.1400 
     43 CB          1.5166  -17.6088  -39.3222 C.3       6 UNK        -0.1800 
     44 N           0.0439  -17.3346  -41.2562 N.am      6 UNK        -0.5000 
     45 C          -0.6708  -17.6085  -42.3572 C.2       5 UNK         0.5000 
     46 O          -0.6875  -18.7158  -42.8915 O.2       5 UNK        -0.5000 
     47 CA         -1.4625  -16.4539  -42.9988 C.3       5 UNK         0.1400 
     48 CB         -2.9645  -16.6113  -42.7233 C.3       5 UNK        -0.1800 
     49 N          -1.0295  -15.1246  -42.5620 N.am      5 UNK        -0.5000 
     50 C           0.1453  -14.5528  -42.8539 C.2       4 UNK         0.5000 
     51 O           1.0240  -15.1026  -43.5241 O.2       4 UNK        -0.5000 
     52 CA          0.3323  -13.1110  -42.3394 C.3       4 UNK         0.1400 
     53 CB          1.7616  -12.5863  -42.5517 C.3       4 UNK        -0.1800 
     54 N          -0.6048  -12.2166  -43.0164 N.am      4 UNK        -0.5000 
     55 C          -1.8984  -12.0589  -42.7018 C.2       3 UNK         0.5000 
     56 O          -2.4224  -12.5443  -41.6984 O.2       3 UNK        -0.5000 
     57 CA         -2.7585  -11.3021  -43.7333 C.3       3 UNK         0.1400 
     58 CB         -2.6607   -9.7841  -43.5196 C.3       3 UNK        -0.1800 
     59 N          -2.3717  -11.6299  -45.1105 N.am      3 UNK        -0.5000 
     60 C          -2.4966  -12.8473  -45.6604 C.2       2 UNK         0.5000 
     61 O          -3.0560  -13.7915  -45.1033 O.2       2 UNK        -0.5000 
     62 CA         -1.8344  -13.0816  -47.0246 C.3       2 UNK         0.1400 
     63 CB         -1.4422  -11.7947  -47.7787 C.3       2 UNK        -0.1800 
     64 N          -0.6416  -13.8846  -46.7816 N.am      2 UNK        -0.5000 
     65 C          -0.2230  -14.9142  -47.5246 C.2       1 UNK         0.5000 
     66 O          -0.8040  -15.3011  -48.5395 O.2       1 UNK        -0.5000 
     67 C           2.7133  -25.0308  -46.6619 C.2       11 UNK         0.5000 
     68 O           2.7253  -25.5359  -47.7847 O.2       11 UNK        -0.5000 
     69 N           1.7935  -25.3339  -45.7302 N.am      12 UNK        -0.5000 
     70 CA          0.6249  -26.2113  -45.8691 C.3       12 UNK         0.1400 
     71 CB          1.0463  -27.6659  -46.1669 C.3       12 UNK        -0.1800 
     72 C          -0.4448  -25.6744  -46.8476 C.2       12 UNK         0.5000 
     73 O          -1.2084  -26.4591  -47.4138 O.2       12 UNK        -0.5000 
     74 N          -0.5005  -24.3477  -47.0053 N.am      13 UNK        -0.5000 
     75 CA         -1.5242  -23.6081  -47.7386 C.3       13 UNK         0.1400 
     76 CB         -0.8176  -22.6332  -48.6921 C.3       13 UNK        -0.1800 
     77 C          -2.4542  -22.8820  -46.7434 C.2       13 UNK         0.5000 
     78 O          -2.2747  -23.0071  -45.5297 O.2       13 UNK        -0.5000 
     79 N          -3.4563  -22.1613  -47.2607 N.am      14 UNK        -0.5000 
     80 CA         -4.5085  -21.5200  -46.4647 C.3       14 UNK         0.1400 
     81 CB         -5.8658  -22.0552  -46.9530 C.3       14 UNK        -0.1800 
     82 C          -4.4864  -19.9817  -46.5437 C.2       14 UNK         0.5000 
     83 O          -5.2341  -19.3445  -45.8012 O.2       14 UNK        -0.5000 
     84 N          -3.6751  -19.4157  -47.4517 N.am      15 UNK        -0.5000 
     85 CA         -3.6701  -18.0063  -47.8714 C.3       15 UNK         0.1400 
     86 CB         -3.2851  -17.0606  -46.7118 C.3       15 UNK        -0.1800 
     87 C          -4.9908  -17.6052  -48.5697 C.2       15 UNK         0.5000 
     88 O          -5.4596  -16.4754  -48.4173 O.2       15 UNK        -0.5000 
     89 N          -5.5756  -18.5565  -49.3116 N.am      16 UNK        -0.5000 
     90 CA         -6.8183  -18.4058  -50.0694 C.3       16 UNK         0.1400 
     91 CB         -7.4752  -19.7941  -50.2034 C.3       16 UNK        -0.1800 
     92 C          -6.5870  -17.7289  -51.4397 C.2       16 UNK         0.5000 
     93 O          -5.5409  -17.1171  -51.6686 O.2       16 UNK        -0.5000 
     94 N          -7.5692  -17.8576  -52.3404 N.am      17 UNK        -0.5000 
     95 CA         -7.5155  -17.3645  -53.7168 C.3       17 UNK         0.1400 
     96 CB         -8.9068  -17.5228  -54.3497 C.3       17 UNK        -0.1800 
     97 C          -6.4674  -18.1031  -54.5704 C.2       17 UNK         0.5000 
     98 O          -6.2301  -19.2976  -54.3670 O.2       17 UNK        -0.5000 
     99 N          -5.9089  -17.3968  -55.5622 N.am      18 UNK        -0.5000 
    100 CA        -4.9299  -17.9214  -56.5211 C.3       18 UNK         0.1400 
    101 CB        -4.4164  -16.7718  -57.4002 C.3       18 UNK        -0.1800 
    102 C         -5.4741  -19.0685  -57.3953 C.2       18 UNK         0.5000 
    103 O         -4.7067  -19.9464  -57.7890 O.2       18 UNK        -0.5000 
    104 N         -6.7949  -19.0798  -57.6275 N.am      19 UNK        -0.5000 
    105 CA        -7.5265  -20.1505  -58.3113 C.3       19 UNK         0.1400 
    106 CB        -8.9754  -19.6933  -58.5383 C.3       19 UNK        -0.1800 
    107 C         -7.4999  -21.4974  -57.5571 C.2       19 UNK         0.5000 
    108 O         -7.6348  -22.5458  -58.1883 O.2       19 UNK        -0.5000 
    109 N         -7.3026  -21.4454  -56.2330 N.am      20 UNK        -0.5000 
    110 CA        -7.1288  -22.5995  -55.3507 C.3       20 UNK         0.1400 
    111 CB        -7.9559  -22.3583  -54.0746 C.3       20 UNK        -0.1800 
    112 C         -5.6421  -22.8355  -55.0091 C.2       20 UNK         0.5000 
    113 O         -5.3510  -23.5909  -54.0800 O.2       20 UNK        -0.5000 
    114 N         -4.7255  -22.1491  -55.7146 N.am      21 UNK        -0.5000 
    115 CA        -3.2746  -22.1008  -55.4812 C.3       21 UNK         0.1400 
    116 CB        -2.6246  -23.4584  -55.8184 C.3       21 UNK        -0.1800 
    117 C         -2.9129  -21.5953  -54.0664 C.2       21 UNK         0.5000 
    118 O         -1.9030  -22.0106  -53.4996 O.2       21 UNK        -0.5000 
    119 N         -3.7815  -20.7367  -53.5180 N.am      22 UNK        -0.5000 
    120 CA        -3.8086  -20.2575  -52.1325 C.3       22 UNK         0.1400 
    121 C         -4.0907  -21.3435  -51.0467 C.2       22 UNK         0.5000 
    122 N         -4.4684  -22.5665  -51.3989 N.am      22 UNK        -0.7600 
    123 O         -4.0515  -21.0538  -49.8549 O.2       22 UNK        -0.5000 
    124 C124       -2.7119  -19.1869  -51.8246 C.3       23 UNK        -0.0398 
    125 S125       -1.3204  -19.6417  -50.7335 S.3       23 UNK        -0.2404 
    126 C126        0.0801  -19.6533  -51.8890 C.3       23 UNK        -0.0205 
    127 H127        4.6091  -12.8873  -46.3569 H         1 UNK         0.0600 
    128 H128        3.7265  -13.4865  -44.9546 H         1 UNK         0.0600 
    129 H129        3.2369  -11.9700  -45.7275 H         1 UNK         0.0600 
    130 H130        2.0185  -14.8937  -45.3184 H         1 UNK         0.3000 
    131 H131        0.7224  -16.3394  -46.2839 H         1 UNK         0.0600 
    132 H132        1.0380  -17.1951  -48.5542 H         1 UNK         0.0800 
    133 H133        1.9881  -15.8050  -49.0138 H         1 UNK         0.0800 
    134 H134        3.9485  -16.9603  -49.9310 H         1 UNK         0.0800 
    135 H135        5.0170  -18.0571  -49.0975 H         1 UNK         0.0800 
    136 H136        1.6942  -17.7975  -50.7539 H         1 UNK         0.1150 
    137 H137        1.3250  -22.0177  -51.3558 H         1 UNK         0.1150 
    138 H138        4.6338  -20.4338  -49.1165 H         1 UNK         0.1150 
    139 H139        2.6979  -23.5008  -49.8720 H         1 UNK         0.0800 
    140 H140        3.9612  -23.1562  -51.0281 H         1 UNK         0.0800 
    141 H141        4.3055  -21.9318  -46.8007 H         1 UNK         0.0800 
    142 H142        2.8247  -22.4640  -47.5303 H         1 UNK         0.0800 
    143 H143        4.7602  -24.5040  -46.3398 H         1 UNK         0.0600 
    144 H144        2.9865  -22.7186  -44.8172 H         1 UNK         0.3000 
    145 H145        3.7075  -24.1487  -41.7206 H         1 UNK         0.0600 
    146 H146        4.5790  -21.9266  -41.0394 H         1 UNK         0.0600 
    147 H147        4.8956  -21.5045  -42.7211 H         1 UNK         0.0600 
    148 H148        5.8035  -22.7996  -41.9484 H         1 UNK         0.0600 
    149 H149        2.4492  -21.6863  -42.3870 H         1 UNK         0.3000 
    150 H150       -0.7155  -23.0308  -43.4174 H         1 UNK         0.0600 
    151 H151       -0.8193  -22.8330  -40.9591 H         1 UNK         0.0600 
    152 H152       -1.4141  -21.3537  -41.6996 H         1 UNK         0.0600 
    153 H153        0.2004  -21.4026  -40.9920 H         1 UNK         0.0600 
    154 H154        0.0958  -20.3509  -43.3599 H         1 UNK         0.3000 
    155 H155        1.6551  -20.1776  -46.5953 H         1 UNK         0.0600 
    156 H156       -0.8193  -20.0272  -46.8955 H         1 UNK         0.0600 
    157 H157       -0.0849  -18.4432  -46.8220 H         1 UNK         0.0600 
    158 H158       -0.9578  -19.0822  -45.4283 H         1 UNK         0.0600 
    159 H159        1.1819  -18.3436  -44.3860 H         1 UNK         0.3000 
    160 H160        4.3977  -18.7375  -42.9147 H         1 UNK         0.0600 
    161 H161        3.2838  -16.4088  -44.5606 H         1 UNK         0.0600 
    162 H162        4.8455  -17.1756  -44.8092 H         1 UNK         0.0600 
    163 H163        4.5310  -16.2933  -43.3214 H         1 UNK         0.0600 
    164 H164        2.1671  -16.9765  -42.4411 H         1 UNK         0.3000 
    165 H165        0.3579  -19.1389  -40.2789 H         1 UNK         0.0600 
    166 H166        0.7217  -17.3232  -38.6330 H         1 UNK         0.0600 
    167 H167        2.1785  -18.2916  -38.7876 H         1 UNK         0.0600 
    168 H168        2.0922  -16.7137  -39.5620 H         1 UNK         0.0600 
    169 H169       -0.0093  -16.4020  -40.8752 H         1 UNK         0.3000 
    170 H170       -1.3073  -16.5165  -44.0778 H         1 UNK         0.0600 
    171 H171       -3.3277  -17.5778  -43.0761 H         1 UNK         0.0600 
    172 H172       -3.1883  -16.5424  -41.6581 H         1 UNK         0.0600 
    173 H173       -3.5414  -15.8434  -43.2391 H         1 UNK         0.0600 
    174 H174       -1.7091  -14.5724  -42.0518 H         1 UNK         0.3000 
    175 H175        0.1308  -13.1116  -41.2662 H         1 UNK         0.0600 
    176 H176        1.9993  -12.4918  -43.6099 H         1 UNK         0.0600 
    177 H177        1.8909  -11.6057  -42.0934 H         1 UNK         0.0600 
    178 H178        2.4985  -13.2541  -42.1033 H         1 UNK         0.0600 
    179 H179       -0.2716  -11.7812  -43.8630 H         1 UNK         0.3000 
    180 H180       -3.7981  -11.6038  -43.5889 H         1 UNK         0.0600 
    181 H181       -2.9598   -9.5136  -42.5061 H         1 UNK         0.0600 
    182 H182       -3.3165   -9.2469  -44.2050 H         1 UNK         0.0600 
    183 H183       -1.6443   -9.4183  -43.6707 H         1 UNK         0.0600 
    184 H184       -1.9156  -10.9015  -45.6407 H         1 UNK         0.3000 
    185 H185       -2.5519  -13.6370  -47.6323 H         1 UNK         0.0600 
    186 H186       -2.3050  -11.1435  -47.9246 H         1 UNK         0.0600 
    187 H187       -0.6727  -11.2273  -47.2539 H         1 UNK         0.0600 
    188 H188       -1.0510  -12.0337  -48.7679 H         1 UNK         0.0600 
    189 H189       -0.1179  -13.6625  -45.9480 H         1 UNK         0.3000 
    190 H190        1.8579  -24.8600  -44.8373 H         1 UNK         0.3000 
    191 H191        0.1456  -26.2117  -44.8893 H         1 UNK         0.0600 
    192 H192        0.1948  -28.3426  -46.0883 H         1 UNK         0.0600 
    193 H193        1.7992  -28.0114  -45.4585 H         1 UNK         0.0600 
    194 H194        1.4544  -27.7741  -47.1719 H         1 UNK         0.0600 
    195 H195        0.1227  -23.7658  -46.4485 H         1 UNK         0.3000 
    196 H196       -2.1391  -24.2881  -48.3310 H         1 UNK         0.0600 
    197 H197       -0.2246  -21.8913  -48.1583 H         1 UNK         0.0600 
    198 H198       -0.1471  -23.1640  -49.3681 H         1 UNK         0.0600 
    199 H199       -1.5398  -22.1060  -49.3121 H         1 UNK         0.0600 
    200 H200       -3.5479  -22.0587  -48.2678 H         1 UNK         0.3000 
    201 H201       -4.4103  -21.7767  -45.4082 H         1 UNK         0.0600 
    202 H202       -6.6907  -21.6157  -46.3908 H         1 UNK         0.0600 
    203 H203       -5.9293  -23.1362  -46.8280 H         1 UNK         0.0600 
    204 H204       -6.0298  -21.8308  -48.0075 H         1 UNK         0.0600 
    205 H205       -3.1507  -20.0415  -48.0487 H         1 UNK         0.3000 
    206 H206       -2.8913  -17.9186  -48.6302 H         1 UNK         0.0600 
    207 H207       -2.3388  -17.3481  -46.2591 H         1 UNK         0.0600 
    208 H208       -3.1688  -16.0376  -47.0696 H         1 UNK         0.0600 
    209 H209       -4.0404  -17.0388  -45.9266 H         1 UNK         0.0600 
    210 H210       -5.1035  -19.4511  -49.3914 H         1 UNK         0.3000 
    211 H211       -7.4963  -17.7652  -49.5019 H         1 UNK         0.0600 
    212 H212       -6.9117  -20.4492  -50.8681 H         1 UNK         0.0600 
    213 H213       -8.4896  -19.7213  -50.5962 H         1 UNK         0.0600 
    214 H214       -7.5506  -20.2879  -49.2346 H         1 UNK         0.0600 
    215 H215       -8.3840  -18.3993  -52.0943 H         1 UNK         0.3000 
    216 H216       -7.2600  -16.3032  -53.6872 H         1 UNK         0.0600 
    217 H217       -9.6629  -16.9800  -53.7820 H         1 UNK         0.0600 
    218 H218       -9.2104  -18.5697  -54.3980 H         1 UNK         0.0600 
    219 H219       -8.9243  -17.1293  -55.3668 H         1 UNK         0.0600 
    220 H220       -6.1645  -16.4260  -55.6736 H         1 UNK         0.3000 
    221 H221       -4.0875  -18.3188  -55.9507 H         1 UNK         0.0600 
    222 H222       -3.6667  -17.1265  -58.1089 H         1 UNK         0.0600 
    223 H223       -5.2219  -16.3140  -57.9758 H         1 UNK         0.0600 
    224 H224       -3.9483  -15.9930  -56.7978 H         1 UNK         0.0600 
    225 H225       -7.3466  -18.3147  -57.2691 H         1 UNK         0.3000 
    226 H226       -7.0582  -20.3097  -59.2849 H         1 UNK         0.0600 
    227 H227       -9.0133  -18.7838  -59.1382 H         1 UNK         0.0600 
    228 H228       -9.5473  -20.4551  -59.0697 H         1 UNK         0.0600 
    229 H229       -9.4875  -19.4965  -57.5953 H         1 UNK         0.0600 
    230 H230       -7.1648  -20.5425  -55.7941 H         1 UNK         0.3000 
    231 H231       -7.4998  -23.5064  -55.8319 H         1 UNK         0.0600 
    232 H232       -7.9244  -23.2259  -53.4146 H         1 UNK         0.0600 
    233 H233       -9.0033  -22.1730  -54.3131 H         1 UNK         0.0600 
    234 H234       -7.5851  -21.5029  -53.5084 H         1 UNK         0.0600 
    235 H235       -5.0533  -21.5459  -56.4598 H         1 UNK         0.3000 
    236 H236       -2.8758  -21.3617  -56.1772 H         1 UNK         0.0600 
    237 H237       -2.9268  -24.2377  -55.1182 H         1 UNK         0.0600 
    238 H238       -2.8947  -23.7858  -56.8223 H         1 UNK         0.0600 
    239 H239       -1.5367  -23.3912  -55.7822 H         1 UNK         0.0600 
    240 H240       -4.5928  -20.4643  -54.0628 H         1 UNK         0.3000 
    241 H241       -4.7449  -19.7061  -52.1251 H         1 UNK         0.0600 
    242 H242       -4.6831  -23.2407  -50.6839 H         1 UNK         0.3800 
    243 H243       -4.5763  -22.8276  -52.3726 H         1 UNK         0.3800 
    244 H244       -3.1921  -18.3434  -51.3282 H         1 UNK         0.0800 
    245 H245       -2.3219  -18.7663  -52.7521 H         1 UNK         0.0800 
    246 H246       -0.0621  -20.4301  -52.6397 H         1 UNK         0.0800 
    247 H247        0.1237  -18.7039  -52.4248 H         1 UNK         0.0800 
@<TRIPOS>BOND
     1    1    2 1    
     2    1  127 1    
     3    1  128 1    
     4    1  129 1    
     5    2    3 2    
     6    2    4 am   BACKBONE|DICT|INTERRES
     7    4    5 1    
     8    4  130 1    
     9    5    6 1    
    10    5   65 1    
    11    5  131 1    
    12    6    7 1    
    13    6  132 1    
    14    6  133 1    
    15    7    8 1    
    16    8    9 1    
    17    8  134 1    
    18    8  135 1    
    19    9   10 ar   
    20    9   14 ar   
    21   10   11 ar   
    22   10  136 1    
    23   11   12 ar   
    24   11  126 1    
    25   12   13 ar   
    26   12  137 1    
    27   13   14 ar   
    28   13   15 1    
    29   14  138 1    
    30   15   16 1    
    31   15  139 1    
    32   15  140 1    
    33   16   17 1    
    34   17   18 1    
    35   17  141 1    
    36   17  142 1    
    37   18   19 1    
    38   18   67 1    
    39   18  143 1    
    40   19   20 am   BACKBONE|DICT|INTERRES
    41   19  144 1    
    42   20   21 2    
    43   20   22 1    
    44   22   23 1    
    45   22   24 1    
    46   22  145 1    
    47   23  146 1    
    48   23  147 1    
    49   23  148 1    
    50   24   25 am   BACKBONE|DICT|INTERRES
    51   24  149 1    
    52   25   26 2    
    53   25   27 1    
    54   27   28 1    
    55   27   29 1    
    56   27  150 1    
    57   28  151 1    
    58   28  152 1    
    59   28  153 1    
    60   29   30 am   BACKBONE|DICT|INTERRES
    61   29  154 1    
    62   30   31 2    
    63   30   32 1    
    64   32   33 1    
    65   32   34 1    
    66   32  155 1    
    67   33  156 1    
    68   33  157 1    
    69   33  158 1    
    70   34   35 am   BACKBONE|DICT|INTERRES
    71   34  159 1    
    72   35   36 2    
    73   35   37 1    
    74   37   38 1    
    75   37   39 1    
    76   37  160 1    
    77   38  161 1    
    78   38  162 1    
    79   38  163 1    
    80   39   40 am   BACKBONE|DICT|INTERRES
    81   39  164 1    
    82   40   41 2    
    83   40   42 1    
    84   42   43 1    
    85   42   44 1    
    86   42  165 1    
    87   43  166 1    
    88   43  167 1    
    89   43  168 1    
    90   44   45 am   BACKBONE|DICT|INTERRES
    91   44  169 1    
    92   45   46 2    
    93   45   47 1    
    94   47   48 1    
    95   47   49 1    
    96   47  170 1    
    97   48  171 1    
    98   48  172 1    
    99   48  173 1    
   100   49   50 am   BACKBONE|DICT|INTERRES
   101   49  174 1    
   102   50   51 2    
   103   50   52 1    
   104   52   53 1    
   105   52   54 1    
   106   52  175 1    
   107   53  176 1    
   108   53  177 1    
   109   53  178 1    
   110   54   55 am   BACKBONE|DICT|INTERRES
   111   54  179 1    
   112   55   56 2    
   113   55   57 1    
   114   57   58 1    
   115   57   59 1    
   116   57  180 1    
   117   58  181 1    
   118   58  182 1    
   119   58  183 1    
   120   59   60 am   BACKBONE|DICT|INTERRES
   121   59  184 1    
   122   60   61 2    
   123   60   62 1    
   124   62   63 1    
   125   62   64 1    
   126   62  185 1    
   127   63  186 1    
   128   63  187 1    
   129   63  188 1    
   130   64   65 am   BACKBONE|DICT|INTERRES
   131   64  189 1    
   132   65   66 2    
   133   67   68 2    
   134   67   69 am   BACKBONE|DICT|INTERRES
   135   69   70 1    
   136   69  190 1    
   137   70   71 1    
   138   70   72 1    
   139   70  191 1    
   140   71  192 1    
   141   71  193 1    
   142   71  194 1    
   143   72   73 2    
   144   72   74 am   BACKBONE|DICT|INTERRES
   145   74   75 1    
   146   74  195 1    
   147   75   76 1    
   148   75   77 1    
   149   75  196 1    
   150   76  197 1    
   151   76  198 1    
   152   76  199 1    
   153   77   78 2    
   154   77   79 am   BACKBONE|DICT|INTERRES
   155   79   80 1    
   156   79  200 1    
   157   80   81 1    
   158   80   82 1    
   159   80  201 1    
   160   81  202 1    
   161   81  203 1    
   162   81  204 1    
   163   82   83 2    
   164   82   84 am   BACKBONE|DICT|INTERRES
   165   84   85 1    
   166   84  205 1    
   167   85   86 1    
   168   85   87 1    
   169   85  206 1    
   170   86  207 1    
   171   86  208 1    
   172   86  209 1    
   173   87   88 2    
   174   87   89 am   BACKBONE|DICT|INTERRES
   175   89   90 1    
   176   89  210 1    
   177   90   91 1    
   178   90   92 1    
   179   90  211 1    
   180   91  212 1    
   181   91  213 1    
   182   91  214 1    
   183   92   93 2    
   184   92   94 am   BACKBONE|DICT|INTERRES
   185   94   95 1    
   186   94  215 1    
   187   95   96 1    
   188   95   97 1    
   189   95  216 1    
   190   96  217 1    
   191   96  218 1    
   192   96  219 1    
   193   97   98 2    
   194   97   99 am   BACKBONE|DICT|INTERRES
   195   99  100 1    
   196   99  220 1    
   197  100  101 1    
   198  100  102 1    
   199  100  221 1    
   200  101  222 1    
   201  101  223 1    
   202  101  224 1    
   203  102  103 2    
   204  102  104 am   BACKBONE|DICT|INTERRES
   205  104  105 1    
   206  104  225 1    
   207  105  106 1    
   208  105  107 1    
   209  105  226 1    
   210  106  227 1    
   211  106  228 1    
   212  106  229 1    
   213  107  108 2    
   214  107  109 am   BACKBONE|DICT|INTERRES
   215  109  110 1    
   216  109  230 1    
   217  110  111 1    
   218  110  112 1    
   219  110  231 1    
   220  111  232 1    
   221  111  233 1    
   222  111  234 1    
   223  112  113 2    
   224  112  114 am   BACKBONE|DICT|INTERRES
   225  114  115 1    
   226  114  235 1    
   227  115  116 1    
   228  115  117 1    
   229  115  236 1    
   230  116  237 1    
   231  116  238 1    
   232  116  239 1    
   233  117  118 2    
   234  117  119 am   BACKBONE|DICT|INTERRES
   235  119  120 1    
   236  119  240 1    
   237  120  121 1    
   238  120  124 1    
   239  120  241 1    
   240  121  122 am   BACKBONE|DICT|INTERRES
   241  121  123 2    
   242  122  242 1    
   243  122  243 1    
   244  124  125 1    
   245  124  244 1    
   246  124  245 1    
   247  125  126 1    
   248  126  246 1    
   249  126  247 1    
@<TRIPOS>SUBSTRUCTURE
     1 UNK         1 GROUP             0       ****    0 ROOT    
