@<TRIPOS>MOLECULE
3R540
247   249    1
SMALL
USER_CHARGES


@<TRIPOS>ATOM
      1 CA          0.1134  -11.4489  -51.8701 C.3       0 UNK        -0.1800 
      2 C           0.7202  -11.5103  -50.4754 C.2       0 UNK         0.5000 
      3 O           0.7061  -10.5120  -49.7561 O.2       0 UNK        -0.5000 
      4 N           1.2527  -12.6788  -50.0938 N.am      1 UNK        -0.5000 
      5 CA          1.8587  -12.9400  -48.7797 C.3       1 UNK         0.1400 
      6 C6          2.9084  -14.0894  -48.8744 C.3       23 UNK        -0.0398 
      7 S7          2.3252  -15.7877  -48.5220 S.3       23 UNK        -0.2404 
      8 C8          1.7396  -16.3409  -50.1515 C.3       23 UNK        -0.0205 
      9 C9          0.8566  -17.5663  -49.9942 C.ar      23 UNK        -0.0193 
     10 C10        -0.5063  -17.4119  -49.7262 C.ar      23 UNK        -0.1150 
     11 C11        -1.3187  -18.5276  -49.5086 C.ar      23 UNK        -0.0193 
     12 C12        -0.7549  -19.8034  -49.5627 C.ar      23 UNK        -0.1150 
     13 C13         0.6023  -19.9742  -49.8499 C.ar      23 UNK        -0.0193 
     14 C14         1.4028  -18.8501  -50.0736 C.ar      23 UNK        -0.1150 
     15 C15         1.1965  -21.3758  -49.9024 C.3       23 UNK        -0.0205 
     16 S16         2.5430  -21.6450  -48.7040 S.3       23 UNK        -0.2404 
     17 C17         1.8165  -21.0824  -47.1286 C.3       23 UNK        -0.0398 
     18 CA          1.0304  -22.1859  -46.3713 C.3       11 UNK         0.1400 
     19 N           1.3394  -22.1506  -44.9422 N.am      11 UNK        -0.5000 
     20 C           1.0916  -23.1088  -44.0420 C.2       10 UNK         0.5000 
     21 O           0.5851  -24.1945  -44.3270 O.2       10 UNK        -0.5000 
     22 CA          1.4402  -22.7641  -42.5755 C.3       10 UNK         0.1400 
     23 CB          1.8117  -24.0050  -41.7385 C.3       10 UNK        -0.1800 
     24 N           2.4595  -21.7106  -42.4579 N.am      10 UNK        -0.5000 
     25 C           3.7380  -21.7607  -42.8670 C.2       9 UNK         0.5000 
     26 O           4.2725  -22.7743  -43.3178 O.2       9 UNK        -0.5000 
     27 CA          4.5532  -20.4519  -42.8147 C.3       9 UNK         0.1400 
     28 CB          4.8802  -19.9721  -44.2381 C.3       9 UNK        -0.1800 
     29 N           3.8733  -19.3672  -42.1039 N.am      9 UNK        -0.5000 
     30 C           3.8377  -19.2396  -40.7711 C.2       8 UNK         0.5000 
     31 O           4.4025  -20.0112  -39.9951 O.2       8 UNK        -0.5000 
     32 CA          3.0086  -18.0696  -40.2093 C.3       8 UNK         0.1400 
     33 CB          3.8335  -16.7744  -40.2139 C.3       8 UNK        -0.1800 
     34 N           1.7450  -17.8517  -40.9204 N.am      8 UNK        -0.5000 
     35 C           0.7421  -18.7411  -40.9810 C.2       7 UNK         0.5000 
     36 O           0.7883  -19.8621  -40.4746 O.2       7 UNK        -0.5000 
     37 CA         -0.5121  -18.3257  -41.7674 C.3       7 UNK         0.1400 
     38 CB         -1.3871  -17.3722  -40.9405 C.3       7 UNK        -0.1800 
     39 N          -0.1805  -17.7046  -43.0468 N.am      7 UNK        -0.5000 
     40 C           0.3683  -18.3540  -44.0816 C.2       6 UNK         0.5000 
     41 O           0.5985  -19.5630  -44.0863 O.2       6 UNK        -0.5000 
     42 CA          0.7480  -17.5084  -45.3079 C.3       6 UNK         0.1400 
     43 CB         -0.4931  -17.2026  -46.1584 C.3       6 UNK        -0.1800 
     44 N           1.4182  -16.2643  -44.9323 N.am      6 UNK        -0.5000 
     45 C           2.5943  -16.2022  -44.2907 C.2       5 UNK         0.5000 
     46 O           3.2566  -17.1887  -43.9703 O.2       5 UNK        -0.5000 
     47 CA          3.0879  -14.8041  -43.8876 C.3       5 UNK         0.1400 
     48 CB          3.9565  -14.1846  -44.9890 C.3       5 UNK        -0.1800 
     49 N           1.9841  -13.9044  -43.5469 N.am      5 UNK        -0.5000 
     50 C           1.2693  -14.0255  -42.4199 C.2       4 UNK         0.5000 
     51 O           1.4403  -14.9262  -41.5964 O.2       4 UNK        -0.5000 
     52 CA          0.1719  -12.9766  -42.1749 C.3       4 UNK         0.1400 
     53 CB          0.7770  -11.5753  -41.9912 C.3       4 UNK        -0.1800 
     54 N          -0.8695  -12.9247  -43.2030 N.am      4 UNK        -0.5000 
     55 C          -1.6362  -13.9515  -43.5968 C.2       3 UNK         0.5000 
     56 O          -1.4301  -15.1244  -43.2928 O.2       3 UNK        -0.5000 
     57 CA         -2.8565  -13.6122  -44.4713 C.3       3 UNK         0.1400 
     58 CB         -4.0908  -13.3994  -43.5826 C.3       3 UNK        -0.1800 
     59 N          -2.6480  -12.4097  -45.2837 N.am      3 UNK        -0.5000 
     60 C          -2.0413  -12.3347  -46.4767 C.2       2 UNK         0.5000 
     61 O          -1.8845  -11.2531  -47.0438 O.2       2 UNK        -0.5000 
     62 CA         -1.5938  -13.6323  -47.1890 C.3       2 UNK         0.1400 
     63 CB         -2.7483  -14.2080  -48.0250 C.3       2 UNK        -0.1800 
     64 N          -0.4509  -13.4193  -48.0697 N.am      2 UNK        -0.5000 
     65 C           0.7944  -13.1317  -47.6666 C.2       1 UNK         0.5000 
     66 O           1.1164  -13.0377  -46.4799 O.2       1 UNK        -0.5000 
     67 C          -0.4890  -22.0525  -46.6056 C.2       11 UNK         0.5000 
     68 O          -1.0214  -22.6377  -47.5487 O.2       11 UNK        -0.5000 
     69 N          -1.1678  -21.3205  -45.7069 N.am      12 UNK        -0.5000 
     70 CA         -2.6106  -21.0629  -45.7011 C.3       12 UNK         0.1400 
     71 CB         -2.9477  -20.1306  -44.5276 C.3       12 UNK        -0.1800 
     72 C          -3.4999  -22.3225  -45.6654 C.2       12 UNK         0.5000 
     73 O          -4.6663  -22.2421  -46.0458 O.2       12 UNK        -0.5000 
     74 N          -2.9397  -23.4716  -45.2633 N.am      13 UNK        -0.5000 
     75 CA         -3.5856  -24.7835  -45.3366 C.3       13 UNK         0.1400 
     76 CB         -2.6899  -25.8161  -44.6361 C.3       13 UNK        -0.1800 
     77 C          -3.9031  -25.2339  -46.7797 C.2       13 UNK         0.5000 
     78 O          -4.8471  -25.9993  -46.9773 O.2       13 UNK        -0.5000 
     79 N          -3.1313  -24.7437  -47.7613 N.am      14 UNK        -0.5000 
     80 CA         -3.3049  -25.0422  -49.1836 C.3       14 UNK         0.1400 
     81 CB         -1.9329  -24.9705  -49.8715 C.3       14 UNK        -0.1800 
     82 C          -4.3116  -24.1075  -49.8838 C.2       14 UNK         0.5000 
     83 O          -4.6368  -24.3480  -51.0484 O.2       14 UNK        -0.5000 
     84 N          -4.7940  -23.0629  -49.1894 N.am      15 UNK        -0.5000 
     85 CA         -5.6827  -22.0243  -49.7281 C.3       15 UNK         0.1400 
     86 CB         -5.9065  -20.9367  -48.6693 C.3       15 UNK        -0.1800 
     87 C          -7.0376  -22.5489  -50.2398 C.2       15 UNK         0.5000 
     88 O          -7.6339  -21.9227  -51.1156 O.2       15 UNK        -0.5000 
     89 N          -7.4731  -23.7137  -49.7386 N.am      16 UNK        -0.5000 
     90 CA         -8.6473  -24.4526  -50.2122 C.3       16 UNK         0.1400 
     91 CB         -8.8825  -25.6547  -49.2853 C.3       16 UNK        -0.1800 
     92 C          -8.5358  -24.9176  -51.6810 C.2       16 UNK         0.5000 
     93 O          -9.5628  -25.1026  -52.3346 O.2       16 UNK        -0.5000 
     94 N          -7.2999  -25.0702  -52.1754 N.am      17 UNK        -0.5000 
     95 CA         -6.9651  -25.3814  -53.5651 C.3       17 UNK         0.1400 
     96 CB         -6.0031  -26.5829  -53.5699 C.3       17 UNK        -0.1800 
     97 C          -6.3454  -24.1607  -54.2800 C.2       17 UNK         0.5000 
     98 O          -5.7031  -24.3312  -55.3164 O.2       17 UNK        -0.5000 
     99 N          -6.5049  -22.9597  -53.6974 N.am      18 UNK        -0.5000 
    100 CA        -5.9448  -21.6596  -54.0999 C.3       18 UNK         0.1400 
    101 CB        -6.3830  -21.2792  -55.5292 C.3       18 UNK        -0.1800 
    102 C         -4.4161  -21.5367  -53.9184 C.2       18 UNK         0.5000 
    103 O         -3.8504  -20.4899  -54.2459 O.2       18 UNK        -0.5000 
    104 N         -3.7689  -22.5971  -53.4129 N.am      19 UNK        -0.5000 
    105 CA        -2.3472  -22.7416  -53.0768 C.3       19 UNK         0.1400 
    106 CB        -2.0073  -21.8042  -51.9064 C.3       19 UNK        -0.1800 
    107 C         -1.3457  -22.5454  -54.2368 C.2       19 UNK         0.5000 
    108 O         -0.1389  -22.6054  -53.9983 O.2       19 UNK        -0.5000 
    109 N         -1.8503  -22.2724  -55.4495 N.am      20 UNK        -0.5000 
    110 CA        -1.1375  -21.6914  -56.5927 C.3       20 UNK         0.1400 
    111 CB        -0.1169  -22.6894  -57.1787 C.3       20 UNK        -0.1800 
    112 C         -0.5201  -20.3129  -56.2525 C.2       20 UNK         0.5000 
    113 O          0.5388  -19.9653  -56.7792 O.2       20 UNK        -0.5000 
    114 N         -1.1846  -19.5631  -55.3609 N.am      21 UNK        -0.5000 
    115 CA        -0.7073  -18.3024  -54.8065 C.3       21 UNK         0.1400 
    116 CB         0.1715  -18.5711  -53.5665 C.3       21 UNK        -0.1800 
    117 C         -1.9031  -17.3859  -54.5164 C.2       21 UNK         0.5000 
    118 O         -2.2414  -16.5527  -55.3582 O.2       21 UNK        -0.5000 
    119 N         -2.5096  -17.5407  -53.3334 N.am      22 UNK        -0.5000 
    120 CA        -3.6197  -16.7096  -52.8404 C.3       22 UNK         0.1400 
    121 C         -4.9929  -16.9166  -53.5431 C.2       22 UNK         0.5000 
    122 N         -5.2160  -17.9998  -54.2731 N.am      22 UNK        -0.7600 
    123 O         -5.8687  -16.0618  -53.4386 O.2       22 UNK        -0.5000 
    124 C124       -3.7465  -16.7767  -51.2973 C.3       23 UNK        -0.0398 
    125 S125       -3.8648  -18.4761  -50.6305 S.3       23 UNK        -0.2404 
    126 C126       -2.7916  -18.3667  -49.1645 C.3       23 UNK        -0.0205 
    127 H127        0.1973  -12.4023  -52.3925 H         1 UNK         0.0600 
    128 H128       -0.9431  -11.1874  -51.8079 H         1 UNK         0.0600 
    129 H129        0.6191  -10.6892  -52.4661 H         1 UNK         0.0600 
    130 H130        1.2510  -13.4536  -50.7404 H         1 UNK         0.3000 
    131 H131        2.4128  -12.0400  -48.5035 H         1 UNK         0.0600 
    132 H132        3.7070  -13.8870  -48.1611 H         1 UNK         0.0800 
    133 H133        3.4069  -14.0786  -49.8448 H         1 UNK         0.0800 
    134 H134        2.5934  -16.5603  -50.7943 H         1 UNK         0.0800 
    135 H135        1.1754  -15.5456  -50.6383 H         1 UNK         0.0800 
    136 H136       -0.9206  -16.4181  -49.6545 H         1 UNK         0.1150 
    137 H137       -1.3779  -20.6661  -49.3748 H         1 UNK         0.1150 
    138 H138        2.4568  -18.9753  -50.2778 H         1 UNK         0.1150 
    139 H139        0.4295  -22.1297  -49.7239 H         1 UNK         0.0800 
    140 H140        1.5757  -21.5598  -50.9085 H         1 UNK         0.0800 
    141 H141        1.2290  -20.1744  -47.2721 H         1 UNK         0.0800 
    142 H142        2.6702  -20.7585  -46.5325 H         1 UNK         0.0800 
    143 H143        1.3352  -23.1673  -46.7408 H         1 UNK         0.0600 
    144 H144        1.6437  -21.2550  -44.5793 H         1 UNK         0.3000 
    145 H145        0.5302  -22.3421  -42.1465 H         1 UNK         0.0600 
    146 H146        2.0562  -23.7290  -40.7127 H         1 UNK         0.0600 
    147 H147        0.9798  -24.7088  -41.6947 H         1 UNK         0.0600 
    148 H148        2.6656  -24.5382  -42.1566 H         1 UNK         0.0600 
    149 H149        2.1237  -20.8317  -42.0847 H         1 UNK         0.3000 
    150 H150        5.4945  -20.6741  -42.3078 H         1 UNK         0.0600 
    151 H151        5.4124  -20.7386  -44.8030 H         1 UNK         0.0600 
    152 H152        5.5140  -19.0854  -44.2183 H         1 UNK         0.0600 
    153 H153        3.9758  -19.7216  -44.7930 H         1 UNK         0.0600 
    154 H154        3.4320  -18.6556  -42.6806 H         1 UNK         0.3000 
    155 H155        2.7634  -18.3091  -39.1725 H         1 UNK         0.0600 
    156 H156        4.0953  -16.4703  -41.2272 H         1 UNK         0.0600 
    157 H157        4.7636  -16.9011  -39.6586 H         1 UNK         0.0600 
    158 H158        3.2860  -15.9551  -39.7477 H         1 UNK         0.0600 
    159 H159        1.6150  -16.9378  -41.3434 H         1 UNK         0.3000 
    160 H160       -1.0935  -19.2277  -41.9690 H         1 UNK         0.0600 
    161 H161       -2.3177  -17.1439  -41.4605 H         1 UNK         0.0600 
    162 H162       -0.8775  -16.4287  -40.7406 H         1 UNK         0.0600 
    163 H163       -1.6509  -17.8157  -39.9797 H         1 UNK         0.0600 
    164 H164       -0.3904  -16.7136  -43.1355 H         1 UNK         0.3000 
    165 H165        1.4454  -18.0872  -45.9165 H         1 UNK         0.0600 
    166 H166       -0.2371  -16.5898  -47.0217 H         1 UNK         0.0600 
    167 H167       -0.9392  -18.1240  -46.5348 H         1 UNK         0.0600 
    168 H168       -1.2592  -16.6771  -45.5882 H         1 UNK         0.0600 
    169 H169        0.9445  -15.3984  -45.1436 H         1 UNK         0.3000 
    170 H170        3.7169  -14.9183  -43.0027 H         1 UNK         0.0600 
    171 H171        4.8213  -14.8141  -45.2024 H         1 UNK         0.0600 
    172 H172        3.4007  -14.0716  -45.9162 H         1 UNK         0.0600 
    173 H173        4.3298  -13.2033  -44.6962 H         1 UNK         0.0600 
    174 H174        1.7488  -13.1856  -44.2197 H         1 UNK         0.3000 
    175 H175       -0.3210  -13.2480  -41.2390 H         1 UNK         0.0600 
    176 H176        0.0224  -10.8610  -41.6615 H         1 UNK         0.0600 
    177 H177        1.5642  -11.5843  -41.2359 H         1 UNK         0.0600 
    178 H178        1.2133  -11.1972  -42.9165 H         1 UNK         0.0600 
    179 H179       -1.1016  -12.0061  -43.5503 H         1 UNK         0.3000 
    180 H180       -3.0690  -14.4733  -45.1057 H         1 UNK         0.0600 
    181 H181       -3.9628  -12.5534  -42.9060 H         1 UNK         0.0600 
    182 H182       -4.2888  -14.2811  -42.9712 H         1 UNK         0.0600 
    183 H183       -4.9820  -13.2164  -44.1834 H         1 UNK         0.0600 
    184 H184       -2.9793  -11.5494  -44.8726 H         1 UNK         0.3000 
    185 H185       -1.2800  -14.3725  -46.4547 H         1 UNK         0.0600 
    186 H186       -2.4630  -15.1465  -48.4952 H         1 UNK         0.0600 
    187 H187       -3.6259  -14.4097  -47.4104 H         1 UNK         0.0600 
    188 H188       -3.0553  -13.5190  -48.8130 H         1 UNK         0.0600 
    189 H189       -0.6356  -13.4251  -49.0606 H         1 UNK         0.3000 
    190 H190       -0.6306  -20.8682  -44.9745 H         1 UNK         0.3000 
    191 H191       -2.8474  -20.5413  -46.6287 H         1 UNK         0.0600 
    192 H192       -2.4514  -19.1666  -44.6324 H         1 UNK         0.0600 
    193 H193       -2.6475  -20.5633  -43.5726 H         1 UNK         0.0600 
    194 H194       -4.0193  -19.9330  -44.4769 H         1 UNK         0.0600 
    195 H195       -1.9702  -23.4607  -44.9803 H         1 UNK         0.3000 
    196 H196       -4.5315  -24.7238  -44.7945 H         1 UNK         0.0600 
    197 H197       -3.1506  -26.8047  -44.6455 H         1 UNK         0.0600 
    198 H198       -2.5181  -25.5477  -43.5935 H         1 UNK         0.0600 
    199 H199       -1.7179  -25.9010  -45.1242 H         1 UNK         0.0600 
    200 H200       -2.3843  -24.0947  -47.5305 H         1 UNK         0.3000 
    201 H201       -3.6801  -26.0617  -49.2940 H         1 UNK         0.0600 
    202 H202       -1.2111  -25.6239  -49.3813 H         1 UNK         0.0600 
    203 H203       -1.5275  -23.9586  -49.8609 H         1 UNK         0.0600 
    204 H204       -2.0005  -25.2899  -50.9117 H         1 UNK         0.0600 
    205 H205       -4.5133  -22.9543  -48.2237 H         1 UNK         0.3000 
    206 H206       -5.1694  -21.5691  -50.5778 H         1 UNK         0.0600 
    207 H207       -4.9613  -20.5450  -48.2971 H         1 UNK         0.0600 
    208 H208       -6.4636  -20.0965  -49.0858 H         1 UNK         0.0600 
    209 H209       -6.4722  -21.3156  -47.8174 H         1 UNK         0.0600 
    210 H210       -6.9168  -24.1588  -49.0230 H         1 UNK         0.3000 
    211 H211       -9.5112  -23.7886  -50.1428 H         1 UNK         0.0600 
    212 H212       -8.0349  -26.3413  -49.2946 H         1 UNK         0.0600 
    213 H213       -9.7652  -26.2180  -49.5912 H         1 UNK         0.0600 
    214 H214       -9.0440  -25.3341  -48.2559 H         1 UNK         0.0600 
    215 H215       -6.5050  -24.8779  -51.5734 H         1 UNK         0.3000 
    216 H216       -7.8606  -25.6584  -54.1244 H         1 UNK         0.0600 
    217 H217       -5.7697  -26.8992  -54.5872 H         1 UNK         0.0600 
    218 H218       -6.4426  -27.4400  -53.0595 H         1 UNK         0.0600 
    219 H219       -5.0612  -26.3450  -53.0736 H         1 UNK         0.0600 
    220 H220       -7.0505  -22.9248  -52.8434 H         1 UNK         0.3000 
    221 H221       -6.3800  -20.9263  -53.4196 H         1 UNK         0.0600 
    222 H222       -5.9254  -21.9201  -56.2828 H         1 UNK         0.0600 
    223 H223       -7.4649  -21.3485  -55.6409 H         1 UNK         0.0600 
    224 H224       -6.0997  -20.2547  -55.7693 H         1 UNK         0.0600 
    225 H225       -4.3361  -23.3966  -53.1641 H         1 UNK         0.3000 
    226 H226       -2.2196  -23.7694  -52.7374 H         1 UNK         0.0600 
    227 H227       -2.6707  -21.9636  -51.0582 H         1 UNK         0.0600 
    228 H228       -2.0810  -20.7548  -52.1912 H         1 UNK         0.0600 
    229 H229       -0.9904  -21.9782  -51.5613 H         1 UNK         0.0600 
    230 H230       -2.8581  -22.2514  -55.5167 H         1 UNK         0.3000 
    231 H231       -1.8916  -21.5038  -57.3581 H         1 UNK         0.0600 
    232 H232       -0.5837  -23.6509  -57.3918 H         1 UNK         0.0600 
    233 H233        0.7179  -22.8643  -56.4998 H         1 UNK         0.0600 
    234 H234        0.2986  -22.3166  -58.1155 H         1 UNK         0.0600 
    235 H235       -2.0734  -19.8991  -55.0009 H         1 UNK         0.3000 
    236 H236       -0.0945  -17.7856  -55.5484 H         1 UNK         0.0600 
    237 H237        0.4685  -17.6385  -53.0853 H         1 UNK         0.0600 
    238 H238       -0.3400  -19.1799  -52.8207 H         1 UNK         0.0600 
    239 H239        1.0856  -19.0967  -53.8427 H         1 UNK         0.0600 
    240 H240       -2.1999  -18.2691  -52.7067 H         1 UNK         0.3000 
    241 H241       -3.3499  -15.6777  -53.0742 H         1 UNK         0.0600 
    242 H242       -6.1036  -18.1015  -54.7361 H         1 UNK         0.3800 
    243 H243       -4.5309  -18.7484  -54.3180 H         1 UNK         0.3800 
    244 H244       -2.8820  -16.2805  -50.8596 H         1 UNK         0.0800 
    245 H245       -4.6084  -16.2053  -50.9483 H         1 UNK         0.0800 
    246 H246       -3.0825  -19.1510  -48.4678 H         1 UNK         0.0800 
    247 H247       -2.9683  -17.4279  -48.6398 H         1 UNK         0.0800 
@<TRIPOS>BOND
     1    1    2 1    
     2    1  127 1    
     3    1  128 1    
     4    1  129 1    
     5    2    3 2    
     6    2    4 am   BACKBONE|DICT|INTERRES
     7    4    5 1    
     8    4  130 1    
     9    5    6 1    
    10    5   65 1    
    11    5  131 1    
    12    6    7 1    
    13    6  132 1    
    14    6  133 1    
    15    7    8 1    
    16    8    9 1    
    17    8  134 1    
    18    8  135 1    
    19    9   10 ar   
    20    9   14 ar   
    21   10   11 ar   
    22   10  136 1    
    23   11   12 ar   
    24   11  126 1    
    25   12   13 ar   
    26   12  137 1    
    27   13   14 ar   
    28   13   15 1    
    29   14  138 1    
    30   15   16 1    
    31   15  139 1    
    32   15  140 1    
    33   16   17 1    
    34   17   18 1    
    35   17  141 1    
    36   17  142 1    
    37   18   19 1    
    38   18   67 1    
    39   18  143 1    
    40   19   20 am   BACKBONE|DICT|INTERRES
    41   19  144 1    
    42   20   21 2    
    43   20   22 1    
    44   22   23 1    
    45   22   24 1    
    46   22  145 1    
    47   23  146 1    
    48   23  147 1    
    49   23  148 1    
    50   24   25 am   BACKBONE|DICT|INTERRES
    51   24  149 1    
    52   25   26 2    
    53   25   27 1    
    54   27   28 1    
    55   27   29 1    
    56   27  150 1    
    57   28  151 1    
    58   28  152 1    
    59   28  153 1    
    60   29   30 am   BACKBONE|DICT|INTERRES
    61   29  154 1    
    62   30   31 2    
    63   30   32 1    
    64   32   33 1    
    65   32   34 1    
    66   32  155 1    
    67   33  156 1    
    68   33  157 1    
    69   33  158 1    
    70   34   35 am   BACKBONE|DICT|INTERRES
    71   34  159 1    
    72   35   36 2    
    73   35   37 1    
    74   37   38 1    
    75   37   39 1    
    76   37  160 1    
    77   38  161 1    
    78   38  162 1    
    79   38  163 1    
    80   39   40 am   BACKBONE|DICT|INTERRES
    81   39  164 1    
    82   40   41 2    
    83   40   42 1    
    84   42   43 1    
    85   42   44 1    
    86   42  165 1    
    87   43  166 1    
    88   43  167 1    
    89   43  168 1    
    90   44   45 am   BACKBONE|DICT|INTERRES
    91   44  169 1    
    92   45   46 2    
    93   45   47 1    
    94   47   48 1    
    95   47   49 1    
    96   47  170 1    
    97   48  171 1    
    98   48  172 1    
    99   48  173 1    
   100   49   50 am   BACKBONE|DICT|INTERRES
   101   49  174 1    
   102   50   51 2    
   103   50   52 1    
   104   52   53 1    
   105   52   54 1    
   106   52  175 1    
   107   53  176 1    
   108   53  177 1    
   109   53  178 1    
   110   54   55 am   BACKBONE|DICT|INTERRES
   111   54  179 1    
   112   55   56 2    
   113   55   57 1    
   114   57   58 1    
   115   57   59 1    
   116   57  180 1    
   117   58  181 1    
   118   58  182 1    
   119   58  183 1    
   120   59   60 am   BACKBONE|DICT|INTERRES
   121   59  184 1    
   122   60   61 2    
   123   60   62 1    
   124   62   63 1    
   125   62   64 1    
   126   62  185 1    
   127   63  186 1    
   128   63  187 1    
   129   63  188 1    
   130   64   65 am   BACKBONE|DICT|INTERRES
   131   64  189 1    
   132   65   66 2    
   133   67   68 2    
   134   67   69 am   BACKBONE|DICT|INTERRES
   135   69   70 1    
   136   69  190 1    
   137   70   71 1    
   138   70   72 1    
   139   70  191 1    
   140   71  192 1    
   141   71  193 1    
   142   71  194 1    
   143   72   73 2    
   144   72   74 am   BACKBONE|DICT|INTERRES
   145   74   75 1    
   146   74  195 1    
   147   75   76 1    
   148   75   77 1    
   149   75  196 1    
   150   76  197 1    
   151   76  198 1    
   152   76  199 1    
   153   77   78 2    
   154   77   79 am   BACKBONE|DICT|INTERRES
   155   79   80 1    
   156   79  200 1    
   157   80   81 1    
   158   80   82 1    
   159   80  201 1    
   160   81  202 1    
   161   81  203 1    
   162   81  204 1    
   163   82   83 2    
   164   82   84 am   BACKBONE|DICT|INTERRES
   165   84   85 1    
   166   84  205 1    
   167   85   86 1    
   168   85   87 1    
   169   85  206 1    
   170   86  207 1    
   171   86  208 1    
   172   86  209 1    
   173   87   88 2    
   174   87   89 am   BACKBONE|DICT|INTERRES
   175   89   90 1    
   176   89  210 1    
   177   90   91 1    
   178   90   92 1    
   179   90  211 1    
   180   91  212 1    
   181   91  213 1    
   182   91  214 1    
   183   92   93 2    
   184   92   94 am   BACKBONE|DICT|INTERRES
   185   94   95 1    
   186   94  215 1    
   187   95   96 1    
   188   95   97 1    
   189   95  216 1    
   190   96  217 1    
   191   96  218 1    
   192   96  219 1    
   193   97   98 2    
   194   97   99 am   BACKBONE|DICT|INTERRES
   195   99  100 1    
   196   99  220 1    
   197  100  101 1    
   198  100  102 1    
   199  100  221 1    
   200  101  222 1    
   201  101  223 1    
   202  101  224 1    
   203  102  103 2    
   204  102  104 am   BACKBONE|DICT|INTERRES
   205  104  105 1    
   206  104  225 1    
   207  105  106 1    
   208  105  107 1    
   209  105  226 1    
   210  106  227 1    
   211  106  228 1    
   212  106  229 1    
   213  107  108 2    
   214  107  109 am   BACKBONE|DICT|INTERRES
   215  109  110 1    
   216  109  230 1    
   217  110  111 1    
   218  110  112 1    
   219  110  231 1    
   220  111  232 1    
   221  111  233 1    
   222  111  234 1    
   223  112  113 2    
   224  112  114 am   BACKBONE|DICT|INTERRES
   225  114  115 1    
   226  114  235 1    
   227  115  116 1    
   228  115  117 1    
   229  115  236 1    
   230  116  237 1    
   231  116  238 1    
   232  116  239 1    
   233  117  118 2    
   234  117  119 am   BACKBONE|DICT|INTERRES
   235  119  120 1    
   236  119  240 1    
   237  120  121 1    
   238  120  124 1    
   239  120  241 1    
   240  121  122 am   BACKBONE|DICT|INTERRES
   241  121  123 2    
   242  122  242 1    
   243  122  243 1    
   244  124  125 1    
   245  124  244 1    
   246  124  245 1    
   247  125  126 1    
   248  126  246 1    
   249  126  247 1    
@<TRIPOS>SUBSTRUCTURE
     1 UNK         1 GROUP             0       ****    0 ROOT    
