@<TRIPOS>MOLECULE
3R540
247   249    1
SMALL
USER_CHARGES


@<TRIPOS>ATOM
      1 CA         -2.3185  -16.7723  -50.9965 C.3       0 UNK        -0.1800 
      2 C          -2.1100  -15.4935  -50.2019 C.2       0 UNK         0.5000 
      3 O          -3.0838  -14.8732  -49.7737 O.2       0 UNK        -0.5000 
      4 N          -0.8480  -15.0924  -50.0059 N.am      1 UNK        -0.5000 
      5 CA         -0.4492  -13.8957  -49.2591 C.3       1 UNK         0.1400 
      6 C6          0.9614  -13.3714  -49.6501 C.3       23 UNK        -0.0398 
      7 S7          1.2302  -13.2237  -51.4544 S.3       23 UNK        -0.2404 
      8 C8          2.5844  -14.4139  -51.7452 C.3       23 UNK        -0.0205 
      9 C9          2.1024  -15.8582  -51.7195 C.ar      23 UNK        -0.0193 
     10 C10         1.7687  -16.5169  -52.9069 C.ar      23 UNK        -0.1150 
     11 C11         1.3144  -17.8412  -52.8874 C.ar      23 UNK        -0.0193 
     12 C12         1.1826  -18.4985  -51.6588 C.ar      23 UNK        -0.1150 
     13 C13         1.5076  -17.8479  -50.4634 C.ar      23 UNK        -0.0193 
     14 C14         1.9942  -16.5413  -50.5064 C.ar      23 UNK        -0.1150 
     15 C15         1.2676  -18.5083  -49.1143 C.3       23 UNK        -0.0205 
     16 S16         2.1942  -20.0595  -48.8859 S.3       23 UNK        -0.2404 
     17 C17         1.7972  -20.4291  -47.1353 C.3       23 UNK        -0.0398 
     18 CA          0.6080  -21.3952  -46.8692 C.3       11 UNK         0.1400 
     19 N           0.3418  -21.5146  -45.4327 N.am      11 UNK        -0.5000 
     20 C          -0.5456  -22.3479  -44.8692 C.2       10 UNK         0.5000 
     21 O          -1.1967  -23.1835  -45.4950 O.2       10 UNK        -0.5000 
     22 CA         -0.7686  -22.1983  -43.3538 C.3       10 UNK         0.1400 
     23 CB          0.3301  -22.9300  -42.5686 C.3       10 UNK        -0.1800 
     24 N          -0.8320  -20.7983  -42.9290 N.am      10 UNK        -0.5000 
     25 C          -1.8030  -19.9398  -43.2763 C.2       9 UNK         0.5000 
     26 O          -2.7834  -20.2522  -43.9523 O.2       9 UNK        -0.5000 
     27 CA         -1.6343  -18.4763  -42.8230 C.3       9 UNK         0.1400 
     28 CB         -2.0774  -18.2964  -41.3637 C.3       9 UNK        -0.1800 
     29 N          -0.2646  -17.9871  -42.9784 N.am      9 UNK        -0.5000 
     30 C           0.3735  -17.8750  -44.1514 C.2       8 UNK         0.5000 
     31 O          -0.1378  -18.1400  -45.2380 O.2       8 UNK        -0.5000 
     32 CA          1.8518  -17.4592  -44.0961 C.3       8 UNK         0.1400 
     33 CB          1.9948  -15.9433  -43.9105 C.3       8 UNK        -0.1800 
     34 N           2.5737  -18.1622  -43.0363 N.am      8 UNK        -0.5000 
     35 C           2.8397  -19.4762  -43.0496 C.2       7 UNK         0.5000 
     36 O           2.5296  -20.2276  -43.9736 O.2       7 UNK        -0.5000 
     37 CA          3.5320  -20.0533  -41.8023 C.3       7 UNK         0.1400 
     38 CB          5.0513  -19.8425  -41.8791 C.3       7 UNK        -0.1800 
     39 N           3.0224  -19.4728  -40.5594 N.am      7 UNK        -0.5000 
     40 C           1.7763  -19.6485  -40.0976 C.2       6 UNK         0.5000 
     41 O           0.9295  -20.3421  -40.6588 O.2       6 UNK        -0.5000 
     42 CA          1.3999  -18.8767  -38.8205 C.3       6 UNK         0.1400 
     43 CB          1.8286  -19.6574  -37.5692 C.3       6 UNK        -0.1800 
     44 N           1.9705  -17.5271  -38.7748 N.am      6 UNK        -0.5000 
     45 C           1.6799  -16.5554  -39.6489 C.2       5 UNK         0.5000 
     46 O           0.9277  -16.7060  -40.6151 O.2       5 UNK        -0.5000 
     47 CA          2.3711  -15.2052  -39.4309 C.3       5 UNK         0.1400 
     48 CB          3.6800  -15.1221  -40.2345 C.3       5 UNK        -0.1800 
     49 N           1.4606  -14.1514  -39.8576 N.am      5 UNK        -0.5000 
     50 C           1.4003  -12.9135  -39.3608 C.2       4 UNK         0.5000 
     51 O           2.1831  -12.4863  -38.5096 O.2       4 UNK        -0.5000 
     52 CA          0.2792  -12.0061  -39.9168 C.3       4 UNK         0.1400 
     53 CB          0.2202  -10.6373  -39.2141 C.3       4 UNK        -0.1800 
     54 N           0.3967  -11.7842  -41.3601 N.am      4 UNK        -0.5000 
     55 C           0.0819  -12.6704  -42.3121 C.2       3 UNK         0.5000 
     56 O          -0.3320  -13.8075  -42.0699 O.2       3 UNK        -0.5000 
     57 CA          0.2919  -12.2068  -43.7685 C.3       3 UNK         0.1400 
     58 CB          1.7891  -12.1410  -44.1123 C.3       3 UNK        -0.1800 
     59 N          -0.3690  -13.0913  -44.7272 N.am      3 UNK        -0.5000 
     60 C          -1.6914  -13.2236  -44.8750 C.2       2 UNK         0.5000 
     61 O          -2.5138  -12.4965  -44.3133 O.2       2 UNK        -0.5000 
     62 CA         -2.1603  -14.3470  -45.8242 C.3       2 UNK         0.1400 
     63 CB         -3.6816  -14.5733  -45.7514 C.3       2 UNK        -0.1800 
     64 N          -1.7935  -14.0925  -47.2182 N.am      2 UNK        -0.5000 
     65 C          -0.5650  -14.1736  -47.7441 C.2       1 UNK         0.5000 
     66 O           0.4319  -14.4953  -47.0942 O.2       1 UNK        -0.5000 
     67 C          -0.6672  -20.9910  -47.6373 C.2       11 UNK         0.5000 
     68 O          -0.9906  -21.6257  -48.6397 O.2       11 UNK        -0.5000 
     69 N          -1.3531  -19.9484  -47.1442 N.am      12 UNK        -0.5000 
     70 CA         -2.4897  -19.2839  -47.7843 C.3       12 UNK         0.1400 
     71 CB         -2.7367  -17.9358  -47.0917 C.3       12 UNK        -0.1800 
     72 C          -3.7910  -20.1045  -47.8762 C.2       12 UNK         0.5000 
     73 O          -4.7298  -19.6465  -48.5301 O.2       12 UNK        -0.5000 
     74 N          -3.8464  -21.2844  -47.2439 N.am      13 UNK        -0.5000 
     75 CA         -4.9492  -22.2353  -47.3808 C.3       13 UNK         0.1400 
     76 CB         -4.7577  -23.3818  -46.3780 C.3       13 UNK        -0.1800 
     77 C          -5.0450  -22.7661  -48.8250 C.2       13 UNK         0.5000 
     78 O          -4.0276  -23.1604  -49.3959 O.2       13 UNK        -0.5000 
     79 N          -6.2630  -22.7737  -49.3840 N.am      14 UNK        -0.5000 
     80 CA         -6.5397  -23.0209  -50.8053 C.3       14 UNK         0.1400 
     81 CB         -8.0301  -22.7680  -51.0772 C.3       14 UNK        -0.1800 
     82 C          -6.1219  -24.4061  -51.3420 C.2       14 UNK         0.5000 
     83 O          -5.9658  -24.5603  -52.5552 O.2       14 UNK        -0.5000 
     84 N          -5.9657  -25.3802  -50.4381 N.am      15 UNK        -0.5000 
     85 CA         -5.5272  -26.7442  -50.7311 C.3       15 UNK         0.1400 
     86 CB         -6.4326  -27.7153  -49.9541 C.3       15 UNK        -0.1800 
     87 C          -4.0442  -26.9846  -50.3777 C.2       15 UNK         0.5000 
     88 O          -3.5553  -28.0923  -50.6078 O.2       15 UNK        -0.5000 
     89 N          -3.3596  -25.9817  -49.8084 N.am      16 UNK        -0.5000 
     90 CA         -1.9549  -26.0490  -49.4068 C.3       16 UNK         0.1400 
     91 CB         -1.7857  -25.3426  -48.0471 C.3       16 UNK        -0.1800 
     92 C          -1.0486  -25.4830  -50.5189 C.2       16 UNK         0.5000 
     93 O          -1.2888  -25.7500  -51.6984 O.2       16 UNK        -0.5000 
     94 N          -0.0026  -24.7390  -50.1313 N.am      17 UNK        -0.5000 
     95 CA          0.9768  -24.1271  -51.0319 C.3       17 UNK         0.1400 
     96 CB          2.1302  -23.5450  -50.2052 C.3       17 UNK        -0.1800 
     97 C           0.3606  -23.0635  -51.9585 C.2       17 UNK         0.5000 
     98 O           0.7235  -22.9977  -53.1343 O.2       17 UNK        -0.5000 
     99 N          -0.6076  -22.2964  -51.4419 N.am      18 UNK        -0.5000 
    100 CA        -1.4837  -21.4281  -52.2196 C.3       18 UNK         0.1400 
    101 CB        -2.0570  -20.3380  -51.3026 C.3       18 UNK        -0.1800 
    102 C         -2.5923  -22.2553  -52.8906 C.2       18 UNK         0.5000 
    103 O         -3.7623  -22.1114  -52.5411 O.2       18 UNK        -0.5000 
    104 N         -2.2107  -23.1079  -53.8492 N.am      19 UNK        -0.5000 
    105 CA        -3.1182  -23.9314  -54.6474 C.3       19 UNK         0.1400 
    106 CB        -2.2975  -24.7949  -55.6166 C.3       19 UNK        -0.1800 
    107 C         -4.1325  -23.0535  -55.4034 C.2       19 UNK         0.5000 
    108 O         -3.7200  -22.1731  -56.1622 O.2       19 UNK        -0.5000 
    109 N         -5.4253  -23.2587  -55.1158 N.am      20 UNK        -0.5000 
    110 CA        -6.5615  -22.4423  -55.5624 C.3       20 UNK         0.1400 
    111 CB        -6.7624  -22.5568  -57.0880 C.3       20 UNK        -0.1800 
    112 C         -6.4634  -20.9809  -55.0690 C.2       20 UNK         0.5000 
    113 O         -6.7749  -20.0471  -55.8106 O.2       20 UNK        -0.5000 
    114 N         -5.9809  -20.8172  -53.8278 N.am      21 UNK        -0.5000 
    115 CA        -5.7235  -19.5584  -53.1184 C.3       21 UNK         0.1400 
    116 CB        -7.0414  -18.8081  -52.8382 C.3       21 UNK        -0.1800 
    117 C         -4.6595  -18.6776  -53.8090 C.2       21 UNK         0.5000 
    118 O         -4.6927  -17.4546  -53.6712 O.2       21 UNK        -0.5000 
    119 N         -3.7384  -19.3177  -54.5455 N.am      22 UNK        -0.5000 
    120 CA        -2.7180  -18.6841  -55.3971 C.3       22 UNK         0.1400 
    121 C         -3.3103  -17.9716  -56.6586 C.2       22 UNK         0.5000 
    122 N         -4.5550  -18.2304  -57.0480 N.am      22 UNK        -0.7600 
    123 O         -2.6336  -17.1895  -57.3197 O.2       22 UNK        -0.5000 
    124 C124       -1.7189  -17.8097  -54.5768 C.3       23 UNK        -0.0398 
    125 S125       -0.0638  -17.6693  -55.3394 S.3       23 UNK        -0.2404 
    126 C126        1.0187  -18.5837  -54.1883 C.3       23 UNK        -0.0205 
    127 H127       -1.3790  -17.2914  -51.1797 H         1 UNK         0.0600 
    128 H128       -2.7731  -16.5378  -51.9579 H         1 UNK         0.0600 
    129 H129       -2.9863  -17.4459  -50.4601 H         1 UNK         0.0600 
    130 H130       -0.0866  -15.6310  -50.3959 H         1 UNK         0.3000 
    131 H131       -1.1550  -13.0982  -49.5022 H         1 UNK         0.0600 
    132 H132        1.1066  -12.3798  -49.2185 H         1 UNK         0.0800 
    133 H133        1.7529  -13.9814  -49.2187 H         1 UNK         0.0800 
    134 H134        3.3751  -14.2651  -51.0082 H         1 UNK         0.0800 
    135 H135        3.0350  -14.1946  -52.7144 H         1 UNK         0.0800 
    136 H136        1.8704  -16.0004  -53.8511 H         1 UNK         0.1150 
    137 H137        0.8355  -19.5211  -51.6289 H         1 UNK         0.1150 
    138 H138        2.2650  -16.0498  -49.5841 H         1 UNK         0.1150 
    139 H139        1.5190  -17.8229  -48.3029 H         1 UNK         0.0800 
    140 H140        0.2004  -18.6989  -49.0285 H         1 UNK         0.0800 
    141 H141        1.6372  -19.4860  -46.6148 H         1 UNK         0.0800 
    142 H142        2.6978  -20.8508  -46.6871 H         1 UNK         0.0800 
    143 H143        0.8964  -22.3862  -47.2244 H         1 UNK         0.0600 
    144 H144        0.8800  -20.9019  -44.8280 H         1 UNK         0.3000 
    145 H145       -1.7256  -22.6654  -43.1122 H         1 UNK         0.0600 
    146 H146        0.1295  -22.9072  -41.4974 H         1 UNK         0.0600 
    147 H147        0.3914  -23.9778  -42.8654 H         1 UNK         0.0600 
    148 H148        1.3105  -22.4827  -42.7347 H         1 UNK         0.0600 
    149 H149       -0.0928  -20.4787  -42.3097 H         1 UNK         0.3000 
    150 H150       -2.2785  -17.8581  -43.4518 H         1 UNK         0.0600 
    151 H151       -3.1102  -18.6189  -41.2263 H         1 UNK         0.0600 
    152 H152       -2.0182  -17.2506  -41.0610 H         1 UNK         0.0600 
    153 H153       -1.4573  -18.8767  -40.6801 H         1 UNK         0.0600 
    154 H154        0.2183  -17.7027  -42.1306 H         1 UNK         0.3000 
    155 H155        2.3102  -17.7227  -45.0513 H         1 UNK         0.0600 
    156 H156        1.5540  -15.6037  -42.9736 H         1 UNK         0.0600 
    157 H157        1.4955  -15.4099  -44.7192 H         1 UNK         0.0600 
    158 H158        3.0419  -15.6407  -43.9197 H         1 UNK         0.0600 
    159 H159        2.8126  -17.6273  -42.2154 H         1 UNK         0.3000 
    160 H160        3.3368  -21.1276  -41.7804 H         1 UNK         0.0600 
    161 H161        5.3137  -18.7837  -41.8766 H         1 UNK         0.0600 
    162 H162        5.4598  -20.2801  -42.7911 H         1 UNK         0.0600 
    163 H163        5.5578  -20.3161  -41.0379 H         1 UNK         0.0600 
    164 H164        3.6528  -18.8848  -40.0347 H         1 UNK         0.3000 
    165 H165        0.3124  -18.7794  -38.8043 H         1 UNK         0.0600 
    166 H166        1.4871  -19.1630  -36.6596 H         1 UNK         0.0600 
    167 H167        1.4021  -20.6615  -37.5710 H         1 UNK         0.0600 
    168 H168        2.9126  -19.7612  -37.5090 H         1 UNK         0.0600 
    169 H169        2.6041  -17.3314  -38.0130 H         1 UNK         0.3000 
    170 H170        2.5875  -15.0927  -38.3664 H         1 UNK         0.0600 
    171 H171        4.3688  -15.9176  -39.9476 H         1 UNK         0.0600 
    172 H172        3.5003  -15.2105  -41.3064 H         1 UNK         0.0600 
    173 H173        4.1889  -14.1741  -40.0601 H         1 UNK         0.0600 
    174 H174        0.7812  -14.4285  -40.5638 H         1 UNK         0.3000 
    175 H175       -0.6673  -12.5148  -39.7209 H         1 UNK         0.0600 
    176 H176        1.1312  -10.0600  -39.3775 H         1 UNK         0.0600 
    177 H177       -0.6213  -10.0452  -39.5743 H         1 UNK         0.0600 
    178 H178        0.0932  -10.7548  -38.1371 H         1 UNK         0.0600 
    179 H179        0.7657  -10.8861  -41.6376 H         1 UNK         0.3000 
    180 H180       -0.1369  -11.2082  -43.8747 H         1 UNK         0.0600 
    181 H181        2.2781  -13.1055  -43.9779 H         1 UNK         0.0600 
    182 H182        2.3085  -11.4220  -43.4779 H         1 UNK         0.0600 
    183 H183        1.9435  -11.8288  -45.1454 H         1 UNK         0.0600 
    184 H184        0.2258  -13.6981  -45.2809 H         1 UNK         0.3000 
    185 H185       -1.6718  -15.2697  -45.5024 H         1 UNK         0.0600 
    186 H186       -3.9938  -15.3962  -46.3924 H         1 UNK         0.0600 
    187 H187       -3.9913  -14.8196  -44.7350 H         1 UNK         0.0600 
    188 H188       -4.2363  -13.6862  -46.0600 H         1 UNK         0.0600 
    189 H189       -2.5588  -13.8947  -47.8511 H         1 UNK         0.3000 
    190 H190       -0.9903  -19.4839  -46.3157 H         1 UNK         0.3000 
    191 H191       -2.1969  -19.0637  -48.8093 H         1 UNK         0.0600 
    192 H192       -3.5616  -17.4001  -47.5625 H         1 UNK         0.0600 
    193 H193       -1.8597  -17.2918  -47.1597 H         1 UNK         0.0600 
    194 H194       -2.9817  -18.0648  -46.0369 H         1 UNK         0.0600 
    195 H195       -3.0201  -21.6079  -46.7608 H         1 UNK         0.3000 
    196 H196       -5.8761  -21.7143  -47.1320 H         1 UNK         0.0600 
    197 H197       -3.8122  -23.8992  -46.5356 H         1 UNK         0.0600 
    198 H198       -4.7641  -23.0112  -45.3527 H         1 UNK         0.0600 
    199 H199       -5.5570  -24.1188  -46.4645 H         1 UNK         0.0600 
    200 H200       -7.0477  -22.4563  -48.8335 H         1 UNK         0.3000 
    201 H201       -5.9759  -22.2770  -51.3654 H         1 UNK         0.0600 
    202 H202       -8.3126  -21.7489  -50.8126 H         1 UNK         0.0600 
    203 H203       -8.6632  -23.4524  -50.5112 H         1 UNK         0.0600 
    204 H204       -8.2640  -22.9014  -52.1345 H         1 UNK         0.0600 
    205 H205       -6.1198  -25.1544  -49.4664 H         1 UNK         0.3000 
    206 H206       -5.6407  -26.9560  -51.7962 H         1 UNK         0.0600 
    207 H207       -7.4800  -27.5774  -50.2234 H         1 UNK         0.0600 
    208 H208       -6.1777  -28.7529  -50.1736 H         1 UNK         0.0600 
    209 H209       -6.3417  -27.5753  -48.8763 H         1 UNK         0.0600 
    210 H210       -3.7900  -25.0644  -49.7317 H         1 UNK         0.3000 
    211 H211       -1.6611  -27.0909  -49.2661 H         1 UNK         0.0600 
    212 H212       -0.7843  -25.4879  -47.6407 H         1 UNK         0.0600 
    213 H213       -2.4815  -25.7447  -47.3110 H         1 UNK         0.0600 
    214 H214       -1.9620  -24.2688  -48.1201 H         1 UNK         0.0600 
    215 H215        0.1096  -24.5486  -49.1466 H         1 UNK         0.3000 
    216 H216        1.3826  -24.9158  -51.6690 H         1 UNK         0.0600 
    217 H217        1.7649  -22.8348  -49.4658 H         1 UNK         0.0600 
    218 H218        2.8483  -23.0233  -50.8395 H         1 UNK         0.0600 
    219 H219        2.6715  -24.3294  -49.6761 H         1 UNK         0.0600 
    220 H220       -0.8384  -22.3839  -50.4557 H         1 UNK         0.3000 
    221 H221       -0.9102  -20.9393  -53.0068 H         1 UNK         0.0600 
    222 H222       -2.7038  -20.7669  -50.5370 H         1 UNK         0.0600 
    223 H223       -2.6512  -19.6208  -51.8652 H         1 UNK         0.0600 
    224 H224       -1.2656  -19.7865  -50.8004 H         1 UNK         0.0600 
    225 H225       -1.2215  -23.1864  -54.0507 H         1 UNK         0.3000 
    226 H226       -3.6504  -24.5962  -53.9643 H         1 UNK         0.0600 
    227 H227       -1.7098  -24.1834  -56.3026 H         1 UNK         0.0600 
    228 H228       -1.6115  -25.4478  -55.0761 H         1 UNK         0.0600 
    229 H229       -2.9482  -25.4315  -56.2173 H         1 UNK         0.0600 
    230 H230       -5.6446  -23.9441  -54.3966 H         1 UNK         0.3000 
    231 H231       -7.4456  -22.8637  -55.0819 H         1 UNK         0.0600 
    232 H232       -5.9458  -22.0942  -57.6429 H         1 UNK         0.0600 
    233 H233       -7.6852  -22.0646  -57.3972 H         1 UNK         0.0600 
    234 H234       -6.8317  -23.5991  -57.3992 H         1 UNK         0.0600 
    235 H235       -5.6215  -21.6397  -53.3554 H         1 UNK         0.3000 
    236 H236       -5.2977  -19.8366  -52.1532 H         1 UNK         0.0600 
    237 H237       -6.8727  -17.9534  -52.1821 H         1 UNK         0.0600 
    238 H238       -7.4966  -18.4315  -53.7546 H         1 UNK         0.0600 
    239 H239       -7.7655  -19.4559  -52.3441 H         1 UNK         0.0600 
    240 H240       -3.8285  -20.3195  -54.6497 H         1 UNK         0.3000 
    241 H241       -2.1536  -19.5259  -55.7998 H         1 UNK         0.0600 
    242 H242       -4.9171  -17.7700  -57.8678 H         1 UNK         0.3800 
    243 H243       -5.1500  -18.8669  -56.5317 H         1 UNK         0.3800 
    244 H244       -1.5888  -18.2284  -53.5793 H         1 UNK         0.0800 
    245 H245       -2.1200  -16.8065  -54.4257 H         1 UNK         0.0800 
    246 H246        0.5888  -19.5657  -53.9955 H         1 UNK         0.0800 
    247 H247        1.9690  -18.7679  -54.6908 H         1 UNK         0.0800 
@<TRIPOS>BOND
     1    1    2 1    
     2    1  127 1    
     3    1  128 1    
     4    1  129 1    
     5    2    3 2    
     6    2    4 am   BACKBONE|DICT|INTERRES
     7    4    5 1    
     8    4  130 1    
     9    5    6 1    
    10    5   65 1    
    11    5  131 1    
    12    6    7 1    
    13    6  132 1    
    14    6  133 1    
    15    7    8 1    
    16    8    9 1    
    17    8  134 1    
    18    8  135 1    
    19    9   10 ar   
    20    9   14 ar   
    21   10   11 ar   
    22   10  136 1    
    23   11   12 ar   
    24   11  126 1    
    25   12   13 ar   
    26   12  137 1    
    27   13   14 ar   
    28   13   15 1    
    29   14  138 1    
    30   15   16 1    
    31   15  139 1    
    32   15  140 1    
    33   16   17 1    
    34   17   18 1    
    35   17  141 1    
    36   17  142 1    
    37   18   19 1    
    38   18   67 1    
    39   18  143 1    
    40   19   20 am   BACKBONE|DICT|INTERRES
    41   19  144 1    
    42   20   21 2    
    43   20   22 1    
    44   22   23 1    
    45   22   24 1    
    46   22  145 1    
    47   23  146 1    
    48   23  147 1    
    49   23  148 1    
    50   24   25 am   BACKBONE|DICT|INTERRES
    51   24  149 1    
    52   25   26 2    
    53   25   27 1    
    54   27   28 1    
    55   27   29 1    
    56   27  150 1    
    57   28  151 1    
    58   28  152 1    
    59   28  153 1    
    60   29   30 am   BACKBONE|DICT|INTERRES
    61   29  154 1    
    62   30   31 2    
    63   30   32 1    
    64   32   33 1    
    65   32   34 1    
    66   32  155 1    
    67   33  156 1    
    68   33  157 1    
    69   33  158 1    
    70   34   35 am   BACKBONE|DICT|INTERRES
    71   34  159 1    
    72   35   36 2    
    73   35   37 1    
    74   37   38 1    
    75   37   39 1    
    76   37  160 1    
    77   38  161 1    
    78   38  162 1    
    79   38  163 1    
    80   39   40 am   BACKBONE|DICT|INTERRES
    81   39  164 1    
    82   40   41 2    
    83   40   42 1    
    84   42   43 1    
    85   42   44 1    
    86   42  165 1    
    87   43  166 1    
    88   43  167 1    
    89   43  168 1    
    90   44   45 am   BACKBONE|DICT|INTERRES
    91   44  169 1    
    92   45   46 2    
    93   45   47 1    
    94   47   48 1    
    95   47   49 1    
    96   47  170 1    
    97   48  171 1    
    98   48  172 1    
    99   48  173 1    
   100   49   50 am   BACKBONE|DICT|INTERRES
   101   49  174 1    
   102   50   51 2    
   103   50   52 1    
   104   52   53 1    
   105   52   54 1    
   106   52  175 1    
   107   53  176 1    
   108   53  177 1    
   109   53  178 1    
   110   54   55 am   BACKBONE|DICT|INTERRES
   111   54  179 1    
   112   55   56 2    
   113   55   57 1    
   114   57   58 1    
   115   57   59 1    
   116   57  180 1    
   117   58  181 1    
   118   58  182 1    
   119   58  183 1    
   120   59   60 am   BACKBONE|DICT|INTERRES
   121   59  184 1    
   122   60   61 2    
   123   60   62 1    
   124   62   63 1    
   125   62   64 1    
   126   62  185 1    
   127   63  186 1    
   128   63  187 1    
   129   63  188 1    
   130   64   65 am   BACKBONE|DICT|INTERRES
   131   64  189 1    
   132   65   66 2    
   133   67   68 2    
   134   67   69 am   BACKBONE|DICT|INTERRES
   135   69   70 1    
   136   69  190 1    
   137   70   71 1    
   138   70   72 1    
   139   70  191 1    
   140   71  192 1    
   141   71  193 1    
   142   71  194 1    
   143   72   73 2    
   144   72   74 am   BACKBONE|DICT|INTERRES
   145   74   75 1    
   146   74  195 1    
   147   75   76 1    
   148   75   77 1    
   149   75  196 1    
   150   76  197 1    
   151   76  198 1    
   152   76  199 1    
   153   77   78 2    
   154   77   79 am   BACKBONE|DICT|INTERRES
   155   79   80 1    
   156   79  200 1    
   157   80   81 1    
   158   80   82 1    
   159   80  201 1    
   160   81  202 1    
   161   81  203 1    
   162   81  204 1    
   163   82   83 2    
   164   82   84 am   BACKBONE|DICT|INTERRES
   165   84   85 1    
   166   84  205 1    
   167   85   86 1    
   168   85   87 1    
   169   85  206 1    
   170   86  207 1    
   171   86  208 1    
   172   86  209 1    
   173   87   88 2    
   174   87   89 am   BACKBONE|DICT|INTERRES
   175   89   90 1    
   176   89  210 1    
   177   90   91 1    
   178   90   92 1    
   179   90  211 1    
   180   91  212 1    
   181   91  213 1    
   182   91  214 1    
   183   92   93 2    
   184   92   94 am   BACKBONE|DICT|INTERRES
   185   94   95 1    
   186   94  215 1    
   187   95   96 1    
   188   95   97 1    
   189   95  216 1    
   190   96  217 1    
   191   96  218 1    
   192   96  219 1    
   193   97   98 2    
   194   97   99 am   BACKBONE|DICT|INTERRES
   195   99  100 1    
   196   99  220 1    
   197  100  101 1    
   198  100  102 1    
   199  100  221 1    
   200  101  222 1    
   201  101  223 1    
   202  101  224 1    
   203  102  103 2    
   204  102  104 am   BACKBONE|DICT|INTERRES
   205  104  105 1    
   206  104  225 1    
   207  105  106 1    
   208  105  107 1    
   209  105  226 1    
   210  106  227 1    
   211  106  228 1    
   212  106  229 1    
   213  107  108 2    
   214  107  109 am   BACKBONE|DICT|INTERRES
   215  109  110 1    
   216  109  230 1    
   217  110  111 1    
   218  110  112 1    
   219  110  231 1    
   220  111  232 1    
   221  111  233 1    
   222  111  234 1    
   223  112  113 2    
   224  112  114 am   BACKBONE|DICT|INTERRES
   225  114  115 1    
   226  114  235 1    
   227  115  116 1    
   228  115  117 1    
   229  115  236 1    
   230  116  237 1    
   231  116  238 1    
   232  116  239 1    
   233  117  118 2    
   234  117  119 am   BACKBONE|DICT|INTERRES
   235  119  120 1    
   236  119  240 1    
   237  120  121 1    
   238  120  124 1    
   239  120  241 1    
   240  121  122 am   BACKBONE|DICT|INTERRES
   241  121  123 2    
   242  122  242 1    
   243  122  243 1    
   244  124  125 1    
   245  124  244 1    
   246  124  245 1    
   247  125  126 1    
   248  126  246 1    
   249  126  247 1    
@<TRIPOS>SUBSTRUCTURE
     1 UNK         1 GROUP             0       ****    0 ROOT    
