@<TRIPOS>MOLECULE
3R540
247   249    1
SMALL
USER_CHARGES


@<TRIPOS>ATOM
      1 CA          1.1714  -13.2815  -46.8406 C.3       0 UNK        -0.1800 
      2 C           2.4830  -12.5063  -46.8657 C.2       0 UNK         0.5000 
      3 O           2.5804  -11.4391  -46.2624 O.2       0 UNK        -0.5000 
      4 N           3.4752  -13.0325  -47.5930 N.am      1 UNK        -0.5000 
      5 CA          4.7534  -12.3783  -47.8989 C.3       1 UNK         0.1400 
      6 C6          5.5241  -13.0519  -49.0754 C.3       23 UNK        -0.0398 
      7 S7          4.4588  -13.8120  -50.3523 S.3       23 UNK        -0.2404 
      8 C8          4.4467  -15.5254  -49.7172 C.3       23 UNK        -0.0205 
      9 C9          3.3197  -16.4071  -50.2443 C.ar      23 UNK        -0.0193 
     10 C10         2.0550  -15.8975  -50.5665 C.ar      23 UNK        -0.1150 
     11 C11         1.0352  -16.7490  -51.0037 C.ar      23 UNK        -0.0193 
     12 C12         1.2806  -18.1202  -51.1079 C.ar      23 UNK        -0.1150 
     13 C13         2.5298  -18.6437  -50.7684 C.ar      23 UNK        -0.0193 
     14 C14         3.5430  -17.7826  -50.3436 C.ar      23 UNK        -0.1150 
     15 C15         2.7900  -20.1388  -50.8398 C.3       23 UNK        -0.0205 
     16 S16         2.4394  -20.9414  -49.2447 S.3       23 UNK        -0.2404 
     17 C17         0.6239  -21.0666  -49.3189 C.3       23 UNK        -0.0398 
     18 CA          0.0858  -22.1077  -48.3129 C.3       11 UNK         0.1400 
     19 N           0.0782  -21.6025  -46.9370 N.am      11 UNK        -0.5000 
     20 C          -0.1590  -22.3577  -45.8553 C.2       10 UNK         0.5000 
     21 O          -0.3375  -23.5757  -45.8965 O.2       10 UNK        -0.5000 
     22 CA         -0.2690  -21.6216  -44.5076 C.3       10 UNK         0.1400 
     23 CB          1.1216  -21.2748  -43.9554 C.3       10 UNK        -0.1800 
     24 N          -1.0834  -20.4085  -44.5972 N.am      10 UNK        -0.5000 
     25 C          -2.3869  -20.3924  -44.9110 C.2       9 UNK         0.5000 
     26 O          -3.0549  -21.4079  -45.0963 O.2       9 UNK        -0.5000 
     27 CA         -3.0506  -19.0164  -45.0954 C.3       9 UNK         0.1400 
     28 CB         -3.4981  -18.4394  -43.7448 C.3       9 UNK        -0.1800 
     29 N          -2.1868  -18.0562  -45.7808 N.am      9 UNK        -0.5000 
     30 C          -1.7306  -18.1922  -47.0341 C.2       8 UNK         0.5000 
     31 O          -2.0187  -19.1359  -47.7677 O.2       8 UNK        -0.5000 
     32 CA         -0.7510  -17.1162  -47.5308 C.3       8 UNK         0.1400 
     33 CB         -1.5040  -15.8591  -47.9922 C.3       8 UNK        -0.1800 
     34 N           0.2266  -16.7610  -46.5014 N.am      8 UNK        -0.5000 
     35 C           1.2131  -17.5723  -46.0937 C.2       7 UNK         0.5000 
     36 O           1.4267  -18.6835  -46.5782 O.2       7 UNK        -0.5000 
     37 CA          2.0677  -17.0821  -44.9077 C.3       7 UNK         0.1400 
     38 CB          3.2388  -16.2100  -45.3833 C.3       7 UNK        -0.1800 
     39 N           1.2820  -16.3557  -43.9052 N.am      7 UNK        -0.5000 
     40 C           0.3632  -16.9468  -43.1272 C.2       6 UNK         0.5000 
     41 O           0.1026  -18.1486  -43.1778 O.2       6 UNK        -0.5000 
     42 CA         -0.4268  -16.0520  -42.1569 C.3       6 UNK         0.1400 
     43 CB          0.3769  -15.7986  -40.8739 C.3       6 UNK        -0.1800 
     44 N          -0.8366  -14.7698  -42.7260 N.am      6 UNK        -0.5000 
     45 C          -1.5914  -14.5866  -43.8149 C.2       5 UNK         0.5000 
     46 O          -1.9913  -15.5093  -44.5226 O.2       5 UNK        -0.5000 
     47 CA         -1.9489  -13.1367  -44.2035 C.3       5 UNK         0.1400 
     48 CB         -3.2426  -12.6812  -43.5038 C.3       5 UNK        -0.1800 
     49 N          -0.8621  -12.1649  -44.0165 N.am      5 UNK        -0.5000 
     50 C          -0.2776  -11.7580  -42.8817 C.2       4 UNK         0.5000 
     51 O          -0.6225  -12.1102  -41.7515 O.2       4 UNK        -0.5000 
     52 CA          0.9520  -10.8507  -43.0500 C.3       4 UNK         0.1400 
     53 CB          0.7290   -9.4929  -42.3655 C.3       4 UNK        -0.1800 
     54 N           2.1799  -11.4565  -42.5285 N.am      4 UNK        -0.5000 
     55 C           2.6624  -12.6693  -42.8339 C.2       3 UNK         0.5000 
     56 O           2.0945  -13.5021  -43.5469 O.2       3 UNK        -0.5000 
     57 CA          4.0511  -13.0030  -42.2882 C.3       3 UNK         0.1400 
     58 CB          4.0085  -14.1831  -41.3027 C.3       3 UNK        -0.1800 
     59 N           4.8640  -13.3433  -43.4443 N.am      3 UNK        -0.5000 
     60 C           6.1898  -13.2203  -43.5392 C.2       2 UNK         0.5000 
     61 O           6.9111  -12.8275  -42.6214 O.2       2 UNK        -0.5000 
     62 CA          6.8170  -13.6027  -44.8907 C.3       2 UNK         0.1400 
     63 CB          7.3080  -15.0586  -44.8570 C.3       2 UNK        -0.1800 
     64 N           5.8912  -13.4441  -46.0158 N.am      2 UNK        -0.5000 
     65 C           5.6635  -12.2883  -46.6572 C.2       1 UNK         0.5000 
     66 O           6.1523  -11.2075  -46.3257 O.2       1 UNK        -0.5000 
     67 C          -1.2991  -22.6333  -48.7391 C.2       11 UNK         0.5000 
     68 O          -1.3742  -23.7209  -49.3116 O.2       11 UNK        -0.5000 
     69 N          -2.3675  -21.8918  -48.4127 N.am      12 UNK        -0.5000 
     70 CA         -3.7522  -22.2951  -48.6560 C.3       12 UNK         0.1400 
     71 CB         -4.7120  -21.1622  -48.2668 C.3       12 UNK        -0.1800 
     72 C          -4.1222  -23.5931  -47.9198 C.2       12 UNK         0.5000 
     73 O          -4.7069  -24.4834  -48.5322 O.2       12 UNK        -0.5000 
     74 N          -3.7406  -23.7002  -46.6392 N.am      13 UNK        -0.5000 
     75 CA         -3.9371  -24.8874  -45.8064 C.3       13 UNK         0.1400 
     76 CB         -3.5225  -24.5830  -44.3593 C.3       13 UNK        -0.1800 
     77 C          -3.1930  -26.1234  -46.3415 C.2       13 UNK         0.5000 
     78 O          -3.7784  -27.2059  -46.3859 O.2       13 UNK        -0.5000 
     79 N          -1.9425  -25.9365  -46.7892 N.am      14 UNK        -0.5000 
     80 CA         -1.1269  -26.9726  -47.4307 C.3       14 UNK         0.1400 
     81 CB          0.3012  -26.4457  -47.6361 C.3       14 UNK        -0.1800 
     82 C          -1.7230  -27.4738  -48.7623 C.2       14 UNK         0.5000 
     83 O          -1.6121  -28.6603  -49.0718 O.2       14 UNK        -0.5000 
     84 N          -2.3795  -26.5705  -49.5002 N.am      15 UNK        -0.5000 
     85 CA         -3.1176  -26.8473  -50.7331 C.3       15 UNK         0.1400 
     86 CB         -3.0651  -25.5906  -51.6146 C.3       15 UNK        -0.1800 
     87 C          -4.5769  -27.2929  -50.4892 C.2       15 UNK         0.5000 
     88 O          -5.3315  -27.4165  -51.4549 O.2       15 UNK        -0.5000 
     89 N          -4.9690  -27.5005  -49.2215 N.am      16 UNK        -0.5000 
     90 CA         -6.2991  -27.9165  -48.7553 C.3       16 UNK         0.1400 
     91 CB         -6.5798  -29.3756  -49.1700 C.3       16 UNK        -0.1800 
     92 C          -7.4328  -26.9491  -49.1665 C.2       16 UNK         0.5000 
     93 O          -8.5624  -27.3826  -49.3988 O.2       16 UNK        -0.5000 
     94 N          -7.0953  -25.6554  -49.2668 N.am      17 UNK        -0.5000 
     95 CA         -7.9201  -24.5211  -49.6938 C.3       17 UNK         0.1400 
     96 CB         -9.0934  -24.2964  -48.7183 C.3       17 UNK        -0.1800 
     97 C          -8.3792  -24.5779  -51.1677 C.2       17 UNK         0.5000 
     98 O          -9.2305  -23.7792  -51.5622 O.2       17 UNK        -0.5000 
     99 N          -7.8105  -25.4911  -51.9682 N.am      18 UNK        -0.5000 
    100 CA        -8.1353  -25.6568  -53.3863 C.3       18 UNK         0.1400 
    101 CB        -7.7978  -27.0944  -53.8107 C.3       18 UNK        -0.1800 
    102 C         -7.4039  -24.6456  -54.2892 C.2       18 UNK         0.5000 
    103 O         -7.8536  -24.4023  -55.4099 O.2       18 UNK        -0.5000 
    104 N         -6.2932  -24.0855  -53.7979 N.am      19 UNK        -0.5000 
    105 CA        -5.4095  -23.1539  -54.4898 C.3       19 UNK         0.1400 
    106 CB        -4.6052  -23.9035  -55.5754 C.3       19 UNK        -0.1800 
    107 C         -4.4838  -22.4926  -53.4535 C.2       19 UNK         0.5000 
    108 O         -4.6580  -22.7069  -52.2519 O.2       19 UNK        -0.5000 
    109 N         -3.5067  -21.7171  -53.9453 N.am      20 UNK        -0.5000 
    110 CA        -2.3516  -21.1656  -53.2213 C.3       20 UNK         0.1400 
    111 CB        -1.4607  -22.3047  -52.6875 C.3       20 UNK        -0.1800 
    112 C         -2.6801  -20.1233  -52.1305 C.2       20 UNK         0.5000 
    113 O         -1.8132  -19.8074  -51.3170 O.2       20 UNK        -0.5000 
    114 N         -3.9012  -19.5759  -52.1506 N.am      21 UNK        -0.5000 
    115 CA        -4.3462  -18.5120  -51.2473 C.3       21 UNK         0.1400 
    116 CB        -5.8647  -18.6434  -51.0488 C.3       21 UNK        -0.1800 
    117 C         -3.9825  -17.1014  -51.7526 C.2       21 UNK         0.5000 
    118 O         -4.0796  -16.1476  -50.9797 O.2       21 UNK        -0.5000 
    119 N         -3.5758  -16.9954  -53.0264 N.am      22 UNK        -0.5000 
    120 CA        -3.2827  -15.7501  -53.7591 C.3       22 UNK         0.1400 
    121 C         -4.5467  -14.8643  -54.0034 C.2       22 UNK         0.5000 
    122 N         -4.3921  -13.6580  -54.5345 N.am      22 UNK        -0.7600 
    123 O         -5.6828  -15.2707  -53.7664 O.2       22 UNK        -0.5000 
    124 C124       -2.0838  -14.9542  -53.1626 C.3       23 UNK        -0.0398 
    125 S125       -0.5279  -15.9103  -53.1228 S.3       23 UNK        -0.2404 
    126 C126       -0.3389  -16.1927  -51.3376 C.3       23 UNK        -0.0205 
    127 H127        1.2130  -14.1549  -47.4913 H         1 UNK         0.0600 
    128 H128        0.9426  -13.6209  -45.8325 H         1 UNK         0.0600 
    129 H129        0.3537  -12.6470  -47.1818 H         1 UNK         0.0600 
    130 H130        3.3038  -13.8832  -48.1077 H         1 UNK         0.3000 
    131 H131        4.5171  -11.3572  -48.2068 H         1 UNK         0.0600 
    132 H132        6.1542  -12.3077  -49.5649 H         1 UNK         0.0800 
    133 H133        6.2166  -13.8199  -48.7247 H         1 UNK         0.0800 
    134 H134        5.4119  -15.9747  -49.9573 H         1 UNK         0.0800 
    135 H135        4.3754  -15.5201  -48.6295 H         1 UNK         0.0800 
    136 H136        1.8556  -14.8398  -50.4733 H         1 UNK         0.1150 
    137 H137        0.4942  -18.7814  -51.4401 H         1 UNK         0.1150 
    138 H138        4.5059  -18.1916  -50.0707 H         1 UNK         0.1150 
    139 H139        2.1986  -20.5957  -51.6347 H         1 UNK         0.0800 
    140 H140        3.8343  -20.3180  -51.1000 H         1 UNK         0.0800 
    141 H141        0.3565  -21.3440  -50.3383 H         1 UNK         0.0800 
    142 H142        0.1813  -20.0846  -49.1443 H         1 UNK         0.0800 
    143 H143        0.7531  -22.9724  -48.3335 H         1 UNK         0.0600 
    144 H144        0.2423  -20.6100  -46.8180 H         1 UNK         0.3000 
    145 H145       -0.7552  -22.2966  -43.8003 H         1 UNK         0.0600 
    146 H146        1.0509  -20.8294  -42.9630 H         1 UNK         0.0600 
    147 H147        1.7409  -22.1684  -43.8679 H         1 UNK         0.0600 
    148 H148        1.6486  -20.5712  -44.6002 H         1 UNK         0.0600 
    149 H149       -0.6201  -19.5298  -44.3860 H         1 UNK         0.3000 
    150 H150       -3.9394  -19.1565  -45.7135 H         1 UNK         0.0600 
    151 H151       -4.1855  -19.1189  -43.2395 H         1 UNK         0.0600 
    152 H152       -4.0151  -17.4882  -43.8733 H         1 UNK         0.0600 
    153 H153       -2.6522  -18.2734  -43.0782 H         1 UNK         0.0600 
    154 H154       -1.9462  -17.2139  -45.2639 H         1 UNK         0.3000 
    155 H155       -0.2129  -17.5249  -48.3889 H         1 UNK         0.0600 
    156 H156       -0.8204  -15.1153  -48.3991 H         1 UNK         0.0600 
    157 H157       -2.0587  -15.3929  -47.1781 H         1 UNK         0.0600 
    158 H158       -2.2222  -16.1036  -48.7758 H         1 UNK         0.0600 
    159 H159        0.0659  -15.9039  -45.9945 H         1 UNK         0.3000 
    160 H160        2.4902  -17.9671  -44.4266 H         1 UNK         0.0600 
    161 H161        2.8916  -15.2788  -45.8247 H         1 UNK         0.0600 
    162 H162        3.8355  -16.7308  -46.1334 H         1 UNK         0.0600 
    163 H163        3.9005  -15.9621  -44.5536 H         1 UNK         0.0600 
    164 H164        1.4560  -15.3596  -43.7997 H         1 UNK         0.3000 
    165 H165       -1.3363  -16.5899  -41.8841 H         1 UNK         0.0600 
    166 H166        1.2600  -15.1917  -41.0707 H         1 UNK         0.0600 
    167 H167       -0.2253  -15.2784  -40.1288 H         1 UNK         0.0600 
    168 H168        0.7112  -16.7356  -40.4265 H         1 UNK         0.0600 
    169 H169       -0.5672  -13.9355  -42.2128 H         1 UNK         0.3000 
    170 H170       -2.1472  -13.1485  -45.2765 H         1 UNK         0.0600 
    171 H171       -4.0690  -13.3514  -43.7438 H         1 UNK         0.0600 
    172 H172       -3.1398  -12.6706  -42.4184 H         1 UNK         0.0600 
    173 H173       -3.5325  -11.6804  -43.8236 H         1 UNK         0.0600 
    174 H174       -0.4588  -11.8266  -44.8786 H         1 UNK         0.3000 
    175 H175        1.1099  -10.6668  -44.1141 H         1 UNK         0.0600 
    176 H176        1.5600   -8.8132  -42.5548 H         1 UNK         0.0600 
    177 H177       -0.1751   -9.0109  -42.7399 H         1 UNK         0.0600 
    178 H178        0.6208   -9.5995  -41.2853 H         1 UNK         0.0600 
    179 H179        2.7277  -10.8661  -41.9203 H         1 UNK         0.3000 
    180 H180        4.4681  -12.1262  -41.7881 H         1 UNK         0.0600 
    181 H181        3.6261  -15.0886  -41.7758 H         1 UNK         0.0600 
    182 H182        3.3671  -13.9559  -40.4505 H         1 UNK         0.0600 
    183 H183        5.0013  -14.4061  -40.9121 H         1 UNK         0.0600 
    184 H184        4.3355  -13.6255  -44.2582 H         1 UNK         0.3000 
    185 H185        7.6835  -12.9569  -45.0487 H         1 UNK         0.0600 
    186 H186        7.8112  -15.3268  -45.7861 H         1 UNK         0.0600 
    187 H187        8.0224  -15.2108  -44.0468 H         1 UNK         0.0600 
    188 H188        6.4863  -15.7596  -44.7050 H         1 UNK         0.0600 
    189 H189        5.4427  -14.2826  -46.3520 H         1 UNK         0.3000 
    190 H190       -2.2235  -20.9724  -48.0012 H         1 UNK         0.3000 
    191 H191       -3.8547  -22.4745  -49.7275 H         1 UNK         0.0600 
    192 H192       -4.4496  -20.2333  -48.7684 H         1 UNK         0.0600 
    193 H193       -5.7364  -21.4082  -48.5486 H         1 UNK         0.0600 
    194 H194       -4.7032  -20.9730  -47.1939 H         1 UNK         0.0600 
    195 H195       -3.3056  -22.8982  -46.1887 H         1 UNK         0.3000 
    196 H196       -5.0043  -25.1184  -45.8107 H         1 UNK         0.0600 
    197 H197       -3.6694  -25.4533  -43.7185 H         1 UNK         0.0600 
    198 H198       -4.1163  -23.7690  -43.9433 H         1 UNK         0.0600 
    199 H199       -2.4724  -24.2978  -44.2922 H         1 UNK         0.0600 
    200 H200       -1.5162  -25.0208  -46.6834 H         1 UNK         0.3000 
    201 H201       -1.0791  -27.8252  -46.7502 H         1 UNK         0.0600 
    202 H202        0.7541  -26.1547  -46.6881 H         1 UNK         0.0600 
    203 H203        0.3198  -25.5777  -48.2952 H         1 UNK         0.0600 
    204 H204        0.9395  -27.2099  -48.0811 H         1 UNK         0.0600 
    205 H205       -2.3794  -25.6046  -49.1897 H         1 UNK         0.3000 
    206 H206       -2.6240  -27.6573  -51.2733 H         1 UNK         0.0600 
    207 H207       -3.5909  -25.7361  -52.5590 H         1 UNK         0.0600 
    208 H208       -3.5207  -24.7402  -51.1079 H         1 UNK         0.0600 
    209 H209       -2.0364  -25.3220  -51.8544 H         1 UNK         0.0600 
    210 H210       -4.2937  -27.3306  -48.4862 H         1 UNK         0.3000 
    211 H211       -6.2599  -27.8853  -47.6657 H         1 UNK         0.0600 
    212 H212       -6.6917  -29.4744  -50.2502 H         1 UNK         0.0600 
    213 H213       -7.4976  -29.7447  -48.7108 H         1 UNK         0.0600 
    214 H214       -5.7728  -30.0368  -48.8542 H         1 UNK         0.0600 
    215 H215       -6.1323  -25.4030  -49.0422 H         1 UNK         0.3000 
    216 H216       -7.2694  -23.6481  -49.6253 H         1 UNK         0.0600 
    217 H217       -8.7432  -24.2391  -47.6877 H         1 UNK         0.0600 
    218 H218       -9.8310  -25.0970  -48.7794 H         1 UNK         0.0600 
    219 H219       -9.6103  -23.3610  -48.9352 H         1 UNK         0.0600 
    220 H220       -7.1094  -26.1159  -51.5867 H         1 UNK         0.3000 
    221 H221       -9.2087  -25.5097  -53.5239 H         1 UNK         0.0600 
    222 H222       -6.7270  -27.2913  -53.7501 H         1 UNK         0.0600 
    223 H223       -8.3095  -27.8233  -53.1819 H         1 UNK         0.0600 
    224 H224       -8.1057  -27.2789  -54.8406 H         1 UNK         0.0600 
    225 H225       -6.0194  -24.2792  -52.8426 H         1 UNK         0.3000 
    226 H226       -6.0124  -22.3698  -54.9518 H         1 UNK         0.0600 
    227 H227       -5.2603  -24.4003  -56.2908 H         1 UNK         0.0600 
    228 H228       -3.9750  -23.2250  -56.1505 H         1 UNK         0.0600 
    229 H229       -3.9573  -24.6636  -55.1366 H         1 UNK         0.0600 
    230 H230       -3.4817  -21.5768  -54.9457 H         1 UNK         0.3000 
    231 H231       -1.7691  -20.6273  -53.9702 H         1 UNK         0.0600 
    232 H232       -1.2840  -23.0635  -53.4498 H         1 UNK         0.0600 
    233 H233       -1.9130  -22.7940  -51.8252 H         1 UNK         0.0600 
    234 H234       -0.4861  -21.9270  -52.3812 H         1 UNK         0.0600 
    235 H235       -4.5652  -19.9064  -52.8349 H         1 UNK         0.3000 
    236 H236       -3.8610  -18.6343  -50.2771 H         1 UNK         0.0600 
    237 H237       -6.2303  -17.9048  -50.3343 H         1 UNK         0.0600 
    238 H238       -6.4066  -18.4929  -51.9833 H         1 UNK         0.0600 
    239 H239       -6.1289  -19.6278  -50.6619 H         1 UNK         0.0600 
    240 H240       -3.5427  -17.8398  -53.5764 H         1 UNK         0.3000 
    241 H241       -2.9882  -16.0792  -54.7562 H         1 UNK         0.0600 
    242 H242       -3.4865  -13.2941  -54.7861 H         1 UNK         0.3800 
    243 H243       -5.2120  -13.0970  -54.7082 H         1 UNK         0.3800 
    244 H244       -1.8740  -14.0692  -53.7636 H         1 UNK         0.0800 
    245 H245       -2.3251  -14.5804  -52.1670 H         1 UNK         0.0800 
    246 H246       -0.4989  -15.2552  -50.8039 H         1 UNK         0.0800 
    247 H247       -1.1098  -16.8841  -50.9948 H         1 UNK         0.0800 
@<TRIPOS>BOND
     1    1    2 1    
     2    1  127 1    
     3    1  128 1    
     4    1  129 1    
     5    2    3 2    
     6    2    4 am   BACKBONE|DICT|INTERRES
     7    4    5 1    
     8    4  130 1    
     9    5    6 1    
    10    5   65 1    
    11    5  131 1    
    12    6    7 1    
    13    6  132 1    
    14    6  133 1    
    15    7    8 1    
    16    8    9 1    
    17    8  134 1    
    18    8  135 1    
    19    9   10 ar   
    20    9   14 ar   
    21   10   11 ar   
    22   10  136 1    
    23   11   12 ar   
    24   11  126 1    
    25   12   13 ar   
    26   12  137 1    
    27   13   14 ar   
    28   13   15 1    
    29   14  138 1    
    30   15   16 1    
    31   15  139 1    
    32   15  140 1    
    33   16   17 1    
    34   17   18 1    
    35   17  141 1    
    36   17  142 1    
    37   18   19 1    
    38   18   67 1    
    39   18  143 1    
    40   19   20 am   BACKBONE|DICT|INTERRES
    41   19  144 1    
    42   20   21 2    
    43   20   22 1    
    44   22   23 1    
    45   22   24 1    
    46   22  145 1    
    47   23  146 1    
    48   23  147 1    
    49   23  148 1    
    50   24   25 am   BACKBONE|DICT|INTERRES
    51   24  149 1    
    52   25   26 2    
    53   25   27 1    
    54   27   28 1    
    55   27   29 1    
    56   27  150 1    
    57   28  151 1    
    58   28  152 1    
    59   28  153 1    
    60   29   30 am   BACKBONE|DICT|INTERRES
    61   29  154 1    
    62   30   31 2    
    63   30   32 1    
    64   32   33 1    
    65   32   34 1    
    66   32  155 1    
    67   33  156 1    
    68   33  157 1    
    69   33  158 1    
    70   34   35 am   BACKBONE|DICT|INTERRES
    71   34  159 1    
    72   35   36 2    
    73   35   37 1    
    74   37   38 1    
    75   37   39 1    
    76   37  160 1    
    77   38  161 1    
    78   38  162 1    
    79   38  163 1    
    80   39   40 am   BACKBONE|DICT|INTERRES
    81   39  164 1    
    82   40   41 2    
    83   40   42 1    
    84   42   43 1    
    85   42   44 1    
    86   42  165 1    
    87   43  166 1    
    88   43  167 1    
    89   43  168 1    
    90   44   45 am   BACKBONE|DICT|INTERRES
    91   44  169 1    
    92   45   46 2    
    93   45   47 1    
    94   47   48 1    
    95   47   49 1    
    96   47  170 1    
    97   48  171 1    
    98   48  172 1    
    99   48  173 1    
   100   49   50 am   BACKBONE|DICT|INTERRES
   101   49  174 1    
   102   50   51 2    
   103   50   52 1    
   104   52   53 1    
   105   52   54 1    
   106   52  175 1    
   107   53  176 1    
   108   53  177 1    
   109   53  178 1    
   110   54   55 am   BACKBONE|DICT|INTERRES
   111   54  179 1    
   112   55   56 2    
   113   55   57 1    
   114   57   58 1    
   115   57   59 1    
   116   57  180 1    
   117   58  181 1    
   118   58  182 1    
   119   58  183 1    
   120   59   60 am   BACKBONE|DICT|INTERRES
   121   59  184 1    
   122   60   61 2    
   123   60   62 1    
   124   62   63 1    
   125   62   64 1    
   126   62  185 1    
   127   63  186 1    
   128   63  187 1    
   129   63  188 1    
   130   64   65 am   BACKBONE|DICT|INTERRES
   131   64  189 1    
   132   65   66 2    
   133   67   68 2    
   134   67   69 am   BACKBONE|DICT|INTERRES
   135   69   70 1    
   136   69  190 1    
   137   70   71 1    
   138   70   72 1    
   139   70  191 1    
   140   71  192 1    
   141   71  193 1    
   142   71  194 1    
   143   72   73 2    
   144   72   74 am   BACKBONE|DICT|INTERRES
   145   74   75 1    
   146   74  195 1    
   147   75   76 1    
   148   75   77 1    
   149   75  196 1    
   150   76  197 1    
   151   76  198 1    
   152   76  199 1    
   153   77   78 2    
   154   77   79 am   BACKBONE|DICT|INTERRES
   155   79   80 1    
   156   79  200 1    
   157   80   81 1    
   158   80   82 1    
   159   80  201 1    
   160   81  202 1    
   161   81  203 1    
   162   81  204 1    
   163   82   83 2    
   164   82   84 am   BACKBONE|DICT|INTERRES
   165   84   85 1    
   166   84  205 1    
   167   85   86 1    
   168   85   87 1    
   169   85  206 1    
   170   86  207 1    
   171   86  208 1    
   172   86  209 1    
   173   87   88 2    
   174   87   89 am   BACKBONE|DICT|INTERRES
   175   89   90 1    
   176   89  210 1    
   177   90   91 1    
   178   90   92 1    
   179   90  211 1    
   180   91  212 1    
   181   91  213 1    
   182   91  214 1    
   183   92   93 2    
   184   92   94 am   BACKBONE|DICT|INTERRES
   185   94   95 1    
   186   94  215 1    
   187   95   96 1    
   188   95   97 1    
   189   95  216 1    
   190   96  217 1    
   191   96  218 1    
   192   96  219 1    
   193   97   98 2    
   194   97   99 am   BACKBONE|DICT|INTERRES
   195   99  100 1    
   196   99  220 1    
   197  100  101 1    
   198  100  102 1    
   199  100  221 1    
   200  101  222 1    
   201  101  223 1    
   202  101  224 1    
   203  102  103 2    
   204  102  104 am   BACKBONE|DICT|INTERRES
   205  104  105 1    
   206  104  225 1    
   207  105  106 1    
   208  105  107 1    
   209  105  226 1    
   210  106  227 1    
   211  106  228 1    
   212  106  229 1    
   213  107  108 2    
   214  107  109 am   BACKBONE|DICT|INTERRES
   215  109  110 1    
   216  109  230 1    
   217  110  111 1    
   218  110  112 1    
   219  110  231 1    
   220  111  232 1    
   221  111  233 1    
   222  111  234 1    
   223  112  113 2    
   224  112  114 am   BACKBONE|DICT|INTERRES
   225  114  115 1    
   226  114  235 1    
   227  115  116 1    
   228  115  117 1    
   229  115  236 1    
   230  116  237 1    
   231  116  238 1    
   232  116  239 1    
   233  117  118 2    
   234  117  119 am   BACKBONE|DICT|INTERRES
   235  119  120 1    
   236  119  240 1    
   237  120  121 1    
   238  120  124 1    
   239  120  241 1    
   240  121  122 am   BACKBONE|DICT|INTERRES
   241  121  123 2    
   242  122  242 1    
   243  122  243 1    
   244  124  125 1    
   245  124  244 1    
   246  124  245 1    
   247  125  126 1    
   248  126  246 1    
   249  126  247 1    
@<TRIPOS>SUBSTRUCTURE
     1 UNK         1 GROUP             0       ****    0 ROOT    
