@<TRIPOS>MOLECULE
3R540
247   249    1
SMALL
USER_CHARGES


@<TRIPOS>ATOM
      1 CA          7.4177  -10.4945  -52.7041 C.3       0 UNK        -0.1800 
      2 C           6.9735  -11.4906  -51.6420 C.2       0 UNK         0.5000 
      3 O           7.8049  -11.9859  -50.8802 O.2       0 UNK        -0.5000 
      4 N           5.6704  -11.7920  -51.5956 N.am      1 UNK        -0.5000 
      5 CA          5.0465  -12.6921  -50.6181 C.3       1 UNK         0.1400 
      6 C6          3.6225  -13.1330  -51.0486 C.3       23 UNK        -0.0398 
      7 S7          3.5679  -13.7967  -52.7487 S.3       23 UNK        -0.2404 
      8 C8          3.9038  -15.5700  -52.4739 C.3       23 UNK        -0.0205 
      9 C9          2.6995  -16.4227  -52.0706 C.ar      23 UNK        -0.0193 
     10 C10         1.3813  -16.0639  -52.3829 C.ar      23 UNK        -0.1150 
     11 C11         0.3132  -16.9103  -52.0680 C.ar      23 UNK        -0.0193 
     12 C12         0.5729  -18.1395  -51.4538 C.ar      23 UNK        -0.1150 
     13 C13         1.8783  -18.5048  -51.1162 C.ar      23 UNK        -0.0193 
     14 C14         2.9328  -17.6413  -51.4260 C.ar      23 UNK        -0.1150 
     15 C15         2.1592  -19.8364  -50.4352 C.3       23 UNK        -0.0205 
     16 S16         1.8446  -19.7508  -48.6437 S.3       23 UNK        -0.2404 
     17 C17         0.1116  -20.3153  -48.5371 C.3       23 UNK        -0.0398 
     18 CA          0.0094  -21.6759  -47.8083 C.3       11 UNK         0.1400 
     19 N           0.2470  -21.5597  -46.3671 N.am      11 UNK        -0.5000 
     20 C           0.3838  -22.5961  -45.5290 C.2       10 UNK         0.5000 
     21 O           0.3785  -23.7730  -45.8902 O.2       10 UNK        -0.5000 
     22 CA          0.4906  -22.2667  -44.0292 C.3       10 UNK         0.1400 
     23 CB          1.9138  -21.8216  -43.6615 C.3       10 UNK        -0.1800 
     24 N          -0.4764  -21.2510  -43.6073 N.am      10 UNK        -0.5000 
     25 C          -1.8068  -21.4164  -43.6439 C.2       9 UNK         0.5000 
     26 O          -2.3540  -22.4606  -43.9959 O.2       9 UNK        -0.5000 
     27 CA         -2.6780  -20.2060  -43.2648 C.3       9 UNK         0.1400 
     28 CB         -2.7814  -20.0656  -41.7391 C.3       9 UNK        -0.1800 
     29 N          -2.1978  -18.9539  -43.8499 N.am      9 UNK        -0.5000 
     30 C          -2.1307  -18.7069  -45.1666 C.2       8 UNK         0.5000 
     31 O          -2.5082  -19.4965  -46.0313 O.2       8 UNK        -0.5000 
     32 CA         -1.4779  -17.3805  -45.5948 C.3       8 UNK         0.1400 
     33 CB         -2.4605  -16.2092  -45.4500 C.3       8 UNK        -0.1800 
     34 N          -0.2551  -17.0912  -44.8473 N.am      8 UNK        -0.5000 
     35 C           0.8358  -17.8699  -44.8364 C.2       7 UNK         0.5000 
     36 O           0.9436  -18.9077  -45.4864 O.2       7 UNK        -0.5000 
     37 CA          1.9693  -17.4519  -43.8868 C.3       7 UNK         0.1400 
     38 CB          2.7905  -16.2936  -44.4757 C.3       7 UNK        -0.1800 
     39 N           1.4555  -17.0849  -42.5671 N.am      7 UNK        -0.5000 
     40 C           0.9079  -17.9526  -41.7034 C.2       6 UNK         0.5000 
     41 O           0.8153  -19.1617  -41.9139 O.2       6 UNK        -0.5000 
     42 CA          0.3356  -17.3642  -40.4009 C.3       6 UNK         0.1400 
     43 CB          1.4444  -17.1901  -39.3525 C.3       6 UNK        -0.1800 
     44 N          -0.3386  -16.0825  -40.6115 N.am      6 UNK        -0.5000 
     45 C          -1.4783  -15.9306  -41.3011 C.2       5 UNK         0.5000 
     46 O          -2.1009  -16.8622  -41.8088 O.2       5 UNK        -0.5000 
     47 CA         -1.9722  -14.4859  -41.5035 C.3       5 UNK         0.1400 
     48 CB         -2.7823  -14.0135  -40.2872 C.3       5 UNK        -0.1800 
     49 N          -0.8842  -13.5381  -41.7662 N.am      5 UNK        -0.5000 
     50 C          -0.0611  -13.6117  -42.8197 C.2       4 UNK         0.5000 
     51 O          -0.1191  -14.5044  -43.6683 O.2       4 UNK        -0.5000 
     52 CA          1.0487  -12.5517  -42.9073 C.3       4 UNK         0.1400 
     53 CB          2.2737  -12.9948  -42.0916 C.3       4 UNK        -0.1800 
     54 N           1.4609  -12.3452  -44.2934 N.am      4 UNK        -0.5000 
     55 C           0.7577  -11.6715  -45.2121 C.2       3 UNK         0.5000 
     56 O          -0.2900  -11.0757  -44.9540 O.2       3 UNK        -0.5000 
     57 CA          1.2917  -11.6779  -46.6637 C.3       3 UNK         0.1400 
     58 CB          1.1635  -10.2948  -47.3352 C.3       3 UNK        -0.1800 
     59 N           2.6551  -12.2046  -46.8311 N.am      3 UNK        -0.5000 
     60 C           3.7975  -11.7034  -46.3344 C.2       2 UNK         0.5000 
     61 O           3.8609  -10.7336  -45.5789 O.2       2 UNK        -0.5000 
     62 CA          5.0946  -12.4142  -46.7657 C.3       2 UNK         0.1400 
     63 CB          5.3745  -13.6185  -45.8525 C.3       2 UNK        -0.1800 
     64 N           5.0835  -12.8582  -48.1645 N.am      2 UNK        -0.5000 
     65 C           5.0128  -12.0351  -49.2210 C.2       1 UNK         0.5000 
     66 O           4.9101  -10.8088  -49.1250 O.2       1 UNK        -0.5000 
     67 C          -1.3285  -22.3775  -48.1127 C.2       11 UNK         0.5000 
     68 O          -1.3520  -23.2731  -48.9556 O.2       11 UNK        -0.5000 
     69 N          -2.4028  -22.0031  -47.4031 N.am      12 UNK        -0.5000 
     70 CA         -3.7175  -22.6382  -47.5094 C.3       12 UNK         0.1400 
     71 CB         -4.7521  -21.8479  -46.6962 C.3       12 UNK        -0.1800 
     72 C          -3.6980  -24.1169  -47.0852 C.2       12 UNK         0.5000 
     73 O          -4.2838  -24.9491  -47.7753 O.2       12 UNK        -0.5000 
     74 N          -2.9935  -24.4323  -45.9891 N.am      13 UNK        -0.5000 
     75 CA         -2.7817  -25.7979  -45.5061 C.3       13 UNK         0.1400 
     76 CB         -2.0851  -25.7679  -44.1377 C.3       13 UNK        -0.1800 
     77 C          -1.9963  -26.6633  -46.5082 C.2       13 UNK         0.5000 
     78 O          -2.4075  -27.7910  -46.7837 O.2       13 UNK        -0.5000 
     79 N          -0.9201  -26.1040  -47.0808 N.am      14 UNK        -0.5000 
     80 CA         -0.1193  -26.7274  -48.1393 C.3       14 UNK         0.1400 
     81 CB          1.1256  -25.8701  -48.4121 C.3       14 UNK        -0.1800 
     82 C          -0.9151  -26.9640  -49.4387 C.2       14 UNK         0.5000 
     83 O          -0.6957  -27.9705  -50.1129 O.2       14 UNK        -0.5000 
     84 N          -1.8548  -26.0583  -49.7381 N.am      15 UNK        -0.5000 
     85 CA         -2.8015  -26.1432  -50.8504 C.3       15 UNK         0.1400 
     86 CB         -3.2235  -24.7184  -51.2461 C.3       15 UNK        -0.1800 
     87 C          -4.0312  -27.0314  -50.5518 C.2       15 UNK         0.5000 
     88 O          -4.9478  -27.0689  -51.3722 O.2       15 UNK        -0.5000 
     89 N          -4.0452  -27.7240  -49.4021 N.am      16 UNK        -0.5000 
     90 CA         -5.0830  -28.6481  -48.9316 C.3       16 UNK         0.1400 
     91 CB         -5.1889  -29.8792  -49.8567 C.3       16 UNK        -0.1800 
     92 C          -6.4379  -27.9552  -48.6761 C.2       16 UNK         0.5000 
     93 O          -7.4857  -28.4673  -49.0734 O.2       16 UNK        -0.5000 
     94 N          -6.3748  -26.7968  -48.0060 N.am      17 UNK        -0.5000 
     95 CA         -7.4760  -25.9198  -47.5919 C.3       17 UNK         0.1400 
     96 CB         -8.5214  -26.6680  -46.7377 C.3       17 UNK        -0.1800 
     97 C          -8.1048  -25.1111  -48.7445 C.2       17 UNK         0.5000 
     98 O          -9.1649  -24.5111  -48.5560 O.2       17 UNK        -0.5000 
     99 N          -7.4324  -25.0675  -49.9017 N.am      18 UNK        -0.5000 
    100 CA        -7.7489  -24.1666  -51.0084 C.3       18 UNK         0.1400 
    101 CB        -7.1867  -24.7617  -52.3091 C.3       18 UNK        -0.1800 
    102 C         -7.1828  -22.7547  -50.7522 C.2       18 UNK         0.5000 
    103 O         -6.4342  -22.5425  -49.7958 O.2       18 UNK        -0.5000 
    104 N         -7.5321  -21.8114  -51.6362 N.am      19 UNK        -0.5000 
    105 CA        -7.1264  -20.4025  -51.5705 C.3       19 UNK         0.1400 
    106 CB        -8.0084  -19.5934  -52.5358 C.3       19 UNK        -0.1800 
    107 C         -5.6334  -20.1426  -51.8662 C.2       19 UNK         0.5000 
    108 O         -5.1840  -19.0091  -51.6986 O.2       19 UNK        -0.5000 
    109 N         -4.9036  -21.1652  -52.3413 N.am      20 UNK        -0.5000 
    110 CA        -3.4639  -21.1649  -52.6471 C.3       20 UNK         0.1400 
    111 CB        -2.6430  -20.9977  -51.3522 C.3       20 UNK        -0.1800 
    112 C         -3.0525  -20.1457  -53.7329 C.2       20 UNK         0.5000 
    113 O         -1.8994  -19.7167  -53.7660 O.2       20 UNK        -0.5000 
    114 N         -4.0159  -19.7745  -54.5902 N.am      21 UNK        -0.5000 
    115 CA        -3.9518  -18.7344  -55.6228 C.3       21 UNK         0.1400 
    116 CB        -2.8822  -19.0636  -56.6859 C.3       21 UNK        -0.1800 
    117 C         -3.8143  -17.2991  -55.0641 C.2       21 UNK         0.5000 
    118 O         -3.4709  -16.3905  -55.8222 O.2       21 UNK        -0.5000 
    119 N         -4.1045  -17.0995  -53.7693 N.am      22 UNK        -0.5000 
    120 CA        -4.0916  -15.7820  -53.1097 C.3       22 UNK         0.1400 
    121 C         -5.3673  -14.9279  -53.3780 C.2       22 UNK         0.5000 
    122 N         -6.4194  -15.4634  -53.9861 N.am      22 UNK        -0.7600 
    123 O         -5.3995  -13.7488  -53.0363 O.2       22 UNK        -0.5000 
    124 C124       -3.8281  -15.8956  -51.5828 C.3       23 UNK        -0.0398 
    125 S125       -2.2726  -16.6964  -51.0361 S.3       23 UNK        -0.2404 
    126 C126       -1.1108  -16.5061  -52.4318 C.3       23 UNK        -0.0205 
    127 H127        8.1521  -10.9537  -53.3659 H         1 UNK         0.0600 
    128 H128        7.8769   -9.6249  -52.2340 H         1 UNK         0.0600 
    129 H129        6.5809  -10.1500  -53.3121 H         1 UNK         0.0600 
    130 H130        5.0348  -11.3469  -52.2416 H         1 UNK         0.3000 
    131 H131        5.6695  -13.5868  -50.5529 H         1 UNK         0.0600 
    132 H132        3.2243  -13.8832  -50.3630 H         1 UNK         0.0800 
    133 H133        2.9329  -12.2877  -51.0056 H         1 UNK         0.0800 
    134 H134        4.6983  -15.6672  -51.7325 H         1 UNK         0.0800 
    135 H135        4.3033  -15.9813  -53.4016 H         1 UNK         0.0800 
    136 H136        1.1794  -15.1335  -52.8931 H         1 UNK         0.1150 
    137 H137       -0.2477  -18.8073  -51.2359 H         1 UNK         0.1150 
    138 H138        3.9458  -17.9310  -51.1833 H         1 UNK         0.1150 
    139 H139        1.5686  -20.6303  -50.8948 H         1 UNK         0.0800 
    140 H140        3.2024  -20.1180  -50.5865 H         1 UNK         0.0800 
    141 H141       -0.3034  -20.3826  -49.5426 H         1 UNK         0.0800 
    142 H142       -0.4761  -19.5543  -48.0217 H         1 UNK         0.0800 
    143 H143        0.7893  -22.3280  -48.2078 H         1 UNK         0.0600 
    144 H144        0.3244  -20.6151  -45.9967 H         1 UNK         0.3000 
    145 H145        0.2720  -23.1815  -43.4747 H         1 UNK         0.0600 
    146 H146        2.0121  -21.6664  -42.5870 H         1 UNK         0.0600 
    147 H147        2.6453  -22.5775  -43.9497 H         1 UNK         0.0600 
    148 H148        2.1891  -20.8919  -44.1593 H         1 UNK         0.0600 
    149 H149       -0.0966  -20.3736  -43.2672 H         1 UNK         0.3000 
    150 H150       -3.6817  -20.3878  -43.6543 H         1 UNK         0.0600 
    151 H151       -3.1446  -20.9886  -41.2853 H         1 UNK         0.0600 
    152 H152       -3.4768  -19.2729  -41.4631 H         1 UNK         0.0600 
    153 H153       -1.8157  -19.8354  -41.2888 H         1 UNK         0.0600 
    154 H154       -1.9131  -18.2288  -43.1980 H         1 UNK         0.3000 
    155 H155       -1.2068  -17.4682  -46.6489 H         1 UNK         0.0600 
    156 H156       -2.7535  -16.0551  -44.4113 H         1 UNK         0.0600 
    157 H157       -2.0214  -15.2800  -45.8138 H         1 UNK         0.0600 
    158 H158       -3.3690  -16.3887  -46.0260 H         1 UNK         0.0600 
    159 H159       -0.2461  -16.2297  -44.3054 H         1 UNK         0.3000 
    160 H160        2.6357  -18.3086  -43.7646 H         1 UNK         0.0600 
    161 H161        2.1850  -15.4018  -44.6354 H         1 UNK         0.0600 
    162 H162        3.2157  -16.5745  -45.4401 H         1 UNK         0.0600 
    163 H163        3.6201  -16.0249  -43.8217 H         1 UNK         0.0600 
    164 H164        1.4402  -16.1026  -42.3408 H         1 UNK         0.3000 
    165 H165       -0.3965  -18.0733  -40.0088 H         1 UNK         0.0600 
    166 H166        1.0370  -16.8467  -38.4014 H         1 UNK         0.0600 
    167 H167        1.9541  -18.1359  -39.1637 H         1 UNK         0.0600 
    168 H168        2.1973  -16.4700  -39.6755 H         1 UNK         0.0600 
    169 H169        0.1063  -15.2618  -40.2284 H         1 UNK         0.3000 
    170 H170       -2.6322  -14.4833  -42.3735 H         1 UNK         0.0600 
    171 H171       -3.6090  -14.6948  -40.0810 H         1 UNK         0.0600 
    172 H172       -2.1678  -13.9611  -39.3876 H         1 UNK         0.0600 
    173 H173       -3.2121  -13.0265  -40.4589 H         1 UNK         0.0600 
    174 H174       -0.7715  -12.7844  -41.1033 H         1 UNK         0.3000 
    175 H175        0.6742  -11.6089  -42.5033 H         1 UNK         0.0600 
    176 H176        2.6864  -13.9356  -42.4574 H         1 UNK         0.0600 
    177 H177        3.0646  -12.2456  -42.1334 H         1 UNK         0.0600 
    178 H178        2.0172  -13.1349  -41.0408 H         1 UNK         0.0600 
    179 H179        2.2950  -12.8235  -44.5949 H         1 UNK         0.3000 
    180 H180        0.6420  -12.3642  -47.2086 H         1 UNK         0.0600 
    181 H181        1.7346   -9.5328  -46.8041 H         1 UNK         0.0600 
    182 H182        0.1245   -9.9643  -47.3616 H         1 UNK         0.0600 
    183 H183        1.5193  -10.3224  -48.3653 H         1 UNK         0.0600 
    184 H184        2.7301  -13.0186  -47.4241 H         1 UNK         0.3000 
    185 H185        5.9137  -11.7013  -46.6487 H         1 UNK         0.0600 
    186 H186        5.3905  -13.3198  -44.8033 H         1 UNK         0.0600 
    187 H187        4.6150  -14.3931  -45.9618 H         1 UNK         0.0600 
    188 H188        6.3434  -14.0653  -46.0755 H         1 UNK         0.0600 
    189 H189        5.1759  -13.8519  -48.3192 H         1 UNK         0.3000 
    190 H190       -2.3263  -21.2218  -46.7562 H         1 UNK         0.3000 
    191 H191       -4.0175  -22.6021  -48.5580 H         1 UNK         0.0600 
    192 H192       -4.4982  -21.8194  -45.6366 H         1 UNK         0.0600 
    193 H193       -5.7424  -22.2962  -46.7884 H         1 UNK         0.0600 
    194 H194       -4.8278  -20.8202  -47.0515 H         1 UNK         0.0600 
    195 H195       -2.5825  -23.6844  -45.4361 H         1 UNK         0.3000 
    196 H196       -3.7638  -26.2564  -45.3732 H         1 UNK         0.0600 
    197 H197       -1.9340  -26.7776  -43.7540 H         1 UNK         0.0600 
    198 H198       -2.6832  -25.2273  -43.4041 H         1 UNK         0.0600 
    199 H199       -1.1085  -25.2869  -44.1911 H         1 UNK         0.0600 
    200 H200       -0.6235  -25.1823  -46.7704 H         1 UNK         0.3000 
    201 H201        0.2121  -27.7014  -47.7739 H         1 UNK         0.0600 
    202 H202        1.7319  -25.7584  -47.5130 H         1 UNK         0.0600 
    203 H203        0.8587  -24.8722  -48.7606 H         1 UNK         0.0600 
    204 H204        1.7559  -26.3275  -49.1756 H         1 UNK         0.0600 
    205 H205       -1.9203  -25.2256  -49.1614 H         1 UNK         0.3000 
    206 H206       -2.2894  -26.5871  -51.7062 H         1 UNK         0.0600 
    207 H207       -2.3535  -24.0845  -51.4175 H         1 UNK         0.0600 
    208 H208       -3.7984  -24.7235  -52.1715 H         1 UNK         0.0600 
    209 H209       -3.8350  -24.2485  -50.4749 H         1 UNK         0.0600 
    210 H210       -3.2673  -27.5967  -48.7660 H         1 UNK         0.3000 
    211 H211       -4.7442  -29.0059  -47.9584 H         1 UNK         0.0600 
    212 H212       -5.5767  -29.6176  -50.8416 H         1 UNK         0.0600 
    213 H213       -5.8578  -30.6287  -49.4324 H         1 UNK         0.0600 
    214 H214       -4.2171  -30.3534  -49.9936 H         1 UNK         0.0600 
    215 H215       -5.4528  -26.4046  -47.8251 H         1 UNK         0.3000 
    216 H216       -7.0135  -25.1749  -46.9428 H         1 UNK         0.0600 
    217 H217       -9.2177  -25.9685  -46.2739 H         1 UNK         0.0600 
    218 H218       -8.0462  -27.2303  -45.9339 H         1 UNK         0.0600 
    219 H219       -9.1128  -27.3635  -47.3333 H         1 UNK         0.0600 
    220 H220       -6.5589  -25.5709  -49.9643 H         1 UNK         0.3000 
    221 H221       -8.8337  -24.0875  -51.1065 H         1 UNK         0.0600 
    222 H222       -6.0982  -24.7796  -52.3052 H         1 UNK         0.0600 
    223 H223       -7.5346  -25.7844  -52.4574 H         1 UNK         0.0600 
    224 H224       -7.5020  -24.1858  -53.1796 H         1 UNK         0.0600 
    225 H225       -8.1441  -22.0618  -52.3997 H         1 UNK         0.3000 
    226 H226       -7.3148  -20.0438  -50.5564 H         1 UNK         0.0600 
    227 H227       -9.0648  -19.7001  -52.2886 H         1 UNK         0.0600 
    228 H228       -7.7736  -18.5291  -52.4861 H         1 UNK         0.0600 
    229 H229       -7.8709  -19.9118  -53.5698 H         1 UNK         0.0600 
    230 H230       -5.3775  -22.0472  -52.4677 H         1 UNK         0.3000 
    231 H231       -3.2389  -22.1503  -53.0567 H         1 UNK         0.0600 
    232 H232       -1.5858  -21.1966  -51.5304 H         1 UNK         0.0600 
    233 H233       -2.9790  -21.6933  -50.5849 H         1 UNK         0.0600 
    234 H234       -2.7250  -19.9884  -50.9470 H         1 UNK         0.0600 
    235 H235       -4.9226  -20.2016  -54.4662 H         1 UNK         0.3000 
    236 H236       -4.9204  -18.7600  -56.1237 H         1 UNK         0.0600 
    237 H237       -2.9660  -18.3963  -57.5443 H         1 UNK         0.0600 
    238 H238       -1.8710  -18.9583  -56.2923 H         1 UNK         0.0600 
    239 H239       -2.9946  -20.0820  -57.0575 H         1 UNK         0.0600 
    240 H240       -4.3773  -17.8828  -53.1845 H         1 UNK         0.3000 
    241 H241       -3.2776  -15.1980  -53.5400 H         1 UNK         0.0600 
    242 H242       -7.2351  -14.8965  -54.1582 H         1 UNK         0.3800 
    243 H243       -6.4094  -16.4285  -54.2723 H         1 UNK         0.3800 
    244 H244       -3.8269  -14.9003  -51.1349 H         1 UNK         0.0800 
    245 H245       -4.6526  -16.4276  -51.1058 H         1 UNK         0.0800 
    246 H246       -1.1288  -15.4680  -52.7653 H         1 UNK         0.0800 
    247 H247       -1.4338  -17.1187  -53.2721 H         1 UNK         0.0800 
@<TRIPOS>BOND
     1    1    2 1    
     2    1  127 1    
     3    1  128 1    
     4    1  129 1    
     5    2    3 2    
     6    2    4 am   BACKBONE|DICT|INTERRES
     7    4    5 1    
     8    4  130 1    
     9    5    6 1    
    10    5   65 1    
    11    5  131 1    
    12    6    7 1    
    13    6  132 1    
    14    6  133 1    
    15    7    8 1    
    16    8    9 1    
    17    8  134 1    
    18    8  135 1    
    19    9   10 ar   
    20    9   14 ar   
    21   10   11 ar   
    22   10  136 1    
    23   11   12 ar   
    24   11  126 1    
    25   12   13 ar   
    26   12  137 1    
    27   13   14 ar   
    28   13   15 1    
    29   14  138 1    
    30   15   16 1    
    31   15  139 1    
    32   15  140 1    
    33   16   17 1    
    34   17   18 1    
    35   17  141 1    
    36   17  142 1    
    37   18   19 1    
    38   18   67 1    
    39   18  143 1    
    40   19   20 am   BACKBONE|DICT|INTERRES
    41   19  144 1    
    42   20   21 2    
    43   20   22 1    
    44   22   23 1    
    45   22   24 1    
    46   22  145 1    
    47   23  146 1    
    48   23  147 1    
    49   23  148 1    
    50   24   25 am   BACKBONE|DICT|INTERRES
    51   24  149 1    
    52   25   26 2    
    53   25   27 1    
    54   27   28 1    
    55   27   29 1    
    56   27  150 1    
    57   28  151 1    
    58   28  152 1    
    59   28  153 1    
    60   29   30 am   BACKBONE|DICT|INTERRES
    61   29  154 1    
    62   30   31 2    
    63   30   32 1    
    64   32   33 1    
    65   32   34 1    
    66   32  155 1    
    67   33  156 1    
    68   33  157 1    
    69   33  158 1    
    70   34   35 am   BACKBONE|DICT|INTERRES
    71   34  159 1    
    72   35   36 2    
    73   35   37 1    
    74   37   38 1    
    75   37   39 1    
    76   37  160 1    
    77   38  161 1    
    78   38  162 1    
    79   38  163 1    
    80   39   40 am   BACKBONE|DICT|INTERRES
    81   39  164 1    
    82   40   41 2    
    83   40   42 1    
    84   42   43 1    
    85   42   44 1    
    86   42  165 1    
    87   43  166 1    
    88   43  167 1    
    89   43  168 1    
    90   44   45 am   BACKBONE|DICT|INTERRES
    91   44  169 1    
    92   45   46 2    
    93   45   47 1    
    94   47   48 1    
    95   47   49 1    
    96   47  170 1    
    97   48  171 1    
    98   48  172 1    
    99   48  173 1    
   100   49   50 am   BACKBONE|DICT|INTERRES
   101   49  174 1    
   102   50   51 2    
   103   50   52 1    
   104   52   53 1    
   105   52   54 1    
   106   52  175 1    
   107   53  176 1    
   108   53  177 1    
   109   53  178 1    
   110   54   55 am   BACKBONE|DICT|INTERRES
   111   54  179 1    
   112   55   56 2    
   113   55   57 1    
   114   57   58 1    
   115   57   59 1    
   116   57  180 1    
   117   58  181 1    
   118   58  182 1    
   119   58  183 1    
   120   59   60 am   BACKBONE|DICT|INTERRES
   121   59  184 1    
   122   60   61 2    
   123   60   62 1    
   124   62   63 1    
   125   62   64 1    
   126   62  185 1    
   127   63  186 1    
   128   63  187 1    
   129   63  188 1    
   130   64   65 am   BACKBONE|DICT|INTERRES
   131   64  189 1    
   132   65   66 2    
   133   67   68 2    
   134   67   69 am   BACKBONE|DICT|INTERRES
   135   69   70 1    
   136   69  190 1    
   137   70   71 1    
   138   70   72 1    
   139   70  191 1    
   140   71  192 1    
   141   71  193 1    
   142   71  194 1    
   143   72   73 2    
   144   72   74 am   BACKBONE|DICT|INTERRES
   145   74   75 1    
   146   74  195 1    
   147   75   76 1    
   148   75   77 1    
   149   75  196 1    
   150   76  197 1    
   151   76  198 1    
   152   76  199 1    
   153   77   78 2    
   154   77   79 am   BACKBONE|DICT|INTERRES
   155   79   80 1    
   156   79  200 1    
   157   80   81 1    
   158   80   82 1    
   159   80  201 1    
   160   81  202 1    
   161   81  203 1    
   162   81  204 1    
   163   82   83 2    
   164   82   84 am   BACKBONE|DICT|INTERRES
   165   84   85 1    
   166   84  205 1    
   167   85   86 1    
   168   85   87 1    
   169   85  206 1    
   170   86  207 1    
   171   86  208 1    
   172   86  209 1    
   173   87   88 2    
   174   87   89 am   BACKBONE|DICT|INTERRES
   175   89   90 1    
   176   89  210 1    
   177   90   91 1    
   178   90   92 1    
   179   90  211 1    
   180   91  212 1    
   181   91  213 1    
   182   91  214 1    
   183   92   93 2    
   184   92   94 am   BACKBONE|DICT|INTERRES
   185   94   95 1    
   186   94  215 1    
   187   95   96 1    
   188   95   97 1    
   189   95  216 1    
   190   96  217 1    
   191   96  218 1    
   192   96  219 1    
   193   97   98 2    
   194   97   99 am   BACKBONE|DICT|INTERRES
   195   99  100 1    
   196   99  220 1    
   197  100  101 1    
   198  100  102 1    
   199  100  221 1    
   200  101  222 1    
   201  101  223 1    
   202  101  224 1    
   203  102  103 2    
   204  102  104 am   BACKBONE|DICT|INTERRES
   205  104  105 1    
   206  104  225 1    
   207  105  106 1    
   208  105  107 1    
   209  105  226 1    
   210  106  227 1    
   211  106  228 1    
   212  106  229 1    
   213  107  108 2    
   214  107  109 am   BACKBONE|DICT|INTERRES
   215  109  110 1    
   216  109  230 1    
   217  110  111 1    
   218  110  112 1    
   219  110  231 1    
   220  111  232 1    
   221  111  233 1    
   222  111  234 1    
   223  112  113 2    
   224  112  114 am   BACKBONE|DICT|INTERRES
   225  114  115 1    
   226  114  235 1    
   227  115  116 1    
   228  115  117 1    
   229  115  236 1    
   230  116  237 1    
   231  116  238 1    
   232  116  239 1    
   233  117  118 2    
   234  117  119 am   BACKBONE|DICT|INTERRES
   235  119  120 1    
   236  119  240 1    
   237  120  121 1    
   238  120  124 1    
   239  120  241 1    
   240  121  122 am   BACKBONE|DICT|INTERRES
   241  121  123 2    
   242  122  242 1    
   243  122  243 1    
   244  124  125 1    
   245  124  244 1    
   246  124  245 1    
   247  125  126 1    
   248  126  246 1    
   249  126  247 1    
@<TRIPOS>SUBSTRUCTURE
     1 UNK         1 GROUP             0       ****    0 ROOT    
