@<TRIPOS>MOLECULE
3R540
247   249    1
SMALL
USER_CHARGES


@<TRIPOS>ATOM
      1 CA          0.2021   -8.4966  -44.2347 C.3       0 UNK        -0.1800 
      2 C          -0.0570   -9.0132  -45.6429 C.2       0 UNK         0.5000 
      3 O           0.4387   -8.4334  -46.6093 O.2       0 UNK        -0.5000 
      4 N          -0.8376  -10.0947  -45.7597 N.am      1 UNK        -0.5000 
      5 CA         -1.1399  -10.7912  -47.0127 C.3       1 UNK         0.1400 
      6 C6         -2.2640  -11.8363  -46.8163 C.3       23 UNK        -0.0398 
      7 S7         -3.1106  -12.2472  -48.3774 S.3       23 UNK        -0.2404 
      8 C8         -4.7750  -12.6664  -47.7740 C.3       23 UNK        -0.0205 
      9 C9         -4.8458  -14.0832  -47.2219 C.ar      23 UNK        -0.0193 
     10 C10        -5.3063  -15.1225  -48.0337 C.ar      23 UNK        -0.1150 
     11 C11        -5.4370  -16.4173  -47.5259 C.ar      23 UNK        -0.0193 
     12 C12        -5.0983  -16.6720  -46.1942 C.ar      23 UNK        -0.1150 
     13 C13        -4.5946  -15.6512  -45.3817 C.ar      23 UNK        -0.0193 
     14 C14        -4.4816  -14.3560  -45.8993 C.ar      23 UNK        -0.1150 
     15 C15        -4.1881  -15.9369  -43.9424 C.3       23 UNK        -0.0205 
     16 S16        -2.6287  -16.8793  -43.8373 S.3       23 UNK        -0.2404 
     17 C17        -3.2103  -18.6081  -43.8101 C.3       23 UNK        -0.0398 
     18 CA         -2.8879  -19.4010  -45.1016 C.3       11 UNK         0.1400 
     19 N          -1.4539  -19.6680  -45.2745 N.am      11 UNK        -0.5000 
     20 C          -0.9169  -20.1985  -46.3867 C.2       10 UNK         0.5000 
     21 O          -1.5453  -20.3490  -47.4332 O.2       10 UNK        -0.5000 
     22 CA          0.5411  -20.7008  -46.3282 C.3       10 UNK         0.1400 
     23 CB          1.4730  -19.8682  -47.2199 C.3       10 UNK        -0.1800 
     24 N           1.1028  -20.7734  -44.9800 N.am      10 UNK        -0.5000 
     25 C           0.7291  -21.6486  -44.0361 C.2       9 UNK         0.5000 
     26 O          -0.1546  -22.4883  -44.1998 O.2       9 UNK        -0.5000 
     27 CA          1.4306  -21.5373  -42.6693 C.3       9 UNK         0.1400 
     28 CB          2.6261  -22.4983  -42.5978 C.3       9 UNK        -0.1800 
     29 N           1.8924  -20.1791  -42.3804 N.am      9 UNK        -0.5000 
     30 C           1.0968  -19.1204  -42.1885 C.2       8 UNK         0.5000 
     31 O          -0.1321  -19.1911  -42.1781 O.2       8 UNK        -0.5000 
     32 CA          1.7819  -17.7523  -42.0313 C.3       8 UNK         0.1400 
     33 CB          2.3160  -17.5424  -40.6025 C.3       8 UNK        -0.1800 
     34 N           2.8103  -17.4861  -43.0457 N.am      8 UNK        -0.5000 
     35 C           4.0185  -18.0431  -43.2161 C.2       7 UNK         0.5000 
     36 O           4.4652  -18.9437  -42.5049 O.2       7 UNK        -0.5000 
     37 CA          4.8605  -17.5297  -44.4008 C.3       7 UNK         0.1400 
     38 CB          4.7998  -18.5232  -45.5696 C.3       7 UNK        -0.1800 
     39 N           4.4200  -16.2114  -44.8653 N.am      7 UNK        -0.5000 
     40 C           4.8056  -15.0559  -44.3037 C.2       6 UNK         0.5000 
     41 O           5.6513  -14.9769  -43.4119 O.2       6 UNK        -0.5000 
     42 CA          4.0954  -13.7773  -44.7869 C.3       6 UNK         0.1400 
     43 CB          4.6178  -13.3358  -46.1621 C.3       6 UNK        -0.1800 
     44 N           2.6423  -13.9367  -44.8426 N.am      6 UNK        -0.5000 
     45 C           1.8511  -14.1519  -43.7809 C.2       5 UNK         0.5000 
     46 O           2.2574  -14.1907  -42.6201 O.2       5 UNK        -0.5000 
     47 CA          0.3563  -14.3841  -44.0573 C.3       5 UNK         0.1400 
     48 CB         -0.4550  -13.1158  -43.7634 C.3       5 UNK        -0.1800 
     49 N           0.1123  -14.8195  -45.4328 N.am      5 UNK        -0.5000 
     50 C           0.2397  -16.0895  -45.8383 C.2       4 UNK         0.5000 
     51 O           0.6077  -17.0090  -45.1064 O.2       4 UNK        -0.5000 
     52 CA         -0.0488  -16.3669  -47.3225 C.3       4 UNK         0.1400 
     53 CB         -1.4811  -15.9629  -47.7084 C.3       4 UNK        -0.1800 
     54 N           0.9060  -15.7234  -48.2247 N.am      4 UNK        -0.5000 
     55 C           2.2396  -15.8518  -48.2077 C.2       3 UNK         0.5000 
     56 O           2.8634  -16.4665  -47.3435 O.2       3 UNK        -0.5000 
     57 CA          3.0240  -15.1528  -49.3354 C.3       3 UNK         0.1400 
     58 CB          2.8226  -15.8535  -50.6933 C.3       3 UNK        -0.1800 
     59 N           2.7714  -13.7096  -49.4175 N.am      3 UNK        -0.5000 
     60 C           1.6335  -13.0798  -49.7366 C.2       2 UNK         0.5000 
     61 O           0.6043  -13.6451  -50.1144 O.2       2 UNK        -0.5000 
     62 CA          1.6451  -11.5503  -49.5730 C.3       2 UNK         0.1400 
     63 CB          1.7004  -10.8581  -50.9431 C.3       2 UNK        -0.1800 
     64 N           0.4781  -11.0668  -48.8355 N.am      2 UNK        -0.5000 
     65 C           0.1332  -11.4399  -47.5955 C.2       1 UNK         0.5000 
     66 O           0.7639  -12.2535  -46.9129 O.2       1 UNK        -0.5000 
     67 C          -3.7183  -20.7049  -45.1170 C.2       11 UNK         0.5000 
     68 O          -4.8580  -20.6871  -45.5836 O.2       11 UNK        -0.5000 
     69 N          -3.1410  -21.8196  -44.6389 N.am      12 UNK        -0.5000 
     70 CA         -3.7333  -23.1582  -44.6850 C.3       12 UNK         0.1400 
     71 CB         -3.1948  -23.9935  -43.5099 C.3       12 UNK        -0.1800 
     72 C          -3.4610  -23.8025  -46.0584 C.2       12 UNK         0.5000 
     73 O          -2.7865  -24.8284  -46.1529 O.2       12 UNK        -0.5000 
     74 N          -3.9620  -23.1408  -47.1069 N.am      13 UNK        -0.5000 
     75 CA         -3.6900  -23.4346  -48.5108 C.3       13 UNK         0.1400 
     76 CB         -4.1596  -22.2402  -49.3454 C.3       13 UNK        -0.1800 
     77 C          -4.3277  -24.7320  -49.0303 C.2       13 UNK         0.5000 
     78 O          -3.8255  -25.2811  -50.0104 O.2       13 UNK        -0.5000 
     79 N          -5.4127  -25.1885  -48.3850 N.am      14 UNK        -0.5000 
     80 CA         -6.1596  -26.4201  -48.6749 C.3       14 UNK         0.1400 
     81 CB         -5.3154  -27.6543  -48.2953 C.3       14 UNK        -0.1800 
     82 C          -6.6606  -26.4708  -50.1333 C.2       14 UNK         0.5000 
     83 O          -6.2952  -27.3748  -50.8848 O.2       14 UNK        -0.5000 
     84 N          -7.4361  -25.4476  -50.5238 N.am      15 UNK        -0.5000 
     85 CA         -7.9422  -25.2071  -51.8851 C.3       15 UNK         0.1400 
     86 CB         -8.9515  -26.2979  -52.3019 C.3       15 UNK        -0.1800 
     87 C          -6.8077  -25.0054  -52.9164 C.2       15 UNK         0.5000 
     88 O          -6.9245  -25.4285  -54.0673 O.2       15 UNK        -0.5000 
     89 N          -5.7244  -24.3656  -52.4544 N.am      16 UNK        -0.5000 
     90 CA         -4.4727  -24.0630  -53.1545 C.3       16 UNK         0.1400 
     91 CB         -4.7161  -23.1787  -54.3953 C.3       16 UNK        -0.1800 
     92 C          -3.5856  -25.2919  -53.4550 C.2       16 UNK         0.5000 
     93 O          -2.6277  -25.1667  -54.2200 O.2       16 UNK        -0.5000 
     94 N          -3.8916  -26.4509  -52.8536 N.am      17 UNK        -0.5000 
     95 CA         -3.1403  -27.6923  -53.0381 C.3       17 UNK         0.1400 
     96 CB         -4.0665  -28.8924  -52.7906 C.3       17 UNK        -0.1800 
     97 C          -1.8997  -27.7835  -52.1317 C.2       17 UNK         0.5000 
     98 O          -0.8920  -28.3513  -52.5556 O.2       17 UNK        -0.5000 
     99 N          -1.9877  -27.2493  -50.9053 N.am      18 UNK        -0.5000 
    100 CA        -0.9105  -27.2968  -49.9127 C.3       18 UNK         0.1400 
    101 CB        -1.5079  -27.3875  -48.5005 C.3       18 UNK        -0.1800 
    102 C          0.0358  -26.0907  -50.0252 C.2       18 UNK         0.5000 
    103 O          1.2285  -26.2336  -49.7529 O.2       18 UNK        -0.5000 
    104 N         -0.4966  -24.9368  -50.4414 N.am      19 UNK        -0.5000 
    105 CA         0.2566  -23.7208  -50.7221 C.3       19 UNK         0.1400 
    106 CB         0.4595  -22.8991  -49.4368 C.3       19 UNK        -0.1800 
    107 C         -0.5258  -22.9270  -51.7692 C.2       19 UNK         0.5000 
    108 O         -1.7286  -22.7358  -51.6007 O.2       19 UNK        -0.5000 
    109 N          0.1586  -22.4714  -52.8235 N.am      20 UNK        -0.5000 
    110 CA        -0.4480  -21.7757  -53.9631 C.3       20 UNK         0.1400 
    111 CB         0.5275  -21.8375  -55.1491 C.3       20 UNK        -0.1800 
    112 C         -0.8552  -20.3155  -53.6745 C.2       20 UNK         0.5000 
    113 O         -1.5280  -19.7083  -54.5084 O.2       20 UNK        -0.5000 
    114 N         -0.4393  -19.7760  -52.5186 N.am      21 UNK        -0.5000 
    115 CA        -0.6042  -18.3830  -52.0885 C.3       21 UNK         0.1400 
    116 CB        -0.0394  -18.2367  -50.6676 C.3       21 UNK        -0.1800 
    117 C         -2.0483  -17.8457  -52.1394 C.2       21 UNK         0.5000 
    118 O         -2.2464  -16.6778  -52.4757 O.2       21 UNK        -0.5000 
    119 N         -3.0193  -18.7099  -51.8257 N.am      22 UNK        -0.5000 
    120 CA        -4.4595  -18.4060  -51.8699 C.3       22 UNK         0.1400 
    121 C         -5.1273  -18.7379  -53.2382 C.2       22 UNK         0.5000 
    122 N         -4.4015  -19.1870  -54.2559 N.am      22 UNK        -0.7600 
    123 O         -6.3345  -18.5706  -53.3887 O.2       22 UNK        -0.5000 
    124 C124       -5.2164  -19.0666  -50.6895 C.3       23 UNK        -0.0398 
    125 S125       -4.5661  -18.5277  -49.0672 S.3       23 UNK        -0.2404 
    126 C126       -5.9459  -17.5349  -48.4206 C.3       23 UNK        -0.0205 
    127 H127       -0.2943   -9.1075  -43.4801 H         1 UNK         0.0600 
    128 H128        1.2718   -8.5016  -44.0250 H         1 UNK         0.0600 
    129 H129       -0.1610   -7.4736  -44.1371 H         1 UNK         0.0600 
    130 H130       -1.2066  -10.5194  -44.9221 H         1 UNK         0.3000 
    131 H131       -1.4994  -10.0305  -47.7096 H         1 UNK         0.0600 
    132 H132       -1.8949  -12.7533  -46.3559 H         1 UNK         0.0800 
    133 H133       -3.0093  -11.4357  -46.1283 H         1 UNK         0.0800 
    134 H134       -5.4766  -12.5587  -48.6026 H         1 UNK         0.0800 
    135 H135       -5.0991  -11.9492  -47.0185 H         1 UNK         0.0800 
    136 H136       -5.5741  -14.9204  -49.0613 H         1 UNK         0.1150 
    137 H137       -5.2125  -17.6705  -45.7987 H         1 UNK         0.1150 
    138 H138       -4.1172  -13.5571  -45.2698 H         1 UNK         0.1150 
    139 H139       -4.0482  -14.9990  -43.4030 H         1 UNK         0.0800 
    140 H140       -4.9937  -16.4569  -43.4230 H         1 UNK         0.0800 
    141 H141       -4.2846  -18.6050  -43.6184 H         1 UNK         0.0800 
    142 H142       -2.7631  -19.1002  -42.9449 H         1 UNK         0.0800 
    143 H143       -3.2084  -18.8100  -45.9614 H         1 UNK         0.0600 
    144 H144       -0.8663  -19.5208  -44.4643 H         1 UNK         0.3000 
    145 H145        0.5258  -21.7159  -46.7297 H         1 UNK         0.0600 
    146 H146        2.4429  -20.3527  -47.3326 H         1 UNK         0.0600 
    147 H147        1.0586  -19.7414  -48.2203 H         1 UNK         0.0600 
    148 H148        1.6436  -18.8776  -46.8032 H         1 UNK         0.0600 
    149 H149        1.8066  -20.0898  -44.7452 H         1 UNK         0.3000 
    150 H150        0.7093  -21.8234  -41.9010 H         1 UNK         0.0600 
    151 H151        3.3920  -22.2427  -43.3312 H         1 UNK         0.0600 
    152 H152        2.3141  -23.5255  -42.7913 H         1 UNK         0.0600 
    153 H153        3.0879  -22.4799  -41.6105 H         1 UNK         0.0600 
    154 H154        2.8959  -20.0171  -42.3718 H         1 UNK         0.3000 
    155 H155        1.0086  -17.0018  -42.1985 H         1 UNK         0.0600 
    156 H156        3.0802  -18.2729  -40.3368 H         1 UNK         0.0600 
    157 H157        1.5116  -17.6343  -39.8718 H         1 UNK         0.0600 
    158 H158        2.7471  -16.5475  -40.4884 H         1 UNK         0.0600 
    159 H159        2.5226  -16.8225  -43.7519 H         1 UNK         0.3000 
    160 H160        5.8984  -17.4684  -44.0667 H         1 UNK         0.0600 
    161 H161        3.7821  -18.6454  -45.9356 H         1 UNK         0.0600 
    162 H162        5.1620  -19.5071  -45.2688 H         1 UNK         0.0600 
    163 H163        5.4165  -18.1890  -46.4041 H         1 UNK         0.0600 
    164 H164        3.7533  -16.2018  -45.6332 H         1 UNK         0.3000 
    165 H165        4.3135  -12.9817  -44.0714 H         1 UNK         0.0600 
    166 H166        4.1215  -12.4259  -46.5004 H         1 UNK         0.0600 
    167 H167        5.6878  -13.1282  -46.1215 H         1 UNK         0.0600 
    168 H168        4.4642  -14.1054  -46.9171 H         1 UNK         0.0600 
    169 H169        2.2065  -13.8753  -45.7522 H         1 UNK         0.3000 
    170 H170        0.0075  -15.1612  -43.3745 H         1 UNK         0.0600 
    171 H171       -1.5150  -13.2658  -43.9687 H         1 UNK         0.0600 
    172 H172       -0.1014  -12.2748  -44.3564 H         1 UNK         0.0600 
    173 H173       -0.3647  -12.8334  -42.7138 H         1 UNK         0.0600 
    174 H174       -0.0821  -14.0965  -46.1134 H         1 UNK         0.3000 
    175 H175        0.0291  -17.4418  -47.4786 H         1 UNK         0.0600 
    176 H176       -2.2075  -16.4127  -47.0306 H         1 UNK         0.0600 
    177 H177       -1.6249  -14.8832  -47.6768 H         1 UNK         0.0600 
    178 H178       -1.7332  -16.3010  -48.7134 H         1 UNK         0.0600 
    179 H179        0.5177  -15.1237  -48.9484 H         1 UNK         0.3000 
    180 H180        4.0811  -15.2523  -49.0838 H         1 UNK         0.0600 
    181 H181        3.4587  -15.4112  -51.4598 H         1 UNK         0.0600 
    182 H182        1.7923  -15.7951  -51.0429 H         1 UNK         0.0600 
    183 H183        3.0832  -16.9105  -50.6260 H         1 UNK         0.0600 
    184 H184        3.5464  -13.1355  -49.1169 H         1 UNK         0.3000 
    185 H185        2.5314  -11.2604  -49.0047 H         1 UNK         0.0600 
    186 H186        1.7675   -9.7751  -50.8370 H         1 UNK         0.0600 
    187 H187        2.5739  -11.1831  -51.5098 H         1 UNK         0.0600 
    188 H188        0.8177  -11.0836  -51.5431 H         1 UNK         0.0600 
    189 H189       -0.1125  -10.4110  -49.3250 H         1 UNK         0.3000 
    190 H190       -2.1706  -21.7836  -44.3481 H         1 UNK         0.3000 
    191 H191       -4.8160  -23.0824  -44.5644 H         1 UNK         0.0600 
    192 H192       -3.6627  -24.9784  -43.4874 H         1 UNK         0.0600 
    193 H193       -3.4050  -23.5121  -42.5548 H         1 UNK         0.0600 
    194 H194       -2.1176  -24.1459  -43.5782 H         1 UNK         0.0600 
    195 H195       -4.4732  -22.2864  -46.9159 H         1 UNK         0.3000 
    196 H196       -2.6107  -23.5372  -48.6340 H         1 UNK         0.0600 
    197 H197       -5.2109  -22.0119  -49.1662 H         1 UNK         0.0600 
    198 H198       -3.5737  -21.3527  -49.1066 H         1 UNK         0.0600 
    199 H199       -4.0400  -22.4235  -50.4114 H         1 UNK         0.0600 
    200 H200       -5.7460  -24.6465  -47.6007 H         1 UNK         0.3000 
    201 H201       -7.0443  -26.4134  -48.0366 H         1 UNK         0.0600 
    202 H202       -4.4428  -27.7608  -48.9396 H         1 UNK         0.0600 
    203 H203       -5.9008  -28.5697  -48.3877 H         1 UNK         0.0600 
    204 H204       -4.9650  -27.5927  -47.2650 H         1 UNK         0.0600 
    205 H205       -7.6702  -24.7420  -49.8390 H         1 UNK         0.3000 
    206 H206       -8.4834  -24.2607  -51.8468 H         1 UNK         0.0600 
    207 H207       -9.7382  -26.4129  -51.5564 H         1 UNK         0.0600 
    208 H208       -9.4352  -26.0419  -53.2452 H         1 UNK         0.0600 
    209 H209       -8.4714  -27.2677  -52.4358 H         1 UNK         0.0600 
    210 H210       -5.7306  -24.1138  -51.4772 H         1 UNK         0.3000 
    211 H211       -3.9053  -23.4615  -52.4517 H         1 UNK         0.0600 
    212 H212       -3.7750  -22.8066  -54.8011 H         1 UNK         0.0600 
    213 H213       -5.3232  -22.3081  -54.1464 H         1 UNK         0.0600 
    214 H214       -5.2194  -23.7257  -55.1925 H         1 UNK         0.0600 
    215 H215       -4.6744  -26.4821  -52.2117 H         1 UNK         0.3000 
    216 H216       -2.8015  -27.7473  -54.0749 H         1 UNK         0.0600 
    217 H217       -4.3754  -28.9550  -51.7468 H         1 UNK         0.0600 
    218 H218       -3.5632  -29.8281  -53.0368 H         1 UNK         0.0600 
    219 H219       -4.9655  -28.8335  -53.4046 H         1 UNK         0.0600 
    220 H220       -2.8243  -26.7322  -50.6457 H         1 UNK         0.3000 
    221 H221       -0.3132  -28.1975  -50.0700 H         1 UNK         0.0600 
    222 H222       -2.1270  -28.2775  -48.3908 H         1 UNK         0.0600 
    223 H223       -2.1192  -26.5186  -48.2603 H         1 UNK         0.0600 
    224 H224       -0.7207  -27.4469  -47.7479 H         1 UNK         0.0600 
    225 H225       -1.4833  -24.8945  -50.6665 H         1 UNK         0.3000 
    226 H226        1.2319  -23.9869  -51.1355 H         1 UNK         0.0600 
    227 H227        1.0479  -22.0032  -49.6369 H         1 UNK         0.0600 
    228 H228       -0.4898  -22.5759  -49.0087 H         1 UNK         0.0600 
    229 H229        0.9906  -23.4734  -48.6777 H         1 UNK         0.0600 
    230 H230        1.1494  -22.6571  -52.8887 H         1 UNK         0.3000 
    231 H231       -1.3568  -22.3113  -54.2462 H         1 UNK         0.0600 
    232 H232        1.4641  -21.3244  -54.9270 H         1 UNK         0.0600 
    233 H233        0.0986  -21.3685  -56.0358 H         1 UNK         0.0600 
    234 H234        0.7623  -22.8689  -55.4132 H         1 UNK         0.0600 
    235 H235        0.0931  -20.3698  -51.9017 H         1 UNK         0.3000 
    236 H236       -0.0041  -17.7664  -52.7604 H         1 UNK         0.0600 
    237 H237        1.0125  -18.5184  -50.6233 H         1 UNK         0.0600 
    238 H238       -0.1131  -17.2027  -50.3328 H         1 UNK         0.0600 
    239 H239       -0.5860  -18.8520  -49.9511 H         1 UNK         0.0600 
    240 H240       -2.7651  -19.6534  -51.5718 H         1 UNK         0.3000 
    241 H241       -4.5877  -17.3283  -51.7530 H         1 UNK         0.0600 
    242 H242       -4.8576  -19.3836  -55.1320 H         1 UNK         0.3800 
    243 H243       -3.3949  -19.2991  -54.1843 H         1 UNK         0.3800 
    244 H244       -5.1386  -20.1500  -50.7602 H         1 UNK         0.0800 
    245 H245       -6.2836  -18.8459  -50.7397 H         1 UNK         0.0800 
    246 H246       -6.5229  -17.1097  -49.2430 H         1 UNK         0.0800 
    247 H247       -6.6270  -18.1818  -47.8658 H         1 UNK         0.0800 
@<TRIPOS>BOND
     1    1    2 1    
     2    1  127 1    
     3    1  128 1    
     4    1  129 1    
     5    2    3 2    
     6    2    4 am   BACKBONE|DICT|INTERRES
     7    4    5 1    
     8    4  130 1    
     9    5    6 1    
    10    5   65 1    
    11    5  131 1    
    12    6    7 1    
    13    6  132 1    
    14    6  133 1    
    15    7    8 1    
    16    8    9 1    
    17    8  134 1    
    18    8  135 1    
    19    9   10 ar   
    20    9   14 ar   
    21   10   11 ar   
    22   10  136 1    
    23   11   12 ar   
    24   11  126 1    
    25   12   13 ar   
    26   12  137 1    
    27   13   14 ar   
    28   13   15 1    
    29   14  138 1    
    30   15   16 1    
    31   15  139 1    
    32   15  140 1    
    33   16   17 1    
    34   17   18 1    
    35   17  141 1    
    36   17  142 1    
    37   18   19 1    
    38   18   67 1    
    39   18  143 1    
    40   19   20 am   BACKBONE|DICT|INTERRES
    41   19  144 1    
    42   20   21 2    
    43   20   22 1    
    44   22   23 1    
    45   22   24 1    
    46   22  145 1    
    47   23  146 1    
    48   23  147 1    
    49   23  148 1    
    50   24   25 am   BACKBONE|DICT|INTERRES
    51   24  149 1    
    52   25   26 2    
    53   25   27 1    
    54   27   28 1    
    55   27   29 1    
    56   27  150 1    
    57   28  151 1    
    58   28  152 1    
    59   28  153 1    
    60   29   30 am   BACKBONE|DICT|INTERRES
    61   29  154 1    
    62   30   31 2    
    63   30   32 1    
    64   32   33 1    
    65   32   34 1    
    66   32  155 1    
    67   33  156 1    
    68   33  157 1    
    69   33  158 1    
    70   34   35 am   BACKBONE|DICT|INTERRES
    71   34  159 1    
    72   35   36 2    
    73   35   37 1    
    74   37   38 1    
    75   37   39 1    
    76   37  160 1    
    77   38  161 1    
    78   38  162 1    
    79   38  163 1    
    80   39   40 am   BACKBONE|DICT|INTERRES
    81   39  164 1    
    82   40   41 2    
    83   40   42 1    
    84   42   43 1    
    85   42   44 1    
    86   42  165 1    
    87   43  166 1    
    88   43  167 1    
    89   43  168 1    
    90   44   45 am   BACKBONE|DICT|INTERRES
    91   44  169 1    
    92   45   46 2    
    93   45   47 1    
    94   47   48 1    
    95   47   49 1    
    96   47  170 1    
    97   48  171 1    
    98   48  172 1    
    99   48  173 1    
   100   49   50 am   BACKBONE|DICT|INTERRES
   101   49  174 1    
   102   50   51 2    
   103   50   52 1    
   104   52   53 1    
   105   52   54 1    
   106   52  175 1    
   107   53  176 1    
   108   53  177 1    
   109   53  178 1    
   110   54   55 am   BACKBONE|DICT|INTERRES
   111   54  179 1    
   112   55   56 2    
   113   55   57 1    
   114   57   58 1    
   115   57   59 1    
   116   57  180 1    
   117   58  181 1    
   118   58  182 1    
   119   58  183 1    
   120   59   60 am   BACKBONE|DICT|INTERRES
   121   59  184 1    
   122   60   61 2    
   123   60   62 1    
   124   62   63 1    
   125   62   64 1    
   126   62  185 1    
   127   63  186 1    
   128   63  187 1    
   129   63  188 1    
   130   64   65 am   BACKBONE|DICT|INTERRES
   131   64  189 1    
   132   65   66 2    
   133   67   68 2    
   134   67   69 am   BACKBONE|DICT|INTERRES
   135   69   70 1    
   136   69  190 1    
   137   70   71 1    
   138   70   72 1    
   139   70  191 1    
   140   71  192 1    
   141   71  193 1    
   142   71  194 1    
   143   72   73 2    
   144   72   74 am   BACKBONE|DICT|INTERRES
   145   74   75 1    
   146   74  195 1    
   147   75   76 1    
   148   75   77 1    
   149   75  196 1    
   150   76  197 1    
   151   76  198 1    
   152   76  199 1    
   153   77   78 2    
   154   77   79 am   BACKBONE|DICT|INTERRES
   155   79   80 1    
   156   79  200 1    
   157   80   81 1    
   158   80   82 1    
   159   80  201 1    
   160   81  202 1    
   161   81  203 1    
   162   81  204 1    
   163   82   83 2    
   164   82   84 am   BACKBONE|DICT|INTERRES
   165   84   85 1    
   166   84  205 1    
   167   85   86 1    
   168   85   87 1    
   169   85  206 1    
   170   86  207 1    
   171   86  208 1    
   172   86  209 1    
   173   87   88 2    
   174   87   89 am   BACKBONE|DICT|INTERRES
   175   89   90 1    
   176   89  210 1    
   177   90   91 1    
   178   90   92 1    
   179   90  211 1    
   180   91  212 1    
   181   91  213 1    
   182   91  214 1    
   183   92   93 2    
   184   92   94 am   BACKBONE|DICT|INTERRES
   185   94   95 1    
   186   94  215 1    
   187   95   96 1    
   188   95   97 1    
   189   95  216 1    
   190   96  217 1    
   191   96  218 1    
   192   96  219 1    
   193   97   98 2    
   194   97   99 am   BACKBONE|DICT|INTERRES
   195   99  100 1    
   196   99  220 1    
   197  100  101 1    
   198  100  102 1    
   199  100  221 1    
   200  101  222 1    
   201  101  223 1    
   202  101  224 1    
   203  102  103 2    
   204  102  104 am   BACKBONE|DICT|INTERRES
   205  104  105 1    
   206  104  225 1    
   207  105  106 1    
   208  105  107 1    
   209  105  226 1    
   210  106  227 1    
   211  106  228 1    
   212  106  229 1    
   213  107  108 2    
   214  107  109 am   BACKBONE|DICT|INTERRES
   215  109  110 1    
   216  109  230 1    
   217  110  111 1    
   218  110  112 1    
   219  110  231 1    
   220  111  232 1    
   221  111  233 1    
   222  111  234 1    
   223  112  113 2    
   224  112  114 am   BACKBONE|DICT|INTERRES
   225  114  115 1    
   226  114  235 1    
   227  115  116 1    
   228  115  117 1    
   229  115  236 1    
   230  116  237 1    
   231  116  238 1    
   232  116  239 1    
   233  117  118 2    
   234  117  119 am   BACKBONE|DICT|INTERRES
   235  119  120 1    
   236  119  240 1    
   237  120  121 1    
   238  120  124 1    
   239  120  241 1    
   240  121  122 am   BACKBONE|DICT|INTERRES
   241  121  123 2    
   242  122  242 1    
   243  122  243 1    
   244  124  125 1    
   245  124  244 1    
   246  124  245 1    
   247  125  126 1    
   248  126  246 1    
   249  126  247 1    
@<TRIPOS>SUBSTRUCTURE
     1 UNK         1 GROUP             0       ****    0 ROOT    
