@<TRIPOS>MOLECULE
3R540
247   249    1
SMALL
USER_CHARGES


@<TRIPOS>ATOM
      1 CA          5.7981  -10.0624  -52.0104 C.3       0 UNK        -0.1800 
      2 C           5.2277  -10.7259  -50.7646 C.2       0 UNK         0.5000 
      3 O           5.6154  -10.3726  -49.6505 O.2       0 UNK        -0.5000 
      4 N           4.3176  -11.6897  -50.9490 N.am      1 UNK        -0.5000 
      5 CA          3.6218  -12.4087  -49.8781 C.3       1 UNK         0.1400 
      6 C6          2.8483  -13.6320  -50.4197 C.3       23 UNK        -0.0398 
      7 S7          3.9562  -14.9563  -51.0042 S.3       23 UNK        -0.2404 
      8 C8          2.8277  -15.9198  -52.0594 C.3       23 UNK        -0.0205 
      9 C9          1.8279  -16.7371  -51.2521 C.ar      23 UNK        -0.0193 
     10 C10         0.6508  -16.1467  -50.7867 C.ar      23 UNK        -0.1150 
     11 C11        -0.3082  -16.8986  -50.1016 C.ar      23 UNK        -0.0193 
     12 C12        -0.0686  -18.2572  -49.8718 C.ar      23 UNK        -0.1150 
     13 C13         1.1039  -18.8650  -50.3317 C.ar      23 UNK        -0.0193 
     14 C14         2.0521  -18.0959  -51.0136 C.ar      23 UNK        -0.1150 
     15 C15         1.3300  -20.3597  -50.1446 C.3       23 UNK        -0.0205 
     16 S16         2.1439  -20.7489  -48.5630 S.3       23 UNK        -0.2404 
     17 C17         0.7082  -20.9449  -47.4561 C.3       23 UNK        -0.0398 
     18 CA          0.3302  -22.4267  -47.2469 C.3       11 UNK         0.1400 
     19 N           1.3704  -23.1858  -46.5511 N.am      11 UNK        -0.5000 
     20 C           1.5008  -24.5165  -46.6366 C.2       10 UNK         0.5000 
     21 O           0.7811  -25.2238  -47.3409 O.2       10 UNK        -0.5000 
     22 CA          2.5868  -25.1771  -45.7652 C.3       10 UNK         0.1400 
     23 CB          3.9060  -25.2856  -46.5439 C.3       10 UNK        -0.1800 
     24 N           2.8316  -24.4799  -44.5007 N.am      10 UNK        -0.5000 
     25 C           1.9240  -24.3000  -43.5317 C.2       9 UNK         0.5000 
     26 O           0.7689  -24.7220  -43.6017 O.2       9 UNK        -0.5000 
     27 CA          2.3504  -23.4769  -42.2963 C.3       9 UNK         0.1400 
     28 CB          3.8667  -23.1861  -42.2276 C.3       9 UNK        -0.1800 
     29 N           1.5949  -22.2231  -42.1741 N.am      9 UNK        -0.5000 
     30 C           1.4725  -21.2646  -43.1035 C.2       8 UNK         0.5000 
     31 O           1.9532  -21.3424  -44.2375 O.2       8 UNK        -0.5000 
     32 CA          0.6891  -20.0089  -42.6887 C.3       8 UNK         0.1400 
     33 CB          1.5753  -19.0747  -41.8496 C.3       8 UNK        -0.1800 
     34 N           0.2674  -19.2879  -43.8835 N.am      8 UNK        -0.5000 
     35 C          -0.9685  -18.8888  -44.1944 C.2       7 UNK         0.5000 
     36 O          -1.9487  -19.0950  -43.4779 O.2       7 UNK        -0.5000 
     37 CA         -1.1223  -18.1211  -45.5305 C.3       7 UNK         0.1400 
     38 CB         -2.5648  -17.6473  -45.7819 C.3       7 UNK        -0.1800 
     39 N          -0.2270  -16.9657  -45.6305 N.am      7 UNK        -0.5000 
     40 C           1.1038  -16.9936  -45.7926 C.2       6 UNK         0.5000 
     41 O           1.7513  -18.0295  -45.9375 O.2       6 UNK        -0.5000 
     42 CA          1.8447  -15.6483  -45.7382 C.3       6 UNK         0.1400 
     43 CB          2.0125  -15.0675  -47.1471 C.3       6 UNK        -0.1800 
     44 N           1.1582  -14.6821  -44.8780 N.am      6 UNK        -0.5000 
     45 C           1.2889  -14.6390  -43.5434 C.2       5 UNK         0.5000 
     46 O           2.0786  -15.3449  -42.9157 O.2       5 UNK        -0.5000 
     47 CA          0.3845  -13.6601  -42.7689 C.3       5 UNK         0.1400 
     48 CB          1.1439  -12.3756  -42.4065 C.3       5 UNK        -0.1800 
     49 N          -0.8327  -13.3150  -43.5055 N.am      5 UNK        -0.5000 
     50 C          -1.9254  -14.0918  -43.5403 C.2       4 UNK         0.5000 
     51 O          -2.0326  -15.1407  -42.9054 O.2       4 UNK        -0.5000 
     52 CA         -3.0885  -13.6478  -44.4516 C.3       4 UNK         0.1400 
     53 CB         -4.1315  -12.8608  -43.6441 C.3       4 UNK        -0.1800 
     54 N          -2.6826  -12.8486  -45.6102 N.am      4 UNK        -0.5000 
     55 C          -1.8343  -13.2446  -46.5683 C.2       3 UNK         0.5000 
     56 O          -1.2748  -14.3404  -46.5593 O.2       3 UNK        -0.5000 
     57 CA         -1.5151  -12.2428  -47.6992 C.3       3 UNK         0.1400 
     58 CB         -2.4902  -11.0471  -47.7637 C.3       3 UNK        -0.1800 
     59 N          -0.1337  -11.7479  -47.6506 N.am      3 UNK        -0.5000 
     60 C           0.5184  -11.2301  -46.5985 C.2       2 UNK         0.5000 
     61 O           0.0381  -11.1717  -45.4647 O.2       2 UNK        -0.5000 
     62 CA          1.9425  -10.6836  -46.8573 C.3       2 UNK         0.1400 
     63 CB          2.7545  -10.5134  -45.5608 C.3       2 UNK        -0.1800 
     64 N           2.7300  -11.5029  -47.7822 N.am      2 UNK        -0.5000 
     65 C           2.6624  -11.4703  -49.1179 C.2       1 UNK         0.5000 
     66 O           1.8588  -10.7756  -49.7434 O.2       1 UNK        -0.5000 
     67 C          -1.0284  -22.5581  -46.5323 C.2       11 UNK         0.5000 
     68 O          -2.0540  -22.5642  -47.2080 O.2       11 UNK        -0.5000 
     69 N          -1.0330  -22.7133  -45.1995 N.am      12 UNK        -0.5000 
     70 CA         -2.2474  -23.0110  -44.4332 C.3       12 UNK         0.1400 
     71 CB         -2.0183  -22.7854  -42.9328 C.3       12 UNK        -0.1800 
     72 C          -2.7523  -24.4382  -44.7038 C.2       12 UNK         0.5000 
     73 O          -3.9581  -24.6381  -44.8577 O.2       12 UNK        -0.5000 
     74 N          -1.8126  -25.3884  -44.8182 N.am      13 UNK        -0.5000 
     75 CA         -2.0631  -26.7783  -45.2050 C.3       13 UNK         0.1400 
     76 CB         -0.7665  -27.5889  -45.0649 C.3       13 UNK        -0.1800 
     77 C          -2.6493  -26.9211  -46.6244 C.2       13 UNK         0.5000 
     78 O          -3.4132  -27.8553  -46.8695 O.2       13 UNK        -0.5000 
     79 N          -2.3478  -25.9652  -47.5157 N.am      14 UNK        -0.5000 
     80 CA         -2.9214  -25.8233  -48.8570 C.3       14 UNK         0.1400 
     81 CB         -1.9573  -24.9995  -49.7316 C.3       14 UNK        -0.1800 
     82 C          -4.3498  -25.2300  -48.8269 C.2       14 UNK         0.5000 
     83 O          -4.6494  -24.2991  -49.5786 O.2       14 UNK        -0.5000 
     84 N          -5.2053  -25.7884  -47.9586 N.am      15 UNK        -0.5000 
     85 CA         -6.6192  -25.4667  -47.7464 C.3       15 UNK         0.1400 
     86 CB         -7.4510  -25.9234  -48.9638 C.3       15 UNK        -0.1800 
     87 C          -6.8526  -23.9858  -47.3855 C.2       15 UNK         0.5000 
     88 O          -7.6769  -23.3247  -48.0159 O.2       15 UNK        -0.5000 
     89 N          -6.0898  -23.4728  -46.4074 N.am      16 UNK        -0.5000 
     90 CA         -6.0642  -22.0653  -45.9800 C.3       16 UNK         0.1400 
     91 CB         -7.3866  -21.6735  -45.2883 C.3       16 UNK        -0.1800 
     92 C          -5.6757  -21.1158  -47.1354 C.2       16 UNK         0.5000 
     93 O          -6.2746  -20.0533  -47.3061 O.2       16 UNK        -0.5000 
     94 N          -4.6938  -21.5657  -47.9268 N.am      17 UNK        -0.5000 
     95 CA         -4.1482  -20.9808  -49.1507 C.3       17 UNK         0.1400 
     96 CB         -3.5503  -19.5853  -48.8942 C.3       17 UNK        -0.1800 
     97 C          -5.0982  -20.9958  -50.3630 C.2       17 UNK         0.5000 
     98 O          -4.7276  -20.4459  -51.4003 O.2       17 UNK        -0.5000 
     99 N          -6.2685  -21.6440  -50.2623 N.am      18 UNK        -0.5000 
    100 CA        -7.2304  -21.7581  -51.3604 C.3       18 UNK         0.1400 
    101 CB        -8.5938  -22.2205  -50.8284 C.3       18 UNK        -0.1800 
    102 C         -6.7478  -22.6922  -52.4834 C.2       18 UNK         0.5000 
    103 O         -7.0228  -22.4120  -53.6501 O.2       18 UNK        -0.5000 
    104 N         -6.0105  -23.7576  -52.1323 N.am      19 UNK        -0.5000 
    105 CA        -5.4213  -24.6867  -53.1029 C.3       19 UNK         0.1400 
    106 CB        -5.1068  -26.0276  -52.4231 C.3       19 UNK        -0.1800 
    107 C         -4.1631  -24.0982  -53.7681 C.2       19 UNK         0.5000 
    108 O         -3.8734  -24.4228  -54.9197 O.2       19 UNK        -0.5000 
    109 N         -3.4618  -23.2161  -53.0422 N.am      20 UNK        -0.5000 
    110 CA        -2.3404  -22.4203  -53.5460 C.3       20 UNK         0.1400 
    111 CB        -1.4796  -21.9753  -52.3509 C.3       20 UNK        -0.1800 
    112 C         -2.7995  -21.1899  -54.3570 C.2       20 UNK         0.5000 
    113 O         -1.9706  -20.5582  -55.0139 O.2       20 UNK        -0.5000 
    114 N         -4.0901  -20.8354  -54.2430 N.am      21 UNK        -0.5000 
    115 CA        -4.7639  -19.6446  -54.7788 C.3       21 UNK         0.1400 
    116 CB        -4.8581  -19.7313  -56.3153 C.3       21 UNK        -0.1800 
    117 C         -4.1419  -18.3126  -54.2974 C.2       21 UNK         0.5000 
    118 O         -4.2945  -17.2869  -54.9629 O.2       21 UNK        -0.5000 
    119 N         -3.4263  -18.3648  -53.1650 N.am      22 UNK        -0.5000 
    120 CA        -2.5167  -17.3282  -52.6535 C.3       22 UNK         0.1400 
    121 C         -1.4069  -16.8978  -53.6709 C.2       22 UNK         0.5000 
    122 N         -0.9308  -17.7958  -54.5279 N.am      22 UNK        -0.7600 
    123 O         -0.9710  -15.7507  -53.7038 O.2       22 UNK        -0.5000 
    124 C124       -3.2950  -16.1604  -51.9829 C.3       23 UNK        -0.0398 
    125 S125       -2.3656  -15.0996  -50.8100 S.3       23 UNK        -0.2404 
    126 C126       -1.6060  -16.2577  -49.6148 C.3       23 UNK        -0.0205 
    127 H127        5.5879   -8.9929  -51.9954 H         1 UNK         0.0600 
    128 H128        5.3724  -10.4797  -52.9234 H         1 UNK         0.0600 
    129 H129        6.8790  -10.1982  -52.0466 H         1 UNK         0.0600 
    130 H130        4.0357  -11.9289  -51.8885 H         1 UNK         0.3000 
    131 H131        4.3768  -12.7668  -49.1743 H         1 UNK         0.0600 
    132 H132        2.1825  -13.3297  -51.2303 H         1 UNK         0.0800 
    133 H133        2.2105  -14.0591  -49.6477 H         1 UNK         0.0800 
    134 H134        3.4239  -16.5820  -52.6890 H         1 UNK         0.0800 
    135 H135        2.2986  -15.2546  -52.7438 H         1 UNK         0.0800 
    136 H136        0.4655  -15.1017  -50.9864 H         1 UNK         0.1150 
    137 H137       -0.8055  -18.8471  -49.3514 H         1 UNK         0.1150 
    138 H138        2.9560  -18.5618  -51.3799 H         1 UNK         0.1150 
    139 H139        0.3855  -20.8998  -50.2226 H         1 UNK         0.0800 
    140 H140        1.9547  -20.7384  -50.9549 H         1 UNK         0.0800 
    141 H141        0.9468  -20.4743  -46.5036 H         1 UNK         0.0800 
    142 H142       -0.1338  -20.3919  -47.8694 H         1 UNK         0.0800 
    143 H143        0.1966  -22.8653  -48.2387 H         1 UNK         0.0600 
    144 H144        1.9677  -22.6621  -45.9206 H         1 UNK         0.3000 
    145 H145        2.2473  -26.1867  -45.5262 H         1 UNK         0.0600 
    146 H146        4.6595  -25.8270  -45.9716 H         1 UNK         0.0600 
    147 H147        3.7626  -25.8244  -47.4815 H         1 UNK         0.0600 
    148 H148        4.3104  -24.3025  -46.7888 H         1 UNK         0.0600 
    149 H149        3.7484  -24.0754  -44.3783 H         1 UNK         0.3000 
    150 H150        2.0912  -24.0837  -41.4275 H         1 UNK         0.0600 
    151 H151        4.4488  -24.1081  -42.2571 H         1 UNK         0.0600 
    152 H152        4.1209  -22.6805  -41.2960 H         1 UNK         0.0600 
    153 H153        4.2032  -22.5488  -43.0463 H         1 UNK         0.0600 
    154 H154        1.1421  -22.0839  -41.2817 H         1 UNK         0.3000 
    155 H155       -0.1726  -20.3097  -42.0919 H         1 UNK         0.0600 
    156 H156        1.0326  -18.1745  -41.5597 H         1 UNK         0.0600 
    157 H157        2.4643  -18.7624  -42.3998 H         1 UNK         0.0600 
    158 H158        1.9087  -19.5629  -40.9331 H         1 UNK         0.0600 
    159 H159        1.0078  -19.1005  -44.5561 H         1 UNK         0.3000 
    160 H160       -0.8668  -18.8140  -46.3309 H         1 UNK         0.0600 
    161 H161       -2.8996  -16.9583  -45.0062 H         1 UNK         0.0600 
    162 H162       -3.2582  -18.4894  -45.7961 H         1 UNK         0.0600 
    163 H163       -2.6535  -17.1385  -46.7418 H         1 UNK         0.0600 
    164 H164       -0.6693  -16.0558  -45.5760 H         1 UNK         0.3000 
    165 H165        2.8431  -15.8386  -45.3383 H         1 UNK         0.0600 
    166 H166        1.0558  -14.8151  -47.6036 H         1 UNK         0.0600 
    167 H167        2.6269  -14.1700  -47.1228 H         1 UNK         0.0600 
    168 H168        2.5082  -15.7822  -47.8061 H         1 UNK         0.0600 
    169 H169        0.4409  -14.1192  -45.3172 H         1 UNK         0.3000 
    170 H170        0.1053  -14.1496  -41.8333 H         1 UNK         0.0600 
    171 H171        2.0477  -12.6019  -41.8395 H         1 UNK         0.0600 
    172 H172        1.4436  -11.8201  -43.2929 H         1 UNK         0.0600 
    173 H173        0.5307  -11.7168  -41.7917 H         1 UNK         0.0600 
    174 H174       -0.7955  -12.4800  -44.0819 H         1 UNK         0.3000 
    175 H175       -3.5652  -14.5530  -44.8323 H         1 UNK         0.0600 
    176 H176       -3.7219  -11.9237  -43.2648 H         1 UNK         0.0600 
    177 H177       -5.0060  -12.6253  -44.2510 H         1 UNK         0.0600 
    178 H178       -4.4794  -13.4383  -42.7864 H         1 UNK         0.0600 
    179 H179       -3.0667  -11.9171  -45.6700 H         1 UNK         0.3000 
    180 H180       -1.6129  -12.8010  -48.6314 H         1 UNK         0.0600 
    181 H181       -3.5253  -11.3832  -47.8388 H         1 UNK         0.0600 
    182 H182       -2.4075  -10.4002  -46.8895 H         1 UNK         0.0600 
    183 H183       -2.2912  -10.4340  -48.6429 H         1 UNK         0.0600 
    184 H184        0.3526  -11.7253  -48.5380 H         1 UNK         0.3000 
    185 H185        1.8149   -9.6914  -47.2950 H         1 UNK         0.0600 
    186 H186        2.2340   -9.8764  -44.8444 H         1 UNK         0.0600 
    187 H187        2.9438  -11.4731  -45.0789 H         1 UNK         0.0600 
    188 H188        3.7187  -10.0456  -45.7608 H         1 UNK         0.0600 
    189 H189        3.4099  -12.1107  -47.3493 H         1 UNK         0.3000 
    190 H190       -0.1510  -22.7683  -44.7102 H         1 UNK         0.3000 
    191 H191       -3.0261  -22.3170  -44.7530 H         1 UNK         0.0600 
    192 H192       -2.9050  -23.0589  -42.3594 H         1 UNK         0.0600 
    193 H193       -1.8197  -21.7368  -42.7241 H         1 UNK         0.0600 
    194 H194       -1.1876  -23.3749  -42.5471 H         1 UNK         0.0600 
    195 H195       -0.8507  -25.1422  -44.6037 H         1 UNK         0.3000 
    196 H196       -2.7959  -27.1858  -44.5057 H         1 UNK         0.0600 
    197 H197       -0.9444  -28.6455  -45.2686 H         1 UNK         0.0600 
    198 H198       -0.3604  -27.5152  -44.0558 H         1 UNK         0.0600 
    199 H199       -0.0008  -27.2471  -45.7604 H         1 UNK         0.0600 
    200 H200       -1.7067  -25.2388  -47.2291 H         1 UNK         0.3000 
    201 H201       -3.0010  -26.8162  -49.3038 H         1 UNK         0.0600 
    202 H202       -0.9539  -25.4257  -49.7233 H         1 UNK         0.0600 
    203 H203       -1.8839  -23.9667  -49.3936 H         1 UNK         0.0600 
    204 H204       -2.2891  -24.9776  -50.7697 H         1 UNK         0.0600 
    205 H205       -4.8406  -26.5490  -47.3948 H         1 UNK         0.3000 
    206 H206       -6.9454  -26.0484  -46.8833 H         1 UNK         0.0600 
    207 H207       -7.2931  -26.9810  -49.1747 H         1 UNK         0.0600 
    208 H208       -8.5176  -25.7846  -48.7836 H         1 UNK         0.0600 
    209 H209       -7.1961  -25.3622  -49.8629 H         1 UNK         0.0600 
    210 H210       -5.4138  -24.0776  -45.9458 H         1 UNK         0.3000 
    211 H211       -5.2731  -21.9817  -45.2354 H         1 UNK         0.0600 
    212 H212       -8.2264  -21.6729  -45.9837 H         1 UNK         0.0600 
    213 H213       -7.3194  -20.6736  -44.8583 H         1 UNK         0.0600 
    214 H214       -7.6241  -22.3601  -44.4758 H         1 UNK         0.0600 
    215 H215       -4.2607  -22.4455  -47.6762 H         1 UNK         0.3000 
    216 H216       -3.3227  -21.6346  -49.4343 H         1 UNK         0.0600 
    217 H217       -4.3120  -18.8567  -48.6171 H         1 UNK         0.0600 
    218 H218       -3.0559  -19.2102  -49.7899 H         1 UNK         0.0600 
    219 H219       -2.8072  -19.6193  -48.0981 H         1 UNK         0.0600 
    220 H220       -6.5091  -22.1054  -49.3927 H         1 UNK         0.3000 
    221 H221       -7.3627  -20.7630  -51.7907 H         1 UNK         0.0600 
    222 H222       -8.5601  -23.2507  -50.4735 H         1 UNK         0.0600 
    223 H223       -8.9342  -21.5907  -50.0063 H         1 UNK         0.0600 
    224 H224       -9.3512  -22.1729  -51.6116 H         1 UNK         0.0600 
    225 H225       -5.7726  -23.9021  -51.1546 H         1 UNK         0.3000 
    226 H226       -6.1550  -24.8784  -53.8890 H         1 UNK         0.0600 
    227 H227       -5.9802  -26.4270  -51.9076 H         1 UNK         0.0600 
    228 H228       -4.7961  -26.7693  -53.1597 H         1 UNK         0.0600 
    229 H229       -4.2993  -25.9360  -51.6990 H         1 UNK         0.0600 
    230 H230       -3.7746  -23.0193  -52.1029 H         1 UNK         0.3000 
    231 H231       -1.7260  -23.0405  -54.2018 H         1 UNK         0.0600 
    232 H232       -1.1071  -22.8329  -51.7906 H         1 UNK         0.0600 
    233 H233       -0.6106  -21.4069  -52.6853 H         1 UNK         0.0600 
    234 H234       -2.0384  -21.3407  -51.6626 H         1 UNK         0.0600 
    235 H235       -4.6637  -21.3997  -53.6322 H         1 UNK         0.3000 
    236 H236       -5.7790  -19.6662  -54.3797 H         1 UNK         0.0600 
    237 H237       -5.3068  -20.6740  -56.6288 H         1 UNK         0.0600 
    238 H238       -5.4783  -18.9294  -56.7173 H         1 UNK         0.0600 
    239 H239       -3.8770  -19.6535  -56.7848 H         1 UNK         0.0600 
    240 H240       -3.4515  -19.2343  -52.6464 H         1 UNK         0.3000 
    241 H241       -1.9777  -17.8519  -51.8702 H         1 UNK         0.0600 
    242 H242       -1.3026  -18.7393  -54.5706 H         1 UNK         0.3800 
    243 H243       -0.2195  -17.5150  -55.1831 H         1 UNK         0.3800 
    244 H244       -4.1423  -16.5645  -51.4271 H         1 UNK         0.0800 
    245 H245       -3.7286  -15.5183  -52.7508 H         1 UNK         0.0800 
    246 H246       -2.3417  -17.0106  -49.3354 H         1 UNK         0.0800 
    247 H247       -1.3761  -15.7073  -48.7045 H         1 UNK         0.0800 
@<TRIPOS>BOND
     1    1    2 1    
     2    1  127 1    
     3    1  128 1    
     4    1  129 1    
     5    2    3 2    
     6    2    4 am   BACKBONE|DICT|INTERRES
     7    4    5 1    
     8    4  130 1    
     9    5    6 1    
    10    5   65 1    
    11    5  131 1    
    12    6    7 1    
    13    6  132 1    
    14    6  133 1    
    15    7    8 1    
    16    8    9 1    
    17    8  134 1    
    18    8  135 1    
    19    9   10 ar   
    20    9   14 ar   
    21   10   11 ar   
    22   10  136 1    
    23   11   12 ar   
    24   11  126 1    
    25   12   13 ar   
    26   12  137 1    
    27   13   14 ar   
    28   13   15 1    
    29   14  138 1    
    30   15   16 1    
    31   15  139 1    
    32   15  140 1    
    33   16   17 1    
    34   17   18 1    
    35   17  141 1    
    36   17  142 1    
    37   18   19 1    
    38   18   67 1    
    39   18  143 1    
    40   19   20 am   BACKBONE|DICT|INTERRES
    41   19  144 1    
    42   20   21 2    
    43   20   22 1    
    44   22   23 1    
    45   22   24 1    
    46   22  145 1    
    47   23  146 1    
    48   23  147 1    
    49   23  148 1    
    50   24   25 am   BACKBONE|DICT|INTERRES
    51   24  149 1    
    52   25   26 2    
    53   25   27 1    
    54   27   28 1    
    55   27   29 1    
    56   27  150 1    
    57   28  151 1    
    58   28  152 1    
    59   28  153 1    
    60   29   30 am   BACKBONE|DICT|INTERRES
    61   29  154 1    
    62   30   31 2    
    63   30   32 1    
    64   32   33 1    
    65   32   34 1    
    66   32  155 1    
    67   33  156 1    
    68   33  157 1    
    69   33  158 1    
    70   34   35 am   BACKBONE|DICT|INTERRES
    71   34  159 1    
    72   35   36 2    
    73   35   37 1    
    74   37   38 1    
    75   37   39 1    
    76   37  160 1    
    77   38  161 1    
    78   38  162 1    
    79   38  163 1    
    80   39   40 am   BACKBONE|DICT|INTERRES
    81   39  164 1    
    82   40   41 2    
    83   40   42 1    
    84   42   43 1    
    85   42   44 1    
    86   42  165 1    
    87   43  166 1    
    88   43  167 1    
    89   43  168 1    
    90   44   45 am   BACKBONE|DICT|INTERRES
    91   44  169 1    
    92   45   46 2    
    93   45   47 1    
    94   47   48 1    
    95   47   49 1    
    96   47  170 1    
    97   48  171 1    
    98   48  172 1    
    99   48  173 1    
   100   49   50 am   BACKBONE|DICT|INTERRES
   101   49  174 1    
   102   50   51 2    
   103   50   52 1    
   104   52   53 1    
   105   52   54 1    
   106   52  175 1    
   107   53  176 1    
   108   53  177 1    
   109   53  178 1    
   110   54   55 am   BACKBONE|DICT|INTERRES
   111   54  179 1    
   112   55   56 2    
   113   55   57 1    
   114   57   58 1    
   115   57   59 1    
   116   57  180 1    
   117   58  181 1    
   118   58  182 1    
   119   58  183 1    
   120   59   60 am   BACKBONE|DICT|INTERRES
   121   59  184 1    
   122   60   61 2    
   123   60   62 1    
   124   62   63 1    
   125   62   64 1    
   126   62  185 1    
   127   63  186 1    
   128   63  187 1    
   129   63  188 1    
   130   64   65 am   BACKBONE|DICT|INTERRES
   131   64  189 1    
   132   65   66 2    
   133   67   68 2    
   134   67   69 am   BACKBONE|DICT|INTERRES
   135   69   70 1    
   136   69  190 1    
   137   70   71 1    
   138   70   72 1    
   139   70  191 1    
   140   71  192 1    
   141   71  193 1    
   142   71  194 1    
   143   72   73 2    
   144   72   74 am   BACKBONE|DICT|INTERRES
   145   74   75 1    
   146   74  195 1    
   147   75   76 1    
   148   75   77 1    
   149   75  196 1    
   150   76  197 1    
   151   76  198 1    
   152   76  199 1    
   153   77   78 2    
   154   77   79 am   BACKBONE|DICT|INTERRES
   155   79   80 1    
   156   79  200 1    
   157   80   81 1    
   158   80   82 1    
   159   80  201 1    
   160   81  202 1    
   161   81  203 1    
   162   81  204 1    
   163   82   83 2    
   164   82   84 am   BACKBONE|DICT|INTERRES
   165   84   85 1    
   166   84  205 1    
   167   85   86 1    
   168   85   87 1    
   169   85  206 1    
   170   86  207 1    
   171   86  208 1    
   172   86  209 1    
   173   87   88 2    
   174   87   89 am   BACKBONE|DICT|INTERRES
   175   89   90 1    
   176   89  210 1    
   177   90   91 1    
   178   90   92 1    
   179   90  211 1    
   180   91  212 1    
   181   91  213 1    
   182   91  214 1    
   183   92   93 2    
   184   92   94 am   BACKBONE|DICT|INTERRES
   185   94   95 1    
   186   94  215 1    
   187   95   96 1    
   188   95   97 1    
   189   95  216 1    
   190   96  217 1    
   191   96  218 1    
   192   96  219 1    
   193   97   98 2    
   194   97   99 am   BACKBONE|DICT|INTERRES
   195   99  100 1    
   196   99  220 1    
   197  100  101 1    
   198  100  102 1    
   199  100  221 1    
   200  101  222 1    
   201  101  223 1    
   202  101  224 1    
   203  102  103 2    
   204  102  104 am   BACKBONE|DICT|INTERRES
   205  104  105 1    
   206  104  225 1    
   207  105  106 1    
   208  105  107 1    
   209  105  226 1    
   210  106  227 1    
   211  106  228 1    
   212  106  229 1    
   213  107  108 2    
   214  107  109 am   BACKBONE|DICT|INTERRES
   215  109  110 1    
   216  109  230 1    
   217  110  111 1    
   218  110  112 1    
   219  110  231 1    
   220  111  232 1    
   221  111  233 1    
   222  111  234 1    
   223  112  113 2    
   224  112  114 am   BACKBONE|DICT|INTERRES
   225  114  115 1    
   226  114  235 1    
   227  115  116 1    
   228  115  117 1    
   229  115  236 1    
   230  116  237 1    
   231  116  238 1    
   232  116  239 1    
   233  117  118 2    
   234  117  119 am   BACKBONE|DICT|INTERRES
   235  119  120 1    
   236  119  240 1    
   237  120  121 1    
   238  120  124 1    
   239  120  241 1    
   240  121  122 am   BACKBONE|DICT|INTERRES
   241  121  123 2    
   242  122  242 1    
   243  122  243 1    
   244  124  125 1    
   245  124  244 1    
   246  124  245 1    
   247  125  126 1    
   248  126  246 1    
   249  126  247 1    
@<TRIPOS>SUBSTRUCTURE
     1 UNK         1 GROUP             0       ****    0 ROOT    
