@<TRIPOS>MOLECULE
3R540
247   249    1
SMALL
USER_CHARGES


@<TRIPOS>ATOM
      1 CA          5.2148  -18.7189  -44.8995 C.3       0 UNK        -0.1800 
      2 C           4.5730  -17.5978  -45.7039 C.2       0 UNK         0.5000 
      3 O           3.3633  -17.3929  -45.6073 O.2       0 UNK        -0.5000 
      4 N           5.3726  -16.8733  -46.4984 N.am      1 UNK        -0.5000 
      5 CA          4.9270  -15.7484  -47.3265 C.3       1 UNK         0.1400 
      6 C6          6.0333  -15.2494  -48.2903 C.3       23 UNK        -0.0398 
      7 S7          5.3327  -14.6837  -49.8783 S.3       23 UNK        -0.2404 
      8 C8          6.1884  -15.7556  -51.0769 C.3       23 UNK        -0.0205 
      9 C9          5.6619  -17.1845  -51.0700 C.ar      23 UNK        -0.0193 
     10 C10         4.5818  -17.5394  -51.8825 C.ar      23 UNK        -0.1150 
     11 C11         4.1356  -18.8634  -51.9317 C.ar      23 UNK        -0.0193 
     12 C12         4.7720  -19.8324  -51.1520 C.ar      23 UNK        -0.1150 
     13 C13         5.8301  -19.4866  -50.3019 C.ar      23 UNK        -0.0193 
     14 C14         6.2788  -18.1633  -50.2854 C.ar      23 UNK        -0.1150 
     15 C15         6.5337  -20.5099  -49.4094 C.3       23 UNK        -0.0205 
     16 S16         5.5091  -21.9279  -48.8875 S.3       23 UNK        -0.2404 
     17 C17         4.1017  -21.0926  -48.0777 C.3       23 UNK        -0.0398 
     18 CA          3.3549  -21.9989  -47.0703 C.3       11 UNK         0.1400 
     19 N           2.4383  -21.2214  -46.2340 N.am      11 UNK        -0.5000 
     20 C           1.9517  -21.6313  -45.0534 C.2       10 UNK         0.5000 
     21 O           2.2925  -22.6770  -44.5012 O.2       10 UNK        -0.5000 
     22 CA          0.8829  -20.7418  -44.3862 C.3       10 UNK         0.1400 
     23 CB          1.5478  -19.7436  -43.4296 C.3       10 UNK        -0.1800 
     24 N           0.0553  -20.0132  -45.3508 N.am      10 UNK        -0.5000 
     25 C          -0.7839  -20.5978  -46.2175 C.2       9 UNK         0.5000 
     26 O          -1.0050  -21.8075  -46.2396 O.2       9 UNK        -0.5000 
     27 CA         -1.4692  -19.7033  -47.2676 C.3       9 UNK         0.1400 
     28 CB         -2.8709  -19.3253  -46.7824 C.3       9 UNK        -0.1800 
     29 N          -0.7512  -18.4785  -47.6237 N.am      9 UNK        -0.5000 
     30 C           0.5227  -18.3877  -48.0313 C.2       8 UNK         0.5000 
     31 O           1.2570  -19.3672  -48.1638 O.2       8 UNK        -0.5000 
     32 CA          1.0820  -16.9755  -48.3056 C.3       8 UNK         0.1400 
     33 CB          1.7244  -16.8801  -49.6961 C.3       8 UNK        -0.1800 
     34 N           0.1061  -15.8914  -48.1587 N.am      8 UNK        -0.5000 
     35 C          -0.3721  -15.4245  -46.9983 C.2       7 UNK         0.5000 
     36 O          -0.0237  -15.8586  -45.9002 O.2       7 UNK        -0.5000 
     37 CA         -1.3847  -14.2653  -47.0671 C.3       7 UNK         0.1400 
     38 CB         -1.5449  -13.6386  -48.4700 C.3       7 UNK        -0.1800 
     39 N          -2.6861  -14.6374  -46.5154 N.am      7 UNK        -0.5000 
     40 C          -3.5435  -15.5705  -46.9534 C.2       6 UNK         0.5000 
     41 O          -3.3080  -16.3108  -47.9122 O.2       6 UNK        -0.5000 
     42 CA         -4.8849  -15.6886  -46.1865 C.3       6 UNK         0.1400 
     43 CB         -5.4777  -17.1092  -46.2052 C.3       6 UNK        -0.1800 
     44 N          -4.7598  -15.2717  -44.7898 N.am      6 UNK        -0.5000 
     45 C          -4.9275  -14.0357  -44.3002 C.2       5 UNK         0.5000 
     46 O          -5.3247  -13.0803  -44.9660 O.2       5 UNK        -0.5000 
     47 CA         -4.5099  -13.8313  -42.8274 C.3       5 UNK         0.1400 
     48 CB         -5.7220  -13.9788  -41.8957 C.3       5 UNK        -0.1800 
     49 N          -3.4608  -14.7717  -42.4104 N.am      5 UNK        -0.5000 
     50 C          -2.2153  -14.7798  -42.9067 C.2       4 UNK         0.5000 
     51 O          -1.7816  -13.9094  -43.6658 O.2       4 UNK        -0.5000 
     52 CA         -1.3618  -16.0113  -42.5634 C.3       4 UNK         0.1400 
     53 CB         -1.8548  -17.2328  -43.3602 C.3       4 UNK        -0.1800 
     54 N           0.0405  -15.7713  -42.8970 N.am      4 UNK        -0.5000 
     55 C           0.9766  -15.4088  -42.0111 C.2       3 UNK         0.5000 
     56 O           0.7636  -15.2974  -40.8026 O.2       3 UNK        -0.5000 
     57 CA          2.3917  -15.1225  -42.5444 C.3       3 UNK         0.1400 
     58 CB          3.3060  -16.3388  -42.3409 C.3       3 UNK        -0.1800 
     59 N           2.4107  -14.7372  -43.9560 N.am      3 UNK        -0.5000 
     60 C           2.2133  -13.4834  -44.3888 C.2       2 UNK         0.5000 
     61 O           1.9288  -12.5500  -43.6363 O.2       2 UNK        -0.5000 
     62 CA          2.3658  -13.2126  -45.9048 C.3       2 UNK         0.1400 
     63 CB          2.9434  -11.8123  -46.1994 C.3       2 UNK        -0.1800 
     64 N           3.1142  -14.2436  -46.6366 N.am      2 UNK        -0.5000 
     65 C           4.3937  -14.5978  -46.4475 C.2       1 UNK         0.5000 
     66 O           5.1418  -14.0813  -45.6147 O.2       1 UNK        -0.5000 
     67 C           2.5992  -23.1449  -47.7780 C.2       11 UNK         0.5000 
     68 O           3.1074  -24.2651  -47.8425 O.2       11 UNK        -0.5000 
     69 N           1.3850  -22.8506  -48.2682 N.am      12 UNK        -0.5000 
     70 CA          0.5008  -23.8144  -48.9296 C.3       12 UNK         0.1400 
     71 CB         -0.6140  -23.0509  -49.6618 C.3       12 UNK        -0.1800 
     72 C          -0.0973  -24.8616  -47.9660 C.2       12 UNK         0.5000 
     73 O          -0.4943  -25.9368  -48.4159 O.2       12 UNK        -0.5000 
     74 N          -0.1736  -24.5194  -46.6714 N.am      13 UNK        -0.5000 
     75 CA         -0.6554  -25.2866  -45.5148 C.3       13 UNK         0.1400 
     76 CB          0.1203  -26.6059  -45.3422 C.3       13 UNK        -0.1800 
     77 C          -2.1776  -25.5191  -45.5101 C.2       13 UNK         0.5000 
     78 O          -2.8296  -25.2610  -44.4985 O.2       13 UNK        -0.5000 
     79 N          -2.7214  -25.9603  -46.6489 N.am      14 UNK        -0.5000 
     80 CA         -4.1528  -26.1351  -46.9058 C.3       14 UNK         0.1400 
     81 CB         -4.3288  -27.3248  -47.8648 C.3       14 UNK        -0.1800 
     82 C          -4.8025  -24.8626  -47.4893 C.2       14 UNK         0.5000 
     83 O          -5.9541  -24.9160  -47.9267 O.2       14 UNK        -0.5000 
     84 N          -4.0401  -23.7577  -47.5543 N.am      15 UNK        -0.5000 
     85 CA         -4.4047  -22.4615  -48.1403 C.3       15 UNK         0.1400 
     86 CB         -5.4991  -21.7773  -47.2954 C.3       15 UNK        -0.1800 
     87 C          -4.7755  -22.5551  -49.6356 C.2       15 UNK         0.5000 
     88 O          -5.6011  -21.7757  -50.1136 O.2       15 UNK        -0.5000 
     89 N          -4.1792  -23.5387  -50.3289 N.am      16 UNK        -0.5000 
     90 CA         -4.4630  -23.9518  -51.7069 C.3       16 UNK         0.1400 
     91 CB         -3.9856  -22.8789  -52.7031 C.3       16 UNK        -0.1800 
     92 C          -5.9360  -24.3727  -51.8987 C.2       16 UNK         0.5000 
     93 O          -6.5806  -23.9609  -52.8626 O.2       16 UNK        -0.5000 
     94 N          -6.4383  -25.1678  -50.9407 N.am      17 UNK        -0.5000 
     95 CA         -7.8270  -25.6163  -50.7916 C.3       17 UNK         0.1400 
     96 CB         -8.2684  -26.4982  -51.9791 C.3       17 UNK        -0.1800 
     97 C          -8.7776  -24.4351  -50.5103 C.2       17 UNK         0.5000 
     98 O          -9.8304  -24.3157  -51.1394 O.2       17 UNK        -0.5000 
     99 N          -8.3611  -23.5776  -49.5657 N.am      18 UNK        -0.5000 
    100 CA        -9.0403  -22.3586  -49.1073 C.3       18 UNK         0.1400 
    101 CB       -10.3688  -22.7045  -48.4024 C.3       18 UNK        -0.1800 
    102 C         -9.2020  -21.2718  -50.1943 C.2       18 UNK         0.5000 
    103 O        -10.1110  -20.4447  -50.1015 O.2       18 UNK        -0.5000 
    104 N         -8.3095  -21.2707  -51.1929 N.am      19 UNK        -0.5000 
    105 CA        -8.2459  -20.2549  -52.2443 C.3       19 UNK         0.1400 
    106 CB        -7.5721  -20.8528  -53.4874 C.3       19 UNK        -0.1800 
    107 C         -7.5034  -18.9840  -51.7900 C.2       19 UNK         0.5000 
    108 O         -7.7921  -17.9104  -52.3204 O.2       19 UNK        -0.5000 
    109 N         -6.5830  -19.1371  -50.8224 N.am      20 UNK        -0.5000 
    110 CA        -5.6646  -18.1380  -50.2605 C.3       20 UNK         0.1400 
    111 CB        -6.4186  -16.8940  -49.7445 C.3       20 UNK        -0.1800 
    112 C         -4.5323  -17.7444  -51.2293 C.2       20 UNK         0.5000 
    113 O         -4.6358  -17.9602  -52.4388 O.2       20 UNK        -0.5000 
    114 N         -3.4505  -17.1827  -50.6667 N.am      21 UNK        -0.5000 
    115 CA        -2.2823  -16.6208  -51.3623 C.3       21 UNK         0.1400 
    116 CB        -2.6629  -15.2695  -52.0013 C.3       21 UNK        -0.1800 
    117 C         -1.6025  -17.5787  -52.3699 C.2       21 UNK         0.5000 
    118 O         -1.1111  -17.1312  -53.4072 O.2       21 UNK        -0.5000 
    119 N         -1.6106  -18.8796  -52.0488 N.am      22 UNK        -0.5000 
    120 CA        -1.1624  -19.9947  -52.9057 C.3       22 UNK         0.1400 
    121 C         -2.0766  -20.2741  -54.1416 C.2       22 UNK         0.5000 
    122 N         -3.2733  -19.7081  -54.2420 N.am      22 UNK        -0.7600 
    123 O         -1.7089  -21.0497  -55.0200 O.2       22 UNK        -0.5000 
    124 C124        0.3368  -19.9207  -53.3163 C.3       23 UNK        -0.0398 
    125 S125        1.4887  -19.7105  -51.9195 S.3       23 UNK        -0.2404 
    126 C126        2.9874  -19.2559  -52.8480 C.3       23 UNK        -0.0205 
    127 H127        6.2624  -18.8608  -45.1657 H         1 UNK         0.0600 
    128 H128        4.6894  -19.6570  -45.0761 H         1 UNK         0.0600 
    129 H129        5.1590  -18.4937  -43.8347 H         1 UNK         0.0600 
    130 H130        6.3646  -17.0602  -46.5027 H         1 UNK         0.3000 
    131 H131        4.1051  -16.1404  -47.9284 H         1 UNK         0.0600 
    132 H132        6.7528  -16.0418  -48.4854 H         1 UNK         0.0800 
    133 H133        6.6255  -14.4408  -47.8570 H         1 UNK         0.0800 
    134 H134        7.2618  -15.7427  -50.8816 H         1 UNK         0.0800 
    135 H135        6.0628  -15.3289  -52.0732 H         1 UNK         0.0800 
    136 H136        4.1004  -16.7858  -52.4900 H         1 UNK         0.1150 
    137 H137        4.4261  -20.8545  -51.2055 H         1 UNK         0.1150 
    138 H138        7.1234  -17.9004  -49.6655 H         1 UNK         0.1150 
    139 H139        6.9117  -20.0193  -48.5109 H         1 UNK         0.0800 
    140 H140        7.4054  -20.8906  -49.9429 H         1 UNK         0.0800 
    141 H141        3.4204  -20.7195  -48.8439 H         1 UNK         0.0800 
    142 H142        4.4851  -20.2106  -47.5636 H         1 UNK         0.0800 
    143 H143        4.1009  -22.4507  -46.4124 H         1 UNK         0.0600 
    144 H144        2.0695  -20.3725  -46.6510 H         1 UNK         0.3000 
    145 H145        0.2280  -21.3921  -43.8023 H         1 UNK         0.0600 
    146 H146        0.8115  -19.1566  -42.8825 H         1 UNK         0.0600 
    147 H147        2.1648  -20.2577  -42.6916 H         1 UNK         0.0600 
    148 H148        2.1925  -19.0555  -43.9726 H         1 UNK         0.0600 
    149 H149        0.1893  -19.0138  -45.4061 H         1 UNK         0.3000 
    150 H150       -1.5654  -20.2961  -48.1780 H         1 UNK         0.0600 
    151 H151       -3.3846  -20.1735  -46.3322 H         1 UNK         0.0600 
    152 H152       -3.4873  -18.9679  -47.6059 H         1 UNK         0.0600 
    153 H153       -2.8226  -18.5453  -46.0242 H         1 UNK         0.0600 
    154 H154       -1.2769  -17.6190  -47.5430 H         1 UNK         0.3000 
    155 H155        1.8661  -16.8177  -47.5679 H         1 UNK         0.0600 
    156 H156        0.9955  -17.0404  -50.4905 H         1 UNK         0.0600 
    157 H157        2.5076  -17.6301  -49.8118 H         1 UNK         0.0600 
    158 H158        2.1892  -15.9072  -49.8562 H         1 UNK         0.0600 
    159 H159       -0.2318  -15.4731  -49.0124 H         1 UNK         0.3000 
    160 H160       -0.9968  -13.4888  -46.4071 H         1 UNK         0.0600 
    161 H161       -1.9615  -14.3406  -49.1910 H         1 UNK         0.0600 
    162 H162       -0.5893  -13.2835  -48.8581 H         1 UNK         0.0600 
    163 H163       -2.2115  -12.7769  -48.4335 H         1 UNK         0.0600 
    164 H164       -2.9384  -14.1344  -45.6754 H         1 UNK         0.3000 
    165 H165       -5.5869  -15.0305  -46.7023 H         1 UNK         0.0600 
    166 H166       -6.5145  -17.0963  -45.8690 H         1 UNK         0.0600 
    167 H167       -5.4734  -17.5472  -47.2011 H         1 UNK         0.0600 
    168 H168       -4.9334  -17.7841  -45.5463 H         1 UNK         0.0600 
    169 H169       -4.4252  -15.9778  -44.1521 H         1 UNK         0.3000 
    170 H170       -4.1201  -12.8158  -42.7289 H         1 UNK         0.0600 
    171 H171       -6.5100  -13.2748  -42.1668 H         1 UNK         0.0600 
    172 H172       -6.1478  -14.9819  -41.9426 H         1 UNK         0.0600 
    173 H173       -5.4500  -13.7766  -40.8596 H         1 UNK         0.0600 
    174 H174       -3.7429  -15.5062  -41.7768 H         1 UNK         0.3000 
    175 H175       -1.4726  -16.2251  -41.4984 H         1 UNK         0.0600 
    176 H176       -1.8292  -17.0514  -44.4342 H         1 UNK         0.0600 
    177 H177       -1.2446  -18.1112  -43.1561 H         1 UNK         0.0600 
    178 H178       -2.8805  -17.4918  -43.0964 H         1 UNK         0.0600 
    179 H179        0.2627  -15.7631  -43.8878 H         1 UNK         0.3000 
    180 H180        2.8031  -14.3041  -41.9495 H         1 UNK         0.0600 
    181 H181        2.9449  -17.2053  -42.8909 H         1 UNK         0.0600 
    182 H182        3.3585  -16.6178  -41.2879 H         1 UNK         0.0600 
    183 H183        4.3225  -16.1287  -42.6741 H         1 UNK         0.0600 
    184 H184        2.6178  -15.4670  -44.6275 H         1 UNK         0.3000 
    185 H185        1.3565  -13.2251  -46.3106 H         1 UNK         0.0600 
    186 H186        2.2970  -11.0291  -45.8017 H         1 UNK         0.0600 
    187 H187        3.9291  -11.6776  -45.7534 H         1 UNK         0.0600 
    188 H188        3.0340  -11.6402  -47.2719 H         1 UNK         0.0600 
    189 H189        2.5824  -14.7439  -47.3329 H         1 UNK         0.3000 
    190 H190        1.0475  -21.9021  -48.1819 H         1 UNK         0.3000 
    191 H191        1.0883  -24.3537  -49.6757 H         1 UNK         0.0600 
    192 H192       -1.2758  -22.5395  -48.9643 H         1 UNK         0.0600 
    193 H193       -1.2233  -23.7312  -50.2575 H         1 UNK         0.0600 
    194 H194       -0.2020  -22.3061  -50.3433 H         1 UNK         0.0600 
    195 H195        0.0581  -23.5565  -46.4551 H         1 UNK         0.3000 
    196 H196       -0.4328  -24.6645  -44.6462 H         1 UNK         0.0600 
    197 H197       -0.1696  -27.1076  -44.4183 H         1 UNK         0.0600 
    198 H198        1.1942  -26.4254  -45.2915 H         1 UNK         0.0600 
    199 H199       -0.0646  -27.3019  -46.1607 H         1 UNK         0.0600 
    200 H200       -2.0875  -26.1385  -47.4244 H         1 UNK         0.3000 
    201 H201       -4.6701  -26.3669  -45.9728 H         1 UNK         0.0600 
    202 H202       -3.8897  -28.2319  -47.4493 H         1 UNK         0.0600 
    203 H203       -3.8573  -27.1373  -48.8304 H         1 UNK         0.0600 
    204 H204       -5.3838  -27.5337  -48.0474 H         1 UNK         0.0600 
    205 H205       -3.1131  -23.8148  -47.1569 H         1 UNK         0.3000 
    206 H206       -3.5105  -21.8418  -48.0962 H         1 UNK         0.0600 
    207 H207       -5.7179  -20.7734  -47.6614 H         1 UNK         0.0600 
    208 H208       -5.1900  -21.6834  -46.2547 H         1 UNK         0.0600 
    209 H209       -6.4282  -22.3442  -47.3048 H         1 UNK         0.0600 
    210 H210       -3.5277  -24.1243  -49.8283 H         1 UNK         0.3000 
    211 H211       -3.8719  -24.8500  -51.8913 H         1 UNK         0.0600 
    212 H212       -4.1733  -23.1808  -53.7341 H         1 UNK         0.0600 
    213 H213       -2.9127  -22.7195  -52.6059 H         1 UNK         0.0600 
    214 H214       -4.4807  -21.9216  -52.5446 H         1 UNK         0.0600 
    215 H215       -5.8403  -25.3911  -50.1566 H         1 UNK         0.3000 
    216 H216       -7.8493  -26.2415  -49.8976 H         1 UNK         0.0600 
    217 H217       -9.2492  -26.9367  -51.7923 H         1 UNK         0.0600 
    218 H218       -7.5711  -27.3202  -52.1399 H         1 UNK         0.0600 
    219 H219       -8.3389  -25.9309  -52.9073 H         1 UNK         0.0600 
    220 H220       -7.4837  -23.7885  -49.1045 H         1 UNK         0.3000 
    221 H221       -8.3885  -21.9139  -48.3567 H         1 UNK         0.0600 
    222 H222      -11.1126  -23.0851  -49.1027 H         1 UNK         0.0600 
    223 H223      -10.2197  -23.4572  -47.6282 H         1 UNK         0.0600 
    224 H224      -10.7967  -21.8259  -47.9184 H         1 UNK         0.0600 
    225 H225       -7.5616  -21.9526  -51.1728 H         1 UNK         0.3000 
    226 H226       -9.2623  -19.9670  -52.5211 H         1 UNK         0.0600 
    227 H227       -6.5426  -21.1452  -53.2833 H         1 UNK         0.0600 
    228 H228       -8.1073  -21.7340  -53.8418 H         1 UNK         0.0600 
    229 H229       -7.5511  -20.1318  -54.3054 H         1 UNK         0.0600 
    230 H230       -6.3990  -20.0907  -50.5213 H         1 UNK         0.3000 
    231 H231       -5.1955  -18.6266  -49.4058 H         1 UNK         0.0600 
    232 H232       -7.2191  -17.1722  -49.0591 H         1 UNK         0.0600 
    233 H233       -6.8562  -16.3116  -50.5550 H         1 UNK         0.0600 
    234 H234       -5.7482  -16.2230  -49.2082 H         1 UNK         0.0600 
    235 H235       -3.4583  -17.0235  -49.6611 H         1 UNK         0.3000 
    236 H236       -1.5388  -16.4247  -50.5901 H         1 UNK         0.0600 
    237 H237       -1.7820  -14.7504  -52.3805 H         1 UNK         0.0600 
    238 H238       -3.3518  -15.4026  -52.8363 H         1 UNK         0.0600 
    239 H239       -3.1422  -14.6090  -51.2790 H         1 UNK         0.0600 
    240 H240       -2.0521  -19.1463  -51.1823 H         1 UNK         0.3000 
    241 H241       -1.2714  -20.8827  -52.2830 H         1 UNK         0.0600 
    242 H242       -3.8421  -19.9144  -55.0464 H         1 UNK         0.3800 
    243 H243       -3.6260  -19.0633  -53.5383 H         1 UNK         0.3800 
    244 H244        0.6309  -20.8337  -53.8367 H         1 UNK         0.0800 
    245 H245        0.4905  -19.1084  -54.0277 H         1 UNK         0.0800 
    246 H246        2.7533  -18.4361  -53.5289 H         1 UNK         0.0800 
    247 H247        3.2945  -20.0973  -53.4708 H         1 UNK         0.0800 
@<TRIPOS>BOND
     1    1    2 1    
     2    1  127 1    
     3    1  128 1    
     4    1  129 1    
     5    2    3 2    
     6    2    4 am   BACKBONE|DICT|INTERRES
     7    4    5 1    
     8    4  130 1    
     9    5    6 1    
    10    5   65 1    
    11    5  131 1    
    12    6    7 1    
    13    6  132 1    
    14    6  133 1    
    15    7    8 1    
    16    8    9 1    
    17    8  134 1    
    18    8  135 1    
    19    9   10 ar   
    20    9   14 ar   
    21   10   11 ar   
    22   10  136 1    
    23   11   12 ar   
    24   11  126 1    
    25   12   13 ar   
    26   12  137 1    
    27   13   14 ar   
    28   13   15 1    
    29   14  138 1    
    30   15   16 1    
    31   15  139 1    
    32   15  140 1    
    33   16   17 1    
    34   17   18 1    
    35   17  141 1    
    36   17  142 1    
    37   18   19 1    
    38   18   67 1    
    39   18  143 1    
    40   19   20 am   BACKBONE|DICT|INTERRES
    41   19  144 1    
    42   20   21 2    
    43   20   22 1    
    44   22   23 1    
    45   22   24 1    
    46   22  145 1    
    47   23  146 1    
    48   23  147 1    
    49   23  148 1    
    50   24   25 am   BACKBONE|DICT|INTERRES
    51   24  149 1    
    52   25   26 2    
    53   25   27 1    
    54   27   28 1    
    55   27   29 1    
    56   27  150 1    
    57   28  151 1    
    58   28  152 1    
    59   28  153 1    
    60   29   30 am   BACKBONE|DICT|INTERRES
    61   29  154 1    
    62   30   31 2    
    63   30   32 1    
    64   32   33 1    
    65   32   34 1    
    66   32  155 1    
    67   33  156 1    
    68   33  157 1    
    69   33  158 1    
    70   34   35 am   BACKBONE|DICT|INTERRES
    71   34  159 1    
    72   35   36 2    
    73   35   37 1    
    74   37   38 1    
    75   37   39 1    
    76   37  160 1    
    77   38  161 1    
    78   38  162 1    
    79   38  163 1    
    80   39   40 am   BACKBONE|DICT|INTERRES
    81   39  164 1    
    82   40   41 2    
    83   40   42 1    
    84   42   43 1    
    85   42   44 1    
    86   42  165 1    
    87   43  166 1    
    88   43  167 1    
    89   43  168 1    
    90   44   45 am   BACKBONE|DICT|INTERRES
    91   44  169 1    
    92   45   46 2    
    93   45   47 1    
    94   47   48 1    
    95   47   49 1    
    96   47  170 1    
    97   48  171 1    
    98   48  172 1    
    99   48  173 1    
   100   49   50 am   BACKBONE|DICT|INTERRES
   101   49  174 1    
   102   50   51 2    
   103   50   52 1    
   104   52   53 1    
   105   52   54 1    
   106   52  175 1    
   107   53  176 1    
   108   53  177 1    
   109   53  178 1    
   110   54   55 am   BACKBONE|DICT|INTERRES
   111   54  179 1    
   112   55   56 2    
   113   55   57 1    
   114   57   58 1    
   115   57   59 1    
   116   57  180 1    
   117   58  181 1    
   118   58  182 1    
   119   58  183 1    
   120   59   60 am   BACKBONE|DICT|INTERRES
   121   59  184 1    
   122   60   61 2    
   123   60   62 1    
   124   62   63 1    
   125   62   64 1    
   126   62  185 1    
   127   63  186 1    
   128   63  187 1    
   129   63  188 1    
   130   64   65 am   BACKBONE|DICT|INTERRES
   131   64  189 1    
   132   65   66 2    
   133   67   68 2    
   134   67   69 am   BACKBONE|DICT|INTERRES
   135   69   70 1    
   136   69  190 1    
   137   70   71 1    
   138   70   72 1    
   139   70  191 1    
   140   71  192 1    
   141   71  193 1    
   142   71  194 1    
   143   72   73 2    
   144   72   74 am   BACKBONE|DICT|INTERRES
   145   74   75 1    
   146   74  195 1    
   147   75   76 1    
   148   75   77 1    
   149   75  196 1    
   150   76  197 1    
   151   76  198 1    
   152   76  199 1    
   153   77   78 2    
   154   77   79 am   BACKBONE|DICT|INTERRES
   155   79   80 1    
   156   79  200 1    
   157   80   81 1    
   158   80   82 1    
   159   80  201 1    
   160   81  202 1    
   161   81  203 1    
   162   81  204 1    
   163   82   83 2    
   164   82   84 am   BACKBONE|DICT|INTERRES
   165   84   85 1    
   166   84  205 1    
   167   85   86 1    
   168   85   87 1    
   169   85  206 1    
   170   86  207 1    
   171   86  208 1    
   172   86  209 1    
   173   87   88 2    
   174   87   89 am   BACKBONE|DICT|INTERRES
   175   89   90 1    
   176   89  210 1    
   177   90   91 1    
   178   90   92 1    
   179   90  211 1    
   180   91  212 1    
   181   91  213 1    
   182   91  214 1    
   183   92   93 2    
   184   92   94 am   BACKBONE|DICT|INTERRES
   185   94   95 1    
   186   94  215 1    
   187   95   96 1    
   188   95   97 1    
   189   95  216 1    
   190   96  217 1    
   191   96  218 1    
   192   96  219 1    
   193   97   98 2    
   194   97   99 am   BACKBONE|DICT|INTERRES
   195   99  100 1    
   196   99  220 1    
   197  100  101 1    
   198  100  102 1    
   199  100  221 1    
   200  101  222 1    
   201  101  223 1    
   202  101  224 1    
   203  102  103 2    
   204  102  104 am   BACKBONE|DICT|INTERRES
   205  104  105 1    
   206  104  225 1    
   207  105  106 1    
   208  105  107 1    
   209  105  226 1    
   210  106  227 1    
   211  106  228 1    
   212  106  229 1    
   213  107  108 2    
   214  107  109 am   BACKBONE|DICT|INTERRES
   215  109  110 1    
   216  109  230 1    
   217  110  111 1    
   218  110  112 1    
   219  110  231 1    
   220  111  232 1    
   221  111  233 1    
   222  111  234 1    
   223  112  113 2    
   224  112  114 am   BACKBONE|DICT|INTERRES
   225  114  115 1    
   226  114  235 1    
   227  115  116 1    
   228  115  117 1    
   229  115  236 1    
   230  116  237 1    
   231  116  238 1    
   232  116  239 1    
   233  117  118 2    
   234  117  119 am   BACKBONE|DICT|INTERRES
   235  119  120 1    
   236  119  240 1    
   237  120  121 1    
   238  120  124 1    
   239  120  241 1    
   240  121  122 am   BACKBONE|DICT|INTERRES
   241  121  123 2    
   242  122  242 1    
   243  122  243 1    
   244  124  125 1    
   245  124  244 1    
   246  124  245 1    
   247  125  126 1    
   248  126  246 1    
   249  126  247 1    
@<TRIPOS>SUBSTRUCTURE
     1 UNK         1 GROUP             0       ****    0 ROOT    
