@<TRIPOS>MOLECULE
3R540
247   249    1
SMALL
USER_CHARGES


@<TRIPOS>ATOM
      1 CA          3.1108   -9.1452  -49.3790 C.3       0 UNK        -0.1800 
      2 C           3.8879  -10.4327  -49.1424 C.2       0 UNK         0.5000 
      3 O           5.1117  -10.4441  -49.2808 O.2       0 UNK        -0.5000 
      4 N           3.1822  -11.5161  -48.7966 N.am      1 UNK        -0.5000 
      5 CA          3.7530  -12.8301  -48.4799 C.3       1 UNK         0.1400 
      6 C6          2.6701  -13.9375  -48.4329 C.3       23 UNK        -0.0398 
      7 S7          1.7806  -14.0819  -50.0187 S.3       23 UNK        -0.2404 
      8 C8          2.7234  -15.3960  -50.8530 C.3       23 UNK        -0.0205 
      9 C9          2.0061  -16.7340  -50.7752 C.ar      23 UNK        -0.0193 
     10 C10         0.9738  -17.0127  -51.6751 C.ar      23 UNK        -0.1150 
     11 C11         0.3129  -18.2425  -51.6441 C.ar      23 UNK        -0.0193 
     12 C12         0.7011  -19.2027  -50.7059 C.ar      23 UNK        -0.1150 
     13 C13         1.7307  -18.9385  -49.7971 C.ar      23 UNK        -0.0193 
     14 C14         2.3798  -17.6993  -49.8340 C.ar      23 UNK        -0.1150 
     15 C15         2.1495  -20.0040  -48.7945 C.3       23 UNK        -0.0205 
     16 S16         1.3772  -19.7258  -47.1713 S.3       23 UNK        -0.2404 
     17 C17         1.4782  -21.3872  -46.4187 C.3       23 UNK        -0.0398 
     18 CA          0.1414  -22.1735  -46.3761 C.3       11 UNK         0.1400 
     19 N          -0.8689  -21.5658  -45.5014 N.am      11 UNK        -0.5000 
     20 C          -1.9867  -22.1969  -45.1069 C.2       10 UNK         0.5000 
     21 O          -2.2641  -23.3516  -45.4270 O.2       10 UNK        -0.5000 
     22 CA         -2.9897  -21.4042  -44.2513 C.3       10 UNK         0.1400 
     23 CB         -2.5453  -21.3722  -42.7826 C.3       10 UNK        -0.1800 
     24 N          -3.2080  -20.0440  -44.7425 N.am      10 UNK        -0.5000 
     25 C          -3.7256  -19.7484  -45.9443 C.2       9 UNK         0.5000 
     26 O          -4.0701  -20.6003  -46.7635 O.2       9 UNK        -0.5000 
     27 CA         -3.8501  -18.2569  -46.2953 C.3       9 UNK         0.1400 
     28 CB         -5.1486  -17.6631  -45.7287 C.3       9 UNK        -0.1800 
     29 N          -2.7046  -17.5080  -45.7817 N.am      9 UNK        -0.5000 
     30 C          -1.5418  -17.3892  -46.4370 C.2       8 UNK         0.5000 
     31 O          -1.3710  -17.7922  -47.5859 O.2       8 UNK        -0.5000 
     32 CA         -0.3711  -16.7218  -45.6862 C.3       8 UNK         0.1400 
     33 CB         -0.3038  -15.2246  -46.0271 C.3       8 UNK        -0.1800 
     34 N          -0.4416  -16.8862  -44.2312 N.am      8 UNK        -0.5000 
     35 C          -0.3156  -18.0575  -43.5844 C.2       7 UNK         0.5000 
     36 O          -0.0729  -19.1238  -44.1472 O.2       7 UNK        -0.5000 
     37 CA         -0.5618  -18.0611  -42.0590 C.3       7 UNK         0.1400 
     38 CB          0.7570  -17.8921  -41.2907 C.3       7 UNK        -0.1800 
     39 N          -1.5029  -17.0375  -41.6095 N.am      7 UNK        -0.5000 
     40 C          -2.7469  -16.8541  -42.0723 C.2       6 UNK         0.5000 
     41 O          -3.3043  -17.6374  -42.8420 O.2       6 UNK        -0.5000 
     42 CA         -3.4520  -15.5394  -41.6742 C.3       6 UNK         0.1400 
     43 CB         -4.5243  -15.8098  -40.6089 C.3       6 UNK        -0.1800 
     44 N          -2.5486  -14.4849  -41.1881 N.am      6 UNK        -0.5000 
     45 C          -1.5088  -13.9616  -41.8571 C.2       5 UNK         0.5000 
     46 O          -1.2019  -14.3081  -43.0004 O.2       5 UNK        -0.5000 
     47 CA         -0.6502  -12.9307  -41.0957 C.3       5 UNK         0.1400 
     48 CB         -0.3923  -13.3527  -39.6361 C.3       5 UNK        -0.1800 
     49 N           0.6466  -12.7388  -41.7405 N.am      5 UNK        -0.5000 
     50 C           0.9208  -11.8689  -42.7151 C.2       4 UNK         0.5000 
     51 O           0.0890  -11.0981  -43.1967 O.2       4 UNK        -0.5000 
     52 CA          2.3789  -11.8180  -43.2155 C.3       4 UNK         0.1400 
     53 CB          3.2864  -11.1094  -42.1922 C.3       4 UNK        -0.1800 
     54 N           2.9713  -13.0963  -43.6339 N.am      4 UNK        -0.5000 
     55 C           3.2259  -14.2060  -42.9205 C.2       3 UNK         0.5000 
     56 O           2.8860  -14.3672  -41.7478 O.2       3 UNK        -0.5000 
     57 CA          4.0264  -15.3245  -43.6253 C.3       3 UNK         0.1400 
     58 CB          3.0926  -16.4193  -44.1578 C.3       3 UNK        -0.1800 
     59 N           4.8515  -14.8441  -44.7339 N.am      3 UNK        -0.5000 
     60 C           5.9312  -14.0599  -44.6120 C.2       2 UNK         0.5000 
     61 O           6.4163  -13.7268  -43.5303 O.2       2 UNK        -0.5000 
     62 CA          6.5625  -13.5400  -45.9204 C.3       2 UNK         0.1400 
     63 CB          7.7952  -14.3794  -46.2902 C.3       2 UNK        -0.1800 
     64 N           5.6497  -13.5031  -47.0716 N.am      2 UNK        -0.5000 
     65 C           4.5254  -12.7764  -47.1471 C.2       1 UNK         0.5000 
     66 O           4.0734  -12.1165  -46.2085 O.2       1 UNK        -0.5000 
     67 C          -0.4128  -22.4790  -47.7843 C.2       11 UNK         0.5000 
     68 O          -0.0869  -23.5242  -48.3450 O.2       11 UNK        -0.5000 
     69 N          -1.2683  -21.5855  -48.3054 N.am      12 UNK        -0.5000 
     70 CA         -1.9624  -21.7336  -49.5829 C.3       12 UNK         0.1400 
     71 CB         -2.6883  -20.4263  -49.9302 C.3       12 UNK        -0.1800 
     72 C          -2.9304  -22.9249  -49.5697 C.2       12 UNK         0.5000 
     73 O          -2.8826  -23.7568  -50.4797 O.2       12 UNK        -0.5000 
     74 N          -3.7467  -23.0080  -48.5094 N.am      13 UNK        -0.5000 
     75 CA         -4.6735  -24.1077  -48.2490 C.3       13 UNK         0.1400 
     76 CB         -5.5381  -23.7665  -47.0275 C.3       13 UNK        -0.1800 
     77 C          -3.9629  -25.4598  -48.0571 C.2       13 UNK         0.5000 
     78 O          -4.4510  -26.4738  -48.5575 O.2       13 UNK        -0.5000 
     79 N          -2.8021  -25.4490  -47.3868 N.am      14 UNK        -0.5000 
     80 CA         -1.9262  -26.5987  -47.1420 C.3       14 UNK         0.1400 
     81 CB         -0.9993  -26.2800  -45.9558 C.3       14 UNK        -0.1800 
     82 C          -1.1463  -27.0554  -48.3969 C.2       14 UNK         0.5000 
     83 O           0.0754  -27.2063  -48.3530 O.2       14 UNK        -0.5000 
     84 N          -1.8828  -27.2889  -49.4896 N.am      15 UNK        -0.5000 
     85 CA         -1.4778  -27.9016  -50.7584 C.3       15 UNK         0.1400 
     86 CB         -0.9828  -29.3446  -50.5294 C.3       15 UNK        -0.1800 
     87 C          -0.4939  -27.0949  -51.6321 C.2       15 UNK         0.5000 
     88 O          -0.1592  -27.5721  -52.7178 O.2       15 UNK        -0.5000 
     89 N          -0.0665  -25.8951  -51.2057 N.am      16 UNK        -0.5000 
     90 CA          0.7736  -25.0091  -52.0232 C.3       16 UNK         0.1400 
     91 CB          1.3816  -23.8930  -51.1629 C.3       16 UNK        -0.1800 
     92 C          -0.0121  -24.4222  -53.2103 C.2       16 UNK         0.5000 
     93 O           0.5204  -24.3477  -54.3182 O.2       16 UNK        -0.5000 
     94 N          -1.2774  -24.0683  -52.9559 N.am      17 UNK        -0.5000 
     95 CA         -2.2783  -23.7343  -53.9682 C.3       17 UNK         0.1400 
     96 CB         -2.7228  -22.2800  -53.7685 C.3       17 UNK        -0.1800 
     97 C          -3.4921  -24.6785  -53.8850 C.2       17 UNK         0.5000 
     98 O          -4.2013  -24.8286  -54.8796 O.2       17 UNK        -0.5000 
     99 N          -3.7121  -25.2820  -52.7047 N.am      18 UNK        -0.5000 
    100 CA        -4.8504  -26.1246  -52.3215 C.3       18 UNK         0.1400 
    101 CB        -4.9693  -27.3732  -53.2202 C.3       18 UNK        -0.1800 
    102 C         -6.1674  -25.3285  -52.1989 C.2       18 UNK         0.5000 
    103 O         -7.2507  -25.9059  -52.3032 O.2       18 UNK        -0.5000 
    104 N         -6.0495  -24.0189  -51.9530 N.am      19 UNK        -0.5000 
    105 CA        -7.1405  -23.0813  -51.7356 C.3       19 UNK         0.1400 
    106 CB        -7.7104  -22.6051  -53.0824 C.3       19 UNK        -0.1800 
    107 C         -6.5727  -21.9069  -50.9354 C.2       19 UNK         0.5000 
    108 O         -5.4936  -21.4170  -51.2732 O.2       19 UNK        -0.5000 
    109 N         -7.3038  -21.4668  -49.9046 N.am      20 UNK        -0.5000 
    110 CA        -6.8853  -20.4163  -48.9691 C.3       20 UNK         0.1400 
    111 CB        -7.8979  -20.3508  -47.8154 C.3       20 UNK        -0.1800 
    112 C         -6.7092  -19.0254  -49.6105 C.2       20 UNK         0.5000 
    113 O         -5.9419  -18.2115  -49.0999 O.2       20 UNK        -0.5000 
    114 N         -7.4144  -18.7848  -50.7222 N.am      21 UNK        -0.5000 
    115 CA        -7.3427  -17.5577  -51.5167 C.3       21 UNK         0.1400 
    116 CB        -8.7205  -17.3232  -52.1600 C.3       21 UNK        -0.1800 
    117 C         -6.2325  -17.5923  -52.5903 C.2       21 UNK         0.5000 
    118 O         -6.1442  -16.6520  -53.3806 O.2       21 UNK        -0.5000 
    119 N         -5.4407  -18.6745  -52.6351 N.am      22 UNK        -0.5000 
    120 CA        -4.4233  -18.9800  -53.6586 C.3       22 UNK         0.1400 
    121 C         -5.0092  -19.3797  -55.0494 C.2       22 UNK         0.5000 
    122 N         -6.3065  -19.6291  -55.1824 N.am      22 UNK        -0.7600 
    123 O         -4.2725  -19.5017  -56.0241 O.2       22 UNK        -0.5000 
    124 C124       -3.2908  -17.9181  -53.7810 C.3       23 UNK        -0.0398 
    125 S125       -2.3407  -17.6726  -52.2408 S.3       23 UNK        -0.2404 
    126 C126       -0.7891  -18.5362  -52.6519 C.3       23 UNK        -0.0205 
    127 H127        3.4495   -8.3711  -48.6904 H         1 UNK         0.0600 
    128 H128        3.2710   -8.7916  -50.3975 H         1 UNK         0.0600 
    129 H129        2.0395   -9.2855  -49.2324 H         1 UNK         0.0600 
    130 H130        2.1807  -11.4420  -48.6936 H         1 UNK         0.3000 
    131 H131        4.4618  -13.0810  -49.2722 H         1 UNK         0.0600 
    132 H132        1.9369  -13.7200  -47.6543 H         1 UNK         0.0800 
    133 H133        3.1037  -14.9059  -48.1772 H         1 UNK         0.0800 
    134 H134        3.7307  -15.4709  -50.4409 H         1 UNK         0.0800 
    135 H135        2.8513  -15.1180  -51.9003 H         1 UNK         0.0800 
    136 H136        0.6826  -16.2689  -52.4037 H         1 UNK         0.1150 
    137 H137        0.2069  -20.1613  -50.6859 H         1 UNK         0.1150 
    138 H138        3.1778  -17.4920  -49.1353 H         1 UNK         0.1150 
    139 H139        1.8754  -20.9910  -49.1706 H         1 UNK         0.0800 
    140 H140        3.2346  -20.0078  -48.6824 H         1 UNK         0.0800 
    141 H141        2.2408  -21.9732  -46.9343 H         1 UNK         0.0800 
    142 H142        1.8508  -21.2617  -45.4012 H         1 UNK         0.0800 
    143 H143        0.3788  -23.1418  -45.9308 H         1 UNK         0.0600 
    144 H144       -0.6801  -20.6223  -45.1705 H         1 UNK         0.3000 
    145 H145       -3.9508  -21.9204  -44.2997 H         1 UNK         0.0600 
    146 H146       -3.1895  -20.7303  -42.1811 H         1 UNK         0.0600 
    147 H147       -2.5833  -22.3721  -42.3490 H         1 UNK         0.0600 
    148 H148       -1.5199  -21.0195  -42.6820 H         1 UNK         0.0600 
    149 H149       -2.9894  -19.2843  -44.1096 H         1 UNK         0.3000 
    150 H150       -3.8861  -18.1685  -47.3830 H         1 UNK         0.0600 
    151 H151       -6.0179  -18.1648  -46.1519 H         1 UNK         0.0600 
    152 H152       -5.2364  -16.6046  -45.9737 H         1 UNK         0.0600 
    153 H153       -5.2094  -17.7644  -44.6452 H         1 UNK         0.0600 
    154 H154       -2.7650  -17.1910  -44.8224 H         1 UNK         0.3000 
    155 H155        0.5531  -17.1871  -46.0306 H         1 UNK         0.0600 
    156 H156        0.5261  -14.7333  -45.5195 H         1 UNK         0.0600 
    157 H157       -1.2203  -14.7076  -45.7403 H         1 UNK         0.0600 
    158 H158       -0.1664  -15.0774  -47.0991 H         1 UNK         0.0600 
    159 H159       -0.6636  -16.0486  -43.6998 H         1 UNK         0.3000 
    160 H160       -0.9857  -19.0287  -41.7928 H         1 UNK         0.0600 
    161 H161        1.1687  -16.8895  -41.4123 H         1 UNK         0.0600 
    162 H162        1.5081  -18.6044  -41.6352 H         1 UNK         0.0600 
    163 H163        0.6138  -18.0645  -40.2239 H         1 UNK         0.0600 
    164 H164       -1.1353  -16.3405  -40.9800 H         1 UNK         0.3000 
    165 H165       -3.9462  -15.1598  -42.5706 H         1 UNK         0.0600 
    166 H166       -4.0839  -16.1653  -39.6765 H         1 UNK         0.0600 
    167 H167       -5.0988  -14.9098  -40.3888 H         1 UNK         0.0600 
    168 H168       -5.2309  -16.5686  -40.9485 H         1 UNK         0.0600 
    169 H169       -2.7286  -14.1515  -40.2521 H         1 UNK         0.3000 
    170 H170       -1.1962  -11.9854  -41.0907 H         1 UNK         0.0600 
    171 H171        0.0733  -14.3376  -39.5779 H         1 UNK         0.0600 
    172 H172        0.2699  -12.6450  -39.1364 H         1 UNK         0.0600 
    173 H173       -1.3138  -13.3834  -39.0541 H         1 UNK         0.0600 
    174 H174        1.3924  -13.3785  -41.4755 H         1 UNK         0.3000 
    175 H175        2.3703  -11.2009  -44.1155 H         1 UNK         0.0600 
    176 H176        4.2908  -10.9676  -42.5917 H         1 UNK         0.0600 
    177 H177        2.8945  -10.1235  -41.9394 H         1 UNK         0.0600 
    178 H178        3.3728  -11.6745  -41.2636 H         1 UNK         0.0600 
    179 H179        3.3216  -13.0746  -44.5855 H         1 UNK         0.3000 
    180 H180        4.6863  -15.7720  -42.8791 H         1 UNK         0.0600 
    181 H181        3.6568  -17.2577  -44.5669 H         1 UNK         0.0600 
    182 H182        2.4615  -16.8146  -43.3643 H         1 UNK         0.0600 
    183 H183        2.4405  -16.0409  -44.9436 H         1 UNK         0.0600 
    184 H184        4.5455  -15.0852  -45.6640 H         1 UNK         0.3000 
    185 H185        6.8915  -12.5161  -45.7313 H         1 UNK         0.0600 
    186 H186        8.3121  -13.9631  -47.1550 H         1 UNK         0.0600 
    187 H187        8.5121  -14.4059  -45.4683 H         1 UNK         0.0600 
    188 H188        7.5246  -15.4101  -46.5228 H         1 UNK         0.0600 
    189 H189        5.9481  -14.0242  -47.8838 H         1 UNK         0.3000 
    190 H190       -1.4798  -20.7558  -47.7689 H         1 UNK         0.3000 
    191 H191       -1.2159  -21.9203  -50.3544 H         1 UNK         0.0600 
    192 H192       -3.0346  -20.4406  -50.9630 H         1 UNK         0.0600 
    193 H193       -2.0334  -19.5624  -49.8202 H         1 UNK         0.0600 
    194 H194       -3.5601  -20.2552  -49.3001 H         1 UNK         0.0600 
    195 H195       -3.7219  -22.2612  -47.8210 H         1 UNK         0.3000 
    196 H196       -5.3302  -24.1999  -49.1155 H         1 UNK         0.0600 
    197 H197       -6.2677  -24.5532  -46.8321 H         1 UNK         0.0600 
    198 H198       -6.0905  -22.8409  -47.1828 H         1 UNK         0.0600 
    199 H199       -4.9342  -23.6455  -46.1277 H         1 UNK         0.0600 
    200 H200       -2.4983  -24.5713  -46.9764 H         1 UNK         0.3000 
    201 H201       -2.5544  -27.4405  -46.8442 H         1 UNK         0.0600 
    202 H202       -1.5721  -26.0192  -45.0658 H         1 UNK         0.0600 
    203 H203       -0.3333  -25.4476  -46.1829 H         1 UNK         0.0600 
    204 H204       -0.3783  -27.1389  -45.6988 H         1 UNK         0.0600 
    205 H205       -2.8776  -27.1014  -49.3948 H         1 UNK         0.3000 
    206 H206       -2.3939  -27.9681  -51.3461 H         1 UNK         0.0600 
    207 H207       -1.7091  -29.9255  -49.9609 H         1 UNK         0.0600 
    208 H208       -0.8280  -29.8628  -51.4764 H         1 UNK         0.0600 
    209 H209       -0.0363  -29.3676  -49.9887 H         1 UNK         0.0600 
    210 H210       -0.3406  -25.5677  -50.2891 H         1 UNK         0.3000 
    211 H211        1.5981  -25.6017  -52.4257 H         1 UNK         0.0600 
    212 H212        0.6243  -23.1919  -50.8185 H         1 UNK         0.0600 
    213 H213        2.1141  -23.3208  -51.7333 H         1 UNK         0.0600 
    214 H214        1.8919  -24.2971  -50.2884 H         1 UNK         0.0600 
    215 H215       -1.6102  -24.1255  -52.0008 H         1 UNK         0.3000 
    216 H216       -1.8609  -23.8344  -54.9722 H         1 UNK         0.0600 
    217 H217       -3.1620  -22.1265  -52.7825 H         1 UNK         0.0600 
    218 H218       -3.4708  -22.0008  -54.5112 H         1 UNK         0.0600 
    219 H219       -1.8836  -21.5934  -53.8763 H         1 UNK         0.0600 
    220 H220       -3.1381  -24.9870  -51.9226 H         1 UNK         0.3000 
    221 H221       -4.6271  -26.4759  -51.3138 H         1 UNK         0.0600 
    222 H222       -5.3127  -27.1217  -54.2238 H         1 UNK         0.0600 
    223 H223       -4.0135  -27.8888  -53.3114 H         1 UNK         0.0600 
    224 H224       -5.6829  -28.0847  -52.8035 H         1 UNK         0.0600 
    225 H225       -5.1265  -23.6149  -51.8531 H         1 UNK         0.3000 
    226 H226       -7.9272  -23.5669  -51.1543 H         1 UNK         0.0600 
    227 H227       -8.5020  -21.8694  -52.9360 H         1 UNK         0.0600 
    228 H228       -6.9397  -22.1446  -53.7021 H         1 UNK         0.0600 
    229 H229       -8.1378  -23.4345  -53.6458 H         1 UNK         0.0600 
    230 H230       -8.1882  -21.9120  -49.7053 H         1 UNK         0.3000 
    231 H231       -5.9168  -20.7085  -48.5625 H         1 UNK         0.0600 
    232 H232       -7.6017  -19.6092  -47.0740 H         1 UNK         0.0600 
    233 H233       -7.9756  -21.3074  -47.2992 H         1 UNK         0.0600 
    234 H234       -8.8929  -20.0791  -48.1700 H         1 UNK         0.0600 
    235 H235       -8.0239  -19.5120  -51.0659 H         1 UNK         0.3000 
    236 H236       -7.1287  -16.7121  -50.8598 H         1 UNK         0.0600 
    237 H237       -8.7424  -16.3848  -52.7155 H         1 UNK         0.0600 
    238 H238       -8.9824  -18.1223  -52.8546 H         1 UNK         0.0600 
    239 H239       -9.5036  -17.2658  -51.4036 H         1 UNK         0.0600 
    240 H240       -5.5807  -19.4062  -51.9483 H         1 UNK         0.3000 
    241 H241       -3.9528  -19.8917  -53.2978 H         1 UNK         0.0600 
    242 H242       -6.6673  -19.8960  -56.0847 H         1 UNK         0.3800 
    243 H243       -6.9304  -19.5377  -54.3989 H         1 UNK         0.3800 
    244 H244       -3.6956  -16.9547  -54.0906 H         1 UNK         0.0800 
    245 H245       -2.5912  -18.1984  -54.5694 H         1 UNK         0.0800 
    246 H246       -0.9817  -19.6083  -52.7086 H         1 UNK         0.0800 
    247 H247       -0.4470  -18.2293  -53.6413 H         1 UNK         0.0800 
@<TRIPOS>BOND
     1    1    2 1    
     2    1  127 1    
     3    1  128 1    
     4    1  129 1    
     5    2    3 2    
     6    2    4 am   BACKBONE|DICT|INTERRES
     7    4    5 1    
     8    4  130 1    
     9    5    6 1    
    10    5   65 1    
    11    5  131 1    
    12    6    7 1    
    13    6  132 1    
    14    6  133 1    
    15    7    8 1    
    16    8    9 1    
    17    8  134 1    
    18    8  135 1    
    19    9   10 ar   
    20    9   14 ar   
    21   10   11 ar   
    22   10  136 1    
    23   11   12 ar   
    24   11  126 1    
    25   12   13 ar   
    26   12  137 1    
    27   13   14 ar   
    28   13   15 1    
    29   14  138 1    
    30   15   16 1    
    31   15  139 1    
    32   15  140 1    
    33   16   17 1    
    34   17   18 1    
    35   17  141 1    
    36   17  142 1    
    37   18   19 1    
    38   18   67 1    
    39   18  143 1    
    40   19   20 am   BACKBONE|DICT|INTERRES
    41   19  144 1    
    42   20   21 2    
    43   20   22 1    
    44   22   23 1    
    45   22   24 1    
    46   22  145 1    
    47   23  146 1    
    48   23  147 1    
    49   23  148 1    
    50   24   25 am   BACKBONE|DICT|INTERRES
    51   24  149 1    
    52   25   26 2    
    53   25   27 1    
    54   27   28 1    
    55   27   29 1    
    56   27  150 1    
    57   28  151 1    
    58   28  152 1    
    59   28  153 1    
    60   29   30 am   BACKBONE|DICT|INTERRES
    61   29  154 1    
    62   30   31 2    
    63   30   32 1    
    64   32   33 1    
    65   32   34 1    
    66   32  155 1    
    67   33  156 1    
    68   33  157 1    
    69   33  158 1    
    70   34   35 am   BACKBONE|DICT|INTERRES
    71   34  159 1    
    72   35   36 2    
    73   35   37 1    
    74   37   38 1    
    75   37   39 1    
    76   37  160 1    
    77   38  161 1    
    78   38  162 1    
    79   38  163 1    
    80   39   40 am   BACKBONE|DICT|INTERRES
    81   39  164 1    
    82   40   41 2    
    83   40   42 1    
    84   42   43 1    
    85   42   44 1    
    86   42  165 1    
    87   43  166 1    
    88   43  167 1    
    89   43  168 1    
    90   44   45 am   BACKBONE|DICT|INTERRES
    91   44  169 1    
    92   45   46 2    
    93   45   47 1    
    94   47   48 1    
    95   47   49 1    
    96   47  170 1    
    97   48  171 1    
    98   48  172 1    
    99   48  173 1    
   100   49   50 am   BACKBONE|DICT|INTERRES
   101   49  174 1    
   102   50   51 2    
   103   50   52 1    
   104   52   53 1    
   105   52   54 1    
   106   52  175 1    
   107   53  176 1    
   108   53  177 1    
   109   53  178 1    
   110   54   55 am   BACKBONE|DICT|INTERRES
   111   54  179 1    
   112   55   56 2    
   113   55   57 1    
   114   57   58 1    
   115   57   59 1    
   116   57  180 1    
   117   58  181 1    
   118   58  182 1    
   119   58  183 1    
   120   59   60 am   BACKBONE|DICT|INTERRES
   121   59  184 1    
   122   60   61 2    
   123   60   62 1    
   124   62   63 1    
   125   62   64 1    
   126   62  185 1    
   127   63  186 1    
   128   63  187 1    
   129   63  188 1    
   130   64   65 am   BACKBONE|DICT|INTERRES
   131   64  189 1    
   132   65   66 2    
   133   67   68 2    
   134   67   69 am   BACKBONE|DICT|INTERRES
   135   69   70 1    
   136   69  190 1    
   137   70   71 1    
   138   70   72 1    
   139   70  191 1    
   140   71  192 1    
   141   71  193 1    
   142   71  194 1    
   143   72   73 2    
   144   72   74 am   BACKBONE|DICT|INTERRES
   145   74   75 1    
   146   74  195 1    
   147   75   76 1    
   148   75   77 1    
   149   75  196 1    
   150   76  197 1    
   151   76  198 1    
   152   76  199 1    
   153   77   78 2    
   154   77   79 am   BACKBONE|DICT|INTERRES
   155   79   80 1    
   156   79  200 1    
   157   80   81 1    
   158   80   82 1    
   159   80  201 1    
   160   81  202 1    
   161   81  203 1    
   162   81  204 1    
   163   82   83 2    
   164   82   84 am   BACKBONE|DICT|INTERRES
   165   84   85 1    
   166   84  205 1    
   167   85   86 1    
   168   85   87 1    
   169   85  206 1    
   170   86  207 1    
   171   86  208 1    
   172   86  209 1    
   173   87   88 2    
   174   87   89 am   BACKBONE|DICT|INTERRES
   175   89   90 1    
   176   89  210 1    
   177   90   91 1    
   178   90   92 1    
   179   90  211 1    
   180   91  212 1    
   181   91  213 1    
   182   91  214 1    
   183   92   93 2    
   184   92   94 am   BACKBONE|DICT|INTERRES
   185   94   95 1    
   186   94  215 1    
   187   95   96 1    
   188   95   97 1    
   189   95  216 1    
   190   96  217 1    
   191   96  218 1    
   192   96  219 1    
   193   97   98 2    
   194   97   99 am   BACKBONE|DICT|INTERRES
   195   99  100 1    
   196   99  220 1    
   197  100  101 1    
   198  100  102 1    
   199  100  221 1    
   200  101  222 1    
   201  101  223 1    
   202  101  224 1    
   203  102  103 2    
   204  102  104 am   BACKBONE|DICT|INTERRES
   205  104  105 1    
   206  104  225 1    
   207  105  106 1    
   208  105  107 1    
   209  105  226 1    
   210  106  227 1    
   211  106  228 1    
   212  106  229 1    
   213  107  108 2    
   214  107  109 am   BACKBONE|DICT|INTERRES
   215  109  110 1    
   216  109  230 1    
   217  110  111 1    
   218  110  112 1    
   219  110  231 1    
   220  111  232 1    
   221  111  233 1    
   222  111  234 1    
   223  112  113 2    
   224  112  114 am   BACKBONE|DICT|INTERRES
   225  114  115 1    
   226  114  235 1    
   227  115  116 1    
   228  115  117 1    
   229  115  236 1    
   230  116  237 1    
   231  116  238 1    
   232  116  239 1    
   233  117  118 2    
   234  117  119 am   BACKBONE|DICT|INTERRES
   235  119  120 1    
   236  119  240 1    
   237  120  121 1    
   238  120  124 1    
   239  120  241 1    
   240  121  122 am   BACKBONE|DICT|INTERRES
   241  121  123 2    
   242  122  242 1    
   243  122  243 1    
   244  124  125 1    
   245  124  244 1    
   246  124  245 1    
   247  125  126 1    
   248  126  246 1    
   249  126  247 1    
@<TRIPOS>SUBSTRUCTURE
     1 UNK         1 GROUP             0       ****    0 ROOT    
