@<TRIPOS>MOLECULE
3R540
247   249    1
SMALL
USER_CHARGES


@<TRIPOS>ATOM
      1 CA          0.9129   -8.7046  -48.8126 C.3       0 UNK        -0.1800 
      2 C           1.3121   -9.8861  -47.9409 C.2       0 UNK         0.5000 
      3 O           2.1893   -9.7506  -47.0883 O.2       0 UNK        -0.5000 
      4 N           0.6603  -11.0408  -48.1368 N.am      1 UNK        -0.5000 
      5 CA          0.9299  -12.3098  -47.4394 C.3       1 UNK         0.1400 
      6 C6          0.1243  -13.4919  -48.0382 C.3       23 UNK        -0.0398 
      7 S7          0.3391  -13.6494  -49.8462 S.3       23 UNK        -0.2404 
      8 C8          1.6208  -14.9356  -49.9847 C.3       23 UNK        -0.0205 
      9 C9          1.0580  -16.2331  -50.5467 C.ar      23 UNK        -0.0193 
     10 C10         0.8327  -16.3553  -51.9220 C.ar      23 UNK        -0.1150 
     11 C11         0.3513  -17.5518  -52.4624 C.ar      23 UNK        -0.0193 
     12 C12         0.0987  -18.6331  -51.6147 C.ar      23 UNK        -0.1150 
     13 C13         0.3095  -18.5210  -50.2386 C.ar      23 UNK        -0.0193 
     14 C14         0.7882  -17.3185  -49.7072 C.ar      23 UNK        -0.1150 
     15 C15         0.0162  -19.7021  -49.3320 C.3       23 UNK        -0.0205 
     16 S16         1.4558  -20.8152  -49.2119 S.3       23 UNK        -0.2404 
     17 C17         1.5625  -21.0622  -47.4048 C.3       23 UNK        -0.0398 
     18 CA          0.8382  -22.3043  -46.8188 C.3       11 UNK         0.1400 
     19 N           0.7991  -22.2266  -45.3580 N.am      11 UNK        -0.5000 
     20 C           0.3621  -23.1798  -44.5254 C.2       10 UNK         0.5000 
     21 O          -0.0051  -24.2966  -44.8902 O.2       10 UNK        -0.5000 
     22 CA          0.2674  -22.7902  -43.0381 C.3       10 UNK         0.1400 
     23 CB          1.6430  -22.8646  -42.3593 C.3       10 UNK        -0.1800 
     24 N          -0.3040  -21.4540  -42.8477 N.am      10 UNK        -0.5000 
     25 C          -1.5571  -21.1165  -43.1873 C.2       9 UNK         0.5000 
     26 O          -2.3751  -21.9092  -43.6534 O.2       9 UNK        -0.5000 
     27 CA         -1.9520  -19.6387  -43.0217 C.3       9 UNK         0.1400 
     28 CB         -2.2829  -19.3245  -41.5553 C.3       9 UNK        -0.1800 
     29 N          -0.9208  -18.7206  -43.5066 N.am      9 UNK        -0.5000 
     30 C          -0.5207  -18.6321  -44.7830 C.2       8 UNK         0.5000 
     31 O          -1.0116  -19.2886  -45.6986 O.2       8 UNK        -0.5000 
     32 CA          0.6635  -17.6985  -45.0869 C.3       8 UNK         0.1400 
     33 CB          0.1997  -16.2420  -45.2048 C.3       8 UNK        -0.1800 
     34 N           1.7304  -17.8029  -44.0933 N.am      8 UNK        -0.5000 
     35 C           2.4325  -18.9159  -43.8377 C.2       7 UNK         0.5000 
     36 O           2.2857  -19.9744  -44.4467 O.2       7 UNK        -0.5000 
     37 CA          3.4290  -18.8503  -42.6705 C.3       7 UNK         0.1400 
     38 CB          4.7574  -18.2209  -43.1156 C.3       7 UNK        -0.1800 
     39 N           2.8786  -18.1039  -41.5405 N.am      7 UNK        -0.5000 
     40 C           1.9001  -18.5568  -40.7449 C.2       6 UNK         0.5000 
     41 O           1.3897  -19.6728  -40.8549 O.2       6 UNK        -0.5000 
     42 CA          1.3815  -17.5800  -39.6727 C.3       6 UNK         0.1400 
     43 CB          2.3008  -17.5851  -38.4422 C.3       6 UNK        -0.1800 
     44 N           1.2449  -16.2096  -40.1733 N.am      6 UNK        -0.5000 
     45 C           0.3519  -15.8373  -41.1006 C.2       5 UNK         0.5000 
     46 O          -0.4552  -16.6093  -41.6151 O.2       5 UNK        -0.5000 
     47 CA          0.3769  -14.3663  -41.5565 C.3       5 UNK         0.1400 
     48 CB         -0.4724  -13.5067  -40.6081 C.3       5 UNK        -0.1800 
     49 N           1.7111  -13.7714  -41.6930 N.am      5 UNK        -0.5000 
     50 C           2.7352  -14.2791  -42.3963 C.2       4 UNK         0.5000 
     51 O           2.7197  -15.3921  -42.9225 O.2       4 UNK        -0.5000 
     52 CA          3.9571  -13.3623  -42.5638 C.3       4 UNK         0.1400 
     53 CB          5.0478  -13.9622  -43.4698 C.3       4 UNK        -0.1800 
     54 N           3.4996  -12.0982  -43.1287 N.am      4 UNK        -0.5000 
     55 C           3.8625  -10.8776  -42.7148 C.2       3 UNK         0.5000 
     56 O           4.7086  -10.6764  -41.8428 O.2       3 UNK        -0.5000 
     57 CA          3.1482   -9.6725  -43.3657 C.3       3 UNK         0.1400 
     58 CB          4.0478   -9.0290  -44.4313 C.3       3 UNK        -0.1800 
     59 N           1.8576  -10.0175  -43.9703 N.am      3 UNK        -0.5000 
     60 C           0.7832  -10.4343  -43.2814 C.2       2 UNK         0.5000 
     61 O           0.7413  -10.4565  -42.0513 O.2       2 UNK        -0.5000 
     62 CA         -0.4333  -10.9522  -44.0792 C.3       2 UNK         0.1400 
     63 CB         -1.5787   -9.9296  -44.0367 C.3       2 UNK        -0.1800 
     64 N          -0.1504  -11.2848  -45.4779 N.am      2 UNK        -0.5000 
     65 C           0.7106  -12.2180  -45.9116 C.2       1 UNK         0.5000 
     66 O           1.3580  -12.9437  -45.1576 O.2       1 UNK        -0.5000 
     67 C          -0.5727  -22.5385  -47.4025 C.2       11 UNK         0.5000 
     68 O          -0.7506  -23.4601  -48.1975 O.2       11 UNK        -0.5000 
     69 N          -1.5552  -21.7328  -46.9750 N.am      12 UNK        -0.5000 
     70 CA         -2.9511  -21.8338  -47.4002 C.3       12 UNK         0.1400 
     71 CB         -3.7519  -20.6444  -46.8514 C.3       12 UNK        -0.1800 
     72 C          -3.6062  -23.1682  -47.0047 C.2       12 UNK         0.5000 
     73 O          -4.3432  -23.7336  -47.8099 O.2       12 UNK        -0.5000 
     74 N          -3.2950  -23.6660  -45.7991 N.am      13 UNK        -0.5000 
     75 CA         -3.7220  -24.9766  -45.3096 C.3       13 UNK         0.1400 
     76 CB         -3.3798  -25.1123  -43.8183 C.3       13 UNK        -0.1800 
     77 C          -3.1162  -26.1346  -46.1236 C.2       13 UNK         0.5000 
     78 O          -3.8426  -27.0582  -46.4918 O.2       13 UNK        -0.5000 
     79 N          -1.8135  -26.0483  -46.4320 N.am      14 UNK        -0.5000 
     80 CA         -1.0962  -27.0018  -47.2847 C.3       14 UNK         0.1400 
     81 CB          0.4102  -26.7056  -47.2333 C.3       14 UNK        -0.1800 
     82 C          -1.6064  -27.0066  -48.7398 C.2       14 UNK         0.5000 
     83 O          -1.6749  -28.0683  -49.3593 O.2       14 UNK        -0.5000 
     84 N          -1.9995  -25.8276  -49.2384 N.am      15 UNK        -0.5000 
     85 CA         -2.6307  -25.6148  -50.5419 C.3       15 UNK         0.1400 
     86 CB         -2.3891  -24.1593  -50.9734 C.3       15 UNK        -0.1800 
     87 C          -4.1375  -25.9581  -50.5687 C.2       15 UNK         0.5000 
     88 O          -4.7712  -25.7622  -51.6077 O.2       15 UNK        -0.5000 
     89 N          -4.6855  -26.4528  -49.4476 N.am      16 UNK        -0.5000 
     90 CA         -6.0672  -26.8785  -49.2155 C.3       16 UNK         0.1400 
     91 CB         -6.4015  -28.1369  -50.0454 C.3       16 UNK        -0.1800 
     92 C          -7.0796  -25.7342  -49.4094 C.2       16 UNK         0.5000 
     93 O          -7.4073  -25.0415  -48.4454 O.2       16 UNK        -0.5000 
     94 N          -7.5628  -25.5627  -50.6457 N.am      17 UNK        -0.5000 
     95 CA         -8.4598  -24.4804  -51.0467 C.3       17 UNK         0.1400 
     96 CB         -9.1754  -24.8863  -52.3445 C.3       17 UNK        -0.1800 
     97 C          -7.7287  -23.1375  -51.2370 C.2       17 UNK         0.5000 
     98 O          -8.3748  -22.0922  -51.1492 O.2       17 UNK        -0.5000 
     99 N          -6.4130  -23.1898  -51.5039 N.am      18 UNK        -0.5000 
    100 CA        -5.5400  -22.0618  -51.8427 C.3       18 UNK         0.1400 
    101 CB        -5.3394  -21.1373  -50.6212 C.3       18 UNK        -0.1800 
    102 C         -6.0240  -21.3459  -53.1241 C.2       18 UNK         0.5000 
    103 O         -6.3549  -22.0346  -54.0921 O.2       18 UNK        -0.5000 
    104 N         -6.0547  -20.0038  -53.1160 N.am      19 UNK        -0.5000 
    105 CA        -6.5841  -19.1105  -54.1552 C.3       19 UNK         0.1400 
    106 CB        -8.1279  -19.1607  -54.1553 C.3       19 UNK        -0.1800 
    107 C         -5.9664  -19.3702  -55.5448 C.2       19 UNK         0.5000 
    108 O         -4.8677  -18.8872  -55.8203 O.2       19 UNK        -0.5000 
    109 N         -6.6585  -20.1643  -56.3749 N.am      20 UNK        -0.5000 
    110 CA        -6.2250  -20.6270  -57.6961 C.3       20 UNK         0.1400 
    111 CB        -7.3503  -21.4632  -58.3233 C.3       20 UNK        -0.1800 
    112 C         -4.9033  -21.4228  -57.6861 C.2       20 UNK         0.5000 
    113 O         -4.2230  -21.4679  -58.7123 O.2       20 UNK        -0.5000 
    114 N         -4.5292  -21.9840  -56.5250 N.am      21 UNK        -0.5000 
    115 CA        -3.2356  -22.6244  -56.2644 C.3       21 UNK         0.1400 
    116 CB        -3.2209  -23.1634  -54.8262 C.3       21 UNK        -0.1800 
    117 C         -2.0169  -21.7038  -56.4967 C.2       21 UNK         0.5000 
    118 O         -0.9276  -22.2114  -56.7664 O.2       21 UNK        -0.5000 
    119 N         -2.2182  -20.3802  -56.4184 N.am      22 UNK        -0.5000 
    120 CA        -1.2269  -19.3619  -56.8003 C.3       22 UNK         0.1400 
    121 C         -0.9948  -19.2330  -58.3372 C.2       22 UNK         0.5000 
    122 N         -1.7963  -19.8472  -59.2006 N.am      22 UNK        -0.7600 
    123 O         -0.0555  -18.5630  -58.7577 O.2       22 UNK        -0.5000 
    124 C124       -1.5494  -17.9752  -56.1857 C.3       23 UNK        -0.0398 
    125 S125       -1.6221  -17.9881  -54.3630 S.3       23 UNK        -0.2404 
    126 C126        0.1283  -17.6877  -53.9612 C.3       23 UNK        -0.0205 
    127 H127        1.7723   -8.3538  -49.3838 H         1 UNK         0.0600 
    128 H128        0.1218   -8.9680  -49.5151 H         1 UNK         0.0600 
    129 H129        0.5571   -7.8834  -48.1906 H         1 UNK         0.0600 
    130 H130       -0.0411  -11.0917  -48.8625 H         1 UNK         0.3000 
    131 H131        1.9902  -12.5276  -47.5846 H         1 UNK         0.0600 
    132 H132       -0.9415  -13.3617  -47.8425 H         1 UNK         0.0800 
    133 H133        0.4041  -14.4320  -47.5616 H         1 UNK         0.0800 
    134 H134        2.1036  -15.1078  -49.0217 H         1 UNK         0.0800 
    135 H135        2.4063  -14.5706  -50.6481 H         1 UNK         0.0800 
    136 H136        1.0401  -15.5161  -52.5712 H         1 UNK         0.1150 
    137 H137       -0.2662  -19.5630  -52.0285 H         1 UNK         0.1150 
    138 H138        0.9596  -17.2321  -48.6434 H         1 UNK         0.1150 
    139 H139       -0.2907  -19.3378  -48.3513 H         1 UNK         0.0800 
    140 H140       -0.8344  -20.2671  -49.7167 H         1 UNK         0.0800 
    141 H141        1.2083  -20.1570  -46.9166 H         1 UNK         0.0800 
    142 H142        2.6209  -21.1201  -47.1473 H         1 UNK         0.0800 
    143 H143        1.4329  -23.1828  -47.0772 H         1 UNK         0.0600 
    144 H144        1.1339  -21.3559  -44.9527 H         1 UNK         0.3000 
    145 H145       -0.3924  -23.5092  -42.5481 H         1 UNK         0.0600 
    146 H146        1.5673  -22.6518  -41.2927 H         1 UNK         0.0600 
    147 H147        2.0758  -23.8603  -42.4633 H         1 UNK         0.0600 
    148 H148        2.3472  -22.1533  -42.7912 H         1 UNK         0.0600 
    149 H149        0.3020  -20.7489  -42.4449 H         1 UNK         0.3000 
    150 H150       -2.8530  -19.4692  -43.6147 H         1 UNK         0.0600 
    151 H151       -3.0458  -20.0031  -41.1718 H         1 UNK         0.0600 
    152 H152       -2.6676  -18.3102  -41.4482 H         1 UNK         0.0600 
    153 H153       -1.4056  -19.4181  -40.9145 H         1 UNK         0.0600 
    154 H154       -0.5124  -18.0939  -42.8185 H         1 UNK         0.3000 
    155 H155        1.0839  -17.9906  -46.0505 H         1 UNK         0.0600 
    156 H156       -0.2525  -15.8862  -44.2803 H         1 UNK         0.0600 
    157 H157       -0.5431  -16.1327  -45.9957 H         1 UNK         0.0600 
    158 H158        1.0361  -15.5857  -45.4433 H         1 UNK         0.0600 
    159 H159        1.9575  -16.9588  -43.5722 H         1 UNK         0.3000 
    160 H160        3.6315  -19.8722  -42.3426 H         1 UNK         0.0600 
    161 H161        5.4740  -18.1883  -42.2949 H         1 UNK         0.0600 
    162 H162        4.6217  -17.2042  -43.4842 H         1 UNK         0.0600 
    163 H163        5.2103  -18.8013  -43.9203 H         1 UNK         0.0600 
    164 H164        3.1800  -17.1446  -41.4429 H         1 UNK         0.3000 
    165 H165        0.3941  -17.9267  -39.3600 H         1 UNK         0.0600 
    166 H166        1.8966  -16.9598  -37.6459 H         1 UNK         0.0600 
    167 H167        2.4075  -18.5934  -38.0397 H         1 UNK         0.0600 
    168 H168        3.3000  -17.2198  -38.6823 H         1 UNK         0.0600 
    169 H169        1.8780  -15.5159  -39.8036 H         1 UNK         0.3000 
    170 H170       -0.0851  -14.3267  -42.5441 H         1 UNK         0.0600 
    171 H171       -1.4689  -13.9319  -40.4799 H         1 UNK         0.0600 
    172 H172       -0.0184  -13.4300  -39.6195 H         1 UNK         0.0600 
    173 H173       -0.6043  -12.4976  -40.9961 H         1 UNK         0.0600 
    174 H174        1.8160  -12.8394  -41.3169 H         1 UNK         0.3000 
    175 H175        4.3772  -13.2082  -41.5679 H         1 UNK         0.0600 
    176 H176        4.6668  -14.1742  -44.4697 H         1 UNK         0.0600 
    177 H177        5.8933  -13.2817  -43.5709 H         1 UNK         0.0600 
    178 H178        5.4303  -14.8953  -43.0553 H         1 UNK         0.0600 
    179 H179        2.7766  -12.1830  -43.8370 H         1 UNK         0.3000 
    180 H180        2.9665   -8.9352  -42.5812 H         1 UNK         0.0600 
    181 H181        4.2755   -9.7270  -45.2379 H         1 UNK         0.0600 
    182 H182        4.9959   -8.7056  -43.9997 H         1 UNK         0.0600 
    183 H183        3.5743   -8.1512  -44.8713 H         1 UNK         0.0600 
    184 H184        1.8226  -10.0169  -44.9837 H         1 UNK         0.3000 
    185 H185       -0.7715  -11.8664  -43.5873 H         1 UNK         0.0600 
    186 H186       -1.8450   -9.6817  -43.0082 H         1 UNK         0.0600 
    187 H187       -1.3057   -9.0003  -44.5384 H         1 UNK         0.0600 
    188 H188       -2.4760  -10.3208  -44.5166 H         1 UNK         0.0600 
    189 H189       -0.6150  -10.7192  -46.1733 H         1 UNK         0.3000 
    190 H190       -1.3303  -20.9641  -46.3466 H         1 UNK         0.3000 
    191 H191       -2.9617  -21.7714  -48.4897 H         1 UNK         0.0600 
    192 H192       -3.7403  -20.6209  -45.7615 H         1 UNK         0.0600 
    193 H193       -4.7939  -20.6947  -47.1697 H         1 UNK         0.0600 
    194 H194       -3.3474  -19.6983  -47.2114 H         1 UNK         0.0600 
    195 H195       -2.7275  -23.1057  -45.1697 H         1 UNK         0.3000 
    196 H196       -4.8077  -25.0322  -45.4129 H         1 UNK         0.0600 
    197 H197       -3.7074  -26.0768  -43.4286 H         1 UNK         0.0600 
    198 H198       -3.8733  -24.3387  -43.2299 H         1 UNK         0.0600 
    199 H199       -2.3073  -25.0328  -43.6401 H         1 UNK         0.0600 
    200 H200       -1.2705  -25.2748  -46.0588 H         1 UNK         0.3000 
    201 H201       -1.2585  -28.0010  -46.8755 H         1 UNK         0.0600 
    202 H202        0.7899  -26.7729  -46.2137 H         1 UNK         0.0600 
    203 H203        0.6387  -25.7081  -47.6089 H         1 UNK         0.0600 
    204 H204        0.9698  -27.4206  -47.8375 H         1 UNK         0.0600 
    205 H205       -1.8295  -24.9932  -48.6832 H         1 UNK         0.3000 
    206 H206       -2.1429  -26.2650  -51.2706 H         1 UNK         0.0600 
    207 H207       -1.3279  -23.9106  -50.9522 H         1 UNK         0.0600 
    208 H208       -2.7366  -23.9926  -51.9927 H         1 UNK         0.0600 
    209 H209       -2.9107  -23.4570  -50.3228 H         1 UNK         0.0600 
    210 H210       -4.0901  -26.5113  -48.6312 H         1 UNK         0.3000 
    211 H211       -6.1232  -27.1620  -48.1634 H         1 UNK         0.0600 
    212 H212       -6.2813  -27.9773  -51.1170 H         1 UNK         0.0600 
    213 H213       -7.4302  -28.4559  -49.8730 H         1 UNK         0.0600 
    214 H214       -5.7550  -28.9682  -49.7639 H         1 UNK         0.0600 
    215 H215       -7.1986  -26.1499  -51.3830 H         1 UNK         0.3000 
    216 H216       -9.2145  -24.3417  -50.2696 H         1 UNK         0.0600 
    217 H217       -9.8785  -24.1144  -52.6603 H         1 UNK         0.0600 
    218 H218       -9.7430  -25.8074  -52.2115 H         1 UNK         0.0600 
    219 H219       -8.4692  -25.0401  -53.1617 H         1 UNK         0.0600 
    220 H220       -5.9841  -24.1068  -51.5749 H         1 UNK         0.3000 
    221 H221       -4.5719  -22.4955  -52.0875 H         1 UNK         0.0600 
    222 H222       -6.2474  -20.5906  -50.3648 H         1 UNK         0.0600 
    223 H223       -5.0505  -21.7164  -49.7445 H         1 UNK         0.0600 
    224 H224       -4.5467  -20.4099  -50.7995 H         1 UNK         0.0600 
    225 H225       -5.7247  -19.5377  -52.2830 H         1 UNK         0.3000 
    226 H226       -6.2893  -18.0978  -53.8760 H         1 UNK         0.0600 
    227 H227       -8.5254  -18.8162  -53.2005 H         1 UNK         0.0600 
    228 H228       -8.5435  -18.5131  -54.9285 H         1 UNK         0.0600 
    229 H229       -8.5111  -20.1681  -54.3217 H         1 UNK         0.0600 
    230 H230       -7.5226  -20.5566  -56.0299 H         1 UNK         0.3000 
    231 H231       -6.0650  -19.7434  -58.3169 H         1 UNK         0.0600 
    232 H232       -8.2675  -20.8820  -58.4208 H         1 UNK         0.0600 
    233 H233       -7.5736  -22.3476  -57.7251 H         1 UNK         0.0600 
    234 H234       -7.0752  -21.8033  -59.3227 H         1 UNK         0.0600 
    235 H235       -5.1685  -21.9194  -55.7390 H         1 UNK         0.3000 
    236 H236       -3.1458  -23.4689  -56.9505 H         1 UNK         0.0600 
    237 H237       -2.3125  -23.7357  -54.6339 H         1 UNK         0.0600 
    238 H238       -3.2542  -22.3516  -54.0995 H         1 UNK         0.0600 
    239 H239       -4.0672  -23.8244  -54.6368 H         1 UNK         0.0600 
    240 H240       -3.1401  -20.0305  -56.1816 H         1 UNK         0.3000 
    241 H241       -0.2666  -19.6790  -56.3897 H         1 UNK         0.0600 
    242 H242       -1.6189  -19.7503  -60.1878 H         1 UNK         0.3800 
    243 H243       -2.5803  -20.4129  -58.8914 H         1 UNK         0.3800 
    244 H244       -0.8143  -17.2305  -56.4961 H         1 UNK         0.0800 
    245 H245       -2.5105  -17.6167  -56.5578 H         1 UNK         0.0800 
    246 H246        0.7337  -18.5131  -54.3382 H         1 UNK         0.0800 
    247 H247        0.4675  -16.7896  -54.4797 H         1 UNK         0.0800 
@<TRIPOS>BOND
     1    1    2 1    
     2    1  127 1    
     3    1  128 1    
     4    1  129 1    
     5    2    3 2    
     6    2    4 am   BACKBONE|DICT|INTERRES
     7    4    5 1    
     8    4  130 1    
     9    5    6 1    
    10    5   65 1    
    11    5  131 1    
    12    6    7 1    
    13    6  132 1    
    14    6  133 1    
    15    7    8 1    
    16    8    9 1    
    17    8  134 1    
    18    8  135 1    
    19    9   10 ar   
    20    9   14 ar   
    21   10   11 ar   
    22   10  136 1    
    23   11   12 ar   
    24   11  126 1    
    25   12   13 ar   
    26   12  137 1    
    27   13   14 ar   
    28   13   15 1    
    29   14  138 1    
    30   15   16 1    
    31   15  139 1    
    32   15  140 1    
    33   16   17 1    
    34   17   18 1    
    35   17  141 1    
    36   17  142 1    
    37   18   19 1    
    38   18   67 1    
    39   18  143 1    
    40   19   20 am   BACKBONE|DICT|INTERRES
    41   19  144 1    
    42   20   21 2    
    43   20   22 1    
    44   22   23 1    
    45   22   24 1    
    46   22  145 1    
    47   23  146 1    
    48   23  147 1    
    49   23  148 1    
    50   24   25 am   BACKBONE|DICT|INTERRES
    51   24  149 1    
    52   25   26 2    
    53   25   27 1    
    54   27   28 1    
    55   27   29 1    
    56   27  150 1    
    57   28  151 1    
    58   28  152 1    
    59   28  153 1    
    60   29   30 am   BACKBONE|DICT|INTERRES
    61   29  154 1    
    62   30   31 2    
    63   30   32 1    
    64   32   33 1    
    65   32   34 1    
    66   32  155 1    
    67   33  156 1    
    68   33  157 1    
    69   33  158 1    
    70   34   35 am   BACKBONE|DICT|INTERRES
    71   34  159 1    
    72   35   36 2    
    73   35   37 1    
    74   37   38 1    
    75   37   39 1    
    76   37  160 1    
    77   38  161 1    
    78   38  162 1    
    79   38  163 1    
    80   39   40 am   BACKBONE|DICT|INTERRES
    81   39  164 1    
    82   40   41 2    
    83   40   42 1    
    84   42   43 1    
    85   42   44 1    
    86   42  165 1    
    87   43  166 1    
    88   43  167 1    
    89   43  168 1    
    90   44   45 am   BACKBONE|DICT|INTERRES
    91   44  169 1    
    92   45   46 2    
    93   45   47 1    
    94   47   48 1    
    95   47   49 1    
    96   47  170 1    
    97   48  171 1    
    98   48  172 1    
    99   48  173 1    
   100   49   50 am   BACKBONE|DICT|INTERRES
   101   49  174 1    
   102   50   51 2    
   103   50   52 1    
   104   52   53 1    
   105   52   54 1    
   106   52  175 1    
   107   53  176 1    
   108   53  177 1    
   109   53  178 1    
   110   54   55 am   BACKBONE|DICT|INTERRES
   111   54  179 1    
   112   55   56 2    
   113   55   57 1    
   114   57   58 1    
   115   57   59 1    
   116   57  180 1    
   117   58  181 1    
   118   58  182 1    
   119   58  183 1    
   120   59   60 am   BACKBONE|DICT|INTERRES
   121   59  184 1    
   122   60   61 2    
   123   60   62 1    
   124   62   63 1    
   125   62   64 1    
   126   62  185 1    
   127   63  186 1    
   128   63  187 1    
   129   63  188 1    
   130   64   65 am   BACKBONE|DICT|INTERRES
   131   64  189 1    
   132   65   66 2    
   133   67   68 2    
   134   67   69 am   BACKBONE|DICT|INTERRES
   135   69   70 1    
   136   69  190 1    
   137   70   71 1    
   138   70   72 1    
   139   70  191 1    
   140   71  192 1    
   141   71  193 1    
   142   71  194 1    
   143   72   73 2    
   144   72   74 am   BACKBONE|DICT|INTERRES
   145   74   75 1    
   146   74  195 1    
   147   75   76 1    
   148   75   77 1    
   149   75  196 1    
   150   76  197 1    
   151   76  198 1    
   152   76  199 1    
   153   77   78 2    
   154   77   79 am   BACKBONE|DICT|INTERRES
   155   79   80 1    
   156   79  200 1    
   157   80   81 1    
   158   80   82 1    
   159   80  201 1    
   160   81  202 1    
   161   81  203 1    
   162   81  204 1    
   163   82   83 2    
   164   82   84 am   BACKBONE|DICT|INTERRES
   165   84   85 1    
   166   84  205 1    
   167   85   86 1    
   168   85   87 1    
   169   85  206 1    
   170   86  207 1    
   171   86  208 1    
   172   86  209 1    
   173   87   88 2    
   174   87   89 am   BACKBONE|DICT|INTERRES
   175   89   90 1    
   176   89  210 1    
   177   90   91 1    
   178   90   92 1    
   179   90  211 1    
   180   91  212 1    
   181   91  213 1    
   182   91  214 1    
   183   92   93 2    
   184   92   94 am   BACKBONE|DICT|INTERRES
   185   94   95 1    
   186   94  215 1    
   187   95   96 1    
   188   95   97 1    
   189   95  216 1    
   190   96  217 1    
   191   96  218 1    
   192   96  219 1    
   193   97   98 2    
   194   97   99 am   BACKBONE|DICT|INTERRES
   195   99  100 1    
   196   99  220 1    
   197  100  101 1    
   198  100  102 1    
   199  100  221 1    
   200  101  222 1    
   201  101  223 1    
   202  101  224 1    
   203  102  103 2    
   204  102  104 am   BACKBONE|DICT|INTERRES
   205  104  105 1    
   206  104  225 1    
   207  105  106 1    
   208  105  107 1    
   209  105  226 1    
   210  106  227 1    
   211  106  228 1    
   212  106  229 1    
   213  107  108 2    
   214  107  109 am   BACKBONE|DICT|INTERRES
   215  109  110 1    
   216  109  230 1    
   217  110  111 1    
   218  110  112 1    
   219  110  231 1    
   220  111  232 1    
   221  111  233 1    
   222  111  234 1    
   223  112  113 2    
   224  112  114 am   BACKBONE|DICT|INTERRES
   225  114  115 1    
   226  114  235 1    
   227  115  116 1    
   228  115  117 1    
   229  115  236 1    
   230  116  237 1    
   231  116  238 1    
   232  116  239 1    
   233  117  118 2    
   234  117  119 am   BACKBONE|DICT|INTERRES
   235  119  120 1    
   236  119  240 1    
   237  120  121 1    
   238  120  124 1    
   239  120  241 1    
   240  121  122 am   BACKBONE|DICT|INTERRES
   241  121  123 2    
   242  122  242 1    
   243  122  243 1    
   244  124  125 1    
   245  124  244 1    
   246  124  245 1    
   247  125  126 1    
   248  126  246 1    
   249  126  247 1    
@<TRIPOS>SUBSTRUCTURE
     1 UNK         1 GROUP             0       ****    0 ROOT    
