@<TRIPOS>MOLECULE
3R540
247   249    1
SMALL
USER_CHARGES


@<TRIPOS>ATOM
      1 CA         -5.2463  -13.7660  -46.9320 C.3       0 UNK        -0.1800 
      2 C          -4.1383  -14.5006  -46.1824 C.2       0 UNK         0.5000 
      3 O          -4.3498  -14.9004  -45.0402 O.2       0 UNK        -0.5000 
      4 N          -2.9512  -14.7061  -46.7682 N.am      1 UNK        -0.5000 
      5 CA         -2.5422  -14.3001  -48.1235 C.3       1 UNK         0.1400 
      6 C6         -2.3087  -15.5203  -49.0570 C.3       23 UNK        -0.0398 
      7 S7         -3.7288  -16.6688  -49.1278 S.3       23 UNK        -0.2404 
      8 C8         -3.0386  -18.0870  -48.2239 C.3       23 UNK        -0.0205 
      9 C9         -4.1032  -19.1026  -47.8467 C.ar      23 UNK        -0.0193 
     10 C10        -4.5357  -20.0576  -48.7698 C.ar      23 UNK        -0.1150 
     11 C11        -5.4812  -21.0218  -48.4133 C.ar      23 UNK        -0.0193 
     12 C12        -5.9860  -21.0350  -47.1093 C.ar      23 UNK        -0.1150 
     13 C13        -5.5515  -20.0913  -46.1721 C.ar      23 UNK        -0.0193 
     14 C14        -4.6264  -19.1153  -46.5530 C.ar      23 UNK        -0.1150 
     15 C15        -6.0326  -20.1571  -44.7315 C.3       23 UNK        -0.0205 
     16 S16        -5.1676  -21.4621  -43.7957 S.3       23 UNK        -0.2404 
     17 C17        -3.4161  -20.9542  -43.9399 C.3       23 UNK        -0.0398 
     18 CA         -2.6745  -21.6483  -45.1123 C.3       11 UNK         0.1400 
     19 N          -1.4390  -20.9512  -45.4770 N.am      11 UNK        -0.5000 
     20 C          -0.7713  -21.1176  -46.6271 C.2       10 UNK         0.5000 
     21 O          -1.1686  -21.8219  -47.5530 O.2       10 UNK        -0.5000 
     22 CA          0.5892  -20.4117  -46.7677 C.3       10 UNK         0.1400 
     23 CB          0.4206  -19.0019  -47.3503 C.3       10 UNK        -0.1800 
     24 N           1.3293  -20.3401  -45.5090 N.am      10 UNK        -0.5000 
     25 C           1.8011  -21.4027  -44.8429 C.2       9 UNK         0.5000 
     26 O           1.6809  -22.5627  -45.2373 O.2       9 UNK        -0.5000 
     27 CA          2.4719  -21.1263  -43.4850 C.3       9 UNK         0.1400 
     28 CB          3.9145  -20.6325  -43.6698 C.3       9 UNK        -0.1800 
     29 N           1.7214  -20.1625  -42.6791 N.am      9 UNK        -0.5000 
     30 C           0.4924  -20.3814  -42.1899 C.2       8 UNK         0.5000 
     31 O          -0.1285  -21.4342  -42.3402 O.2       8 UNK        -0.5000 
     32 CA         -0.1776  -19.2038  -41.4595 C.3       8 UNK         0.1400 
     33 CB          0.3780  -19.0557  -40.0354 C.3       8 UNK        -0.1800 
     34 N          -0.0283  -17.9393  -42.1812 N.am      8 UNK        -0.5000 
     35 C          -0.5118  -17.7092  -43.4105 C.2       7 UNK         0.5000 
     36 O          -1.1785  -18.5222  -44.0462 O.2       7 UNK        -0.5000 
     37 CA         -0.1524  -16.3680  -44.0660 C.3       7 UNK         0.1400 
     38 CB         -1.0785  -15.2569  -43.5579 C.3       7 UNK        -0.1800 
     39 N           1.2399  -15.9870  -43.8460 N.am      7 UNK        -0.5000 
     40 C           2.3103  -16.6798  -44.2552 C.2       6 UNK         0.5000 
     41 O           2.2434  -17.7205  -44.9061 O.2       6 UNK        -0.5000 
     42 CA          3.6839  -16.1418  -43.8251 C.3       6 UNK         0.1400 
     43 CB          4.1684  -15.0345  -44.7729 C.3       6 UNK        -0.1800 
     44 N           3.6561  -15.6329  -42.4554 N.am      6 UNK        -0.5000 
     45 C           3.6322  -16.4053  -41.3620 C.2       5 UNK         0.5000 
     46 O           3.6711  -17.6363  -41.3925 O.2       5 UNK        -0.5000 
     47 CA          3.5217  -15.6749  -40.0099 C.3       5 UNK         0.1400 
     48 CB          4.9029  -15.1946  -39.5395 C.3       5 UNK        -0.1800 
     49 N           2.5986  -14.5366  -40.0435 N.am      5 UNK        -0.5000 
     50 C           1.2722  -14.6545  -40.1898 C.2       4 UNK         0.5000 
     51 O           0.6963  -15.7336  -40.3311 O.2       4 UNK        -0.5000 
     52 CA          0.4476  -13.3507  -40.2114 C.3       4 UNK         0.1400 
     53 CB          0.2492  -12.8210  -38.7828 C.3       4 UNK        -0.1800 
     54 N           0.9518  -12.2632  -41.0637 N.am      4 UNK        -0.5000 
     55 C           1.4005  -12.3764  -42.3211 C.2       3 UNK         0.5000 
     56 O           1.6746  -13.4485  -42.8599 O.2       3 UNK        -0.5000 
     57 CA          1.5838  -11.0729  -43.1234 C.3       3 UNK         0.1400 
     58 CB          2.9831  -10.4887  -42.8792 C.3       3 UNK        -0.1800 
     59 N           1.4168  -11.3195  -44.5596 N.am      3 UNK        -0.5000 
     60 C           0.2705  -11.7082  -45.1359 C.2       2 UNK         0.5000 
     61 O          -0.8218  -11.6839  -44.5609 O.2       2 UNK        -0.5000 
     62 CA          0.3599  -12.2469  -46.5771 C.3       2 UNK         0.1400 
     63 CB          1.5916  -13.1575  -46.7866 C.3       2 UNK        -0.1800 
     64 N          -0.8617  -12.9951  -46.8675 N.am      2 UNK        -0.5000 
     65 C          -1.2835  -13.4021  -48.0717 C.2       1 UNK         0.5000 
     66 O          -0.7073  -13.1098  -49.1203 O.2       1 UNK        -0.5000 
     67 C          -2.4216  -23.1418  -44.8324 C.2       11 UNK         0.5000 
     68 O          -3.1863  -23.9803  -45.3089 O.2       11 UNK        -0.5000 
     69 N          -1.3357  -23.4554  -44.1095 N.am      12 UNK        -0.5000 
     70 CA         -0.9017  -24.8256  -43.8224 C.3       12 UNK         0.1400 
     71 CB          0.2589  -24.8003  -42.8165 C.3       12 UNK        -0.1800 
     72 C          -0.5146  -25.6057  -45.0937 C.2       12 UNK         0.5000 
     73 O          -0.8610  -26.7811  -45.2172 O.2       12 UNK        -0.5000 
     74 N           0.1611  -24.9253  -46.0290 N.am      13 UNK        -0.5000 
     75 CA          0.4880  -25.4401  -47.3595 C.3       13 UNK         0.1400 
     76 CB          1.6037  -24.5699  -47.9594 C.3       13 UNK        -0.1800 
     77 C          -0.7229  -25.4750  -48.3150 C.2       13 UNK         0.5000 
     78 O          -0.6981  -26.2329  -49.2851 O.2       13 UNK        -0.5000 
     79 N          -1.7317  -24.6337  -48.0403 N.am      14 UNK        -0.5000 
     80 CA         -2.8928  -24.3037  -48.8743 C.3       14 UNK         0.1400 
     81 CB         -3.8589  -25.5005  -48.9789 C.3       14 UNK        -0.1800 
     82 C          -2.4603  -23.7402  -50.2442 C.2       14 UNK         0.5000 
     83 O          -2.9422  -24.1877  -51.2836 O.2       14 UNK        -0.5000 
     84 N          -1.5052  -22.8023  -50.2094 N.am      15 UNK        -0.5000 
     85 CA         -0.7779  -22.3074  -51.3762 C.3       15 UNK         0.1400 
     86 CB          0.5261  -21.6450  -50.9015 C.3       15 UNK        -0.1800 
     87 C          -1.5973  -21.3379  -52.2433 C.2       15 UNK         0.5000 
     88 O          -1.6061  -21.4798  -53.4667 O.2       15 UNK        -0.5000 
     89 N          -2.2336  -20.3529  -51.5901 N.am      16 UNK        -0.5000 
     90 CA         -3.0108  -19.2475  -52.1736 C.3       16 UNK         0.1400 
     91 CB         -4.3673  -19.7534  -52.6885 C.3       16 UNK        -0.1800 
     92 C          -2.2072  -18.4862  -53.2467 C.2       16 UNK         0.5000 
     93 O          -2.4356  -18.6590  -54.4483 O.2       16 UNK        -0.5000 
     94 N          -1.1994  -17.7425  -52.7650 N.am      17 UNK        -0.5000 
     95 CA         -0.1733  -17.0197  -53.5328 C.3       17 UNK         0.1400 
     96 CB         -0.8120  -15.9270  -54.4156 C.3       17 UNK        -0.1800 
     97 C           0.7676  -17.9475  -54.3350 C.2       17 UNK         0.5000 
     98 O           1.4649  -17.4781  -55.2352 O.2       17 UNK        -0.5000 
     99 N           0.7583  -19.2463  -53.9927 N.am      18 UNK        -0.5000 
    100 CA         1.4217  -20.3629  -54.6747 C.3       18 UNK         0.1400 
    101 CB         2.9537  -20.2647  -54.5231 C.3       18 UNK        -0.1800 
    102 C          0.9591  -20.5135  -56.1393 C.2       18 UNK         0.5000 
    103 O          1.7650  -20.8553  -57.0074 O.2       18 UNK        -0.5000 
    104 N         -0.3266  -20.2294  -56.3877 N.am      19 UNK        -0.5000 
    105 CA        -0.9096  -20.1668  -57.7232 C.3       19 UNK         0.1400 
    106 CB        -0.9222  -18.7072  -58.2107 C.3       19 UNK        -0.1800 
    107 C         -2.3146  -20.7774  -57.7531 C.2       19 UNK         0.5000 
    108 O         -2.5606  -21.6758  -58.5593 O.2       19 UNK        -0.5000 
    109 N         -3.2201  -20.2762  -56.9012 N.am      20 UNK        -0.5000 
    110 CA        -4.6362  -20.6506  -56.9399 C.3       20 UNK         0.1400 
    111 CB        -5.4794  -19.4973  -56.3753 C.3       20 UNK        -0.1800 
    112 C         -4.9465  -21.9703  -56.2114 C.2       20 UNK         0.5000 
    113 O         -5.9584  -22.6014  -56.5211 O.2       20 UNK        -0.5000 
    114 N         -4.1032  -22.3465  -55.2371 N.am      21 UNK        -0.5000 
    115 CA        -4.1942  -23.5413  -54.3842 C.3       21 UNK         0.1400 
    116 CB        -3.8809  -24.8018  -55.2155 C.3       21 UNK        -0.1800 
    117 C         -5.5163  -23.6812  -53.5869 C.2       21 UNK         0.5000 
    118 O         -5.8609  -24.7880  -53.1689 O.2       21 UNK        -0.5000 
    119 N         -6.2559  -22.5721  -53.4283 N.am      22 UNK        -0.5000 
    120 CA        -7.6539  -22.5190  -52.9609 C.3       22 UNK         0.1400 
    121 C         -8.6602  -23.3067  -53.8632 C.2       22 UNK         0.5000 
    122 N         -8.3624  -23.5404  -55.1370 N.am      22 UNK        -0.7600 
    123 O         -9.7436  -23.6835  -53.4238 O.2       22 UNK        -0.5000 
    124 C124       -7.8024  -22.8193  -51.4394 C.3       23 UNK        -0.0398 
    125 S125       -7.3270  -21.3840  -50.4175 S.3       23 UNK        -0.2404 
    126 C126       -5.9503  -22.0460  -49.4365 C.3       23 UNK        -0.0205 
    127 H127       -5.4868  -14.2763  -47.8647 H         1 UNK         0.0600 
    128 H128       -4.9491  -12.7408  -47.1530 H         1 UNK         0.0600 
    129 H129       -6.1552  -13.7279  -46.3311 H         1 UNK         0.0600 
    130 H130       -2.2498  -15.2126  -46.2504 H         1 UNK         0.3000 
    131 H131       -3.3085  -13.6803  -48.5886 H         1 UNK         0.0600 
    132 H132       -2.1185  -15.1810  -50.0769 H         1 UNK         0.0800 
    133 H133       -1.4138  -16.0675  -48.7550 H         1 UNK         0.0800 
    134 H134       -2.5342  -17.7329  -47.3233 H         1 UNK         0.0800 
    135 H135       -2.2776  -18.5663  -48.8388 H         1 UNK         0.0800 
    136 H136       -4.1428  -20.0501  -49.7706 H         1 UNK         0.1150 
    137 H137       -6.7025  -21.7897  -46.8168 H         1 UNK         0.1150 
    138 H138       -4.2832  -18.3874  -45.8308 H         1 UNK         0.1150 
    139 H139       -5.8904  -19.1974  -44.2318 H         1 UNK         0.0800 
    140 H140       -7.1050  -20.3562  -44.7133 H         1 UNK         0.0800 
    141 H141       -2.9115  -21.1471  -42.9917 H         1 UNK         0.0800 
    142 H142       -3.3917  -19.8723  -44.0660 H         1 UNK         0.0800 
    143 H143       -3.3163  -21.6077  -45.9929 H         1 UNK         0.0600 
    144 H144       -1.0897  -20.2717  -44.8073 H         1 UNK         0.3000 
    145 H145        1.1897  -20.9947  -47.4690 H         1 UNK         0.0600 
    146 H146        1.3848  -18.5082  -47.4723 H         1 UNK         0.0600 
    147 H147       -0.0458  -19.0413  -48.3341 H         1 UNK         0.0600 
    148 H148       -0.1975  -18.3734  -46.7095 H         1 UNK         0.0600 
    149 H149        1.5184  -19.4089  -45.1448 H         1 UNK         0.3000 
    150 H150        2.5053  -22.0685  -42.9341 H         1 UNK         0.0600 
    151 H151        4.5029  -21.3536  -44.2385 H         1 UNK         0.0600 
    152 H152        4.4092  -20.4939  -42.7083 H         1 UNK         0.0600 
    153 H153        3.9537  -19.6831  -44.2041 H         1 UNK         0.0600 
    154 H154        2.1561  -19.2634  -42.5193 H         1 UNK         0.3000 
    155 H155       -1.2450  -19.4227  -41.3877 H         1 UNK         0.0600 
    156 H156        1.4325  -18.7773  -40.0404 H         1 UNK         0.0600 
    157 H157        0.2854  -19.9896  -39.4796 H         1 UNK         0.0600 
    158 H158       -0.1655  -18.2916  -39.4795 H         1 UNK         0.0600 
    159 H159        0.4617  -17.1929  -41.6979 H         1 UNK         0.3000 
    160 H160       -0.3010  -16.4717  -45.1423 H         1 UNK         0.0600 
    161 H161       -0.9298  -15.0641  -42.4962 H         1 UNK         0.0600 
    162 H162       -0.9063  -14.3253  -44.0931 H         1 UNK         0.0600 
    163 H163       -2.1256  -15.5268  -43.6949 H         1 UNK         0.0600 
    164 H164        1.3984  -15.1106  -43.3502 H         1 UNK         0.3000 
    165 H165        4.3956  -16.9685  -43.8790 H         1 UNK         0.0600 
    166 H166        5.1945  -14.7461  -44.5446 H         1 UNK         0.0600 
    167 H167        4.1474  -15.3689  -45.8110 H         1 UNK         0.0600 
    168 H168        3.5494  -14.1405  -44.7008 H         1 UNK         0.0600 
    169 H169        3.5154  -14.6374  -42.3471 H         1 UNK         0.3000 
    170 H170        3.1460  -16.3934  -39.2780 H         1 UNK         0.0600 
    171 H171        5.6082  -16.0252  -39.4883 H         1 UNK         0.0600 
    172 H172        5.3228  -14.4484  -40.2153 H         1 UNK         0.0600 
    173 H173        4.8490  -14.7539  -38.5439 H         1 UNK         0.0600 
    174 H174        2.9975  -13.6137  -39.9542 H         1 UNK         0.3000 
    175 H175       -0.5375  -13.6117  -40.6020 H         1 UNK         0.0600 
    176 H176        1.1859  -12.4654  -38.3520 H         1 UNK         0.0600 
    177 H177       -0.4640  -11.9968  -38.7621 H         1 UNK         0.0600 
    178 H178       -0.1401  -13.6000  -38.1256 H         1 UNK         0.0600 
    179 H179        0.7994  -11.3321  -40.7040 H         1 UNK         0.3000 
    180 H180        0.8312  -10.3493  -42.8038 H         1 UNK         0.0600 
    181 H181        3.7678  -11.1825  -43.1843 H         1 UNK         0.0600 
    182 H182        3.1357  -10.2648  -41.8227 H         1 UNK         0.0600 
    183 H183        3.1240   -9.5588  -43.4305 H         1 UNK         0.0600 
    184 H184        2.2689  -11.3922  -45.0946 H         1 UNK         0.3000 
    185 H185        0.4198  -11.3887  -47.2490 H         1 UNK         0.0600 
    186 H186        2.5262  -12.6211  -46.6220 H         1 UNK         0.0600 
    187 H187        1.5706  -14.0103  -46.1075 H         1 UNK         0.0600 
    188 H188        1.6353  -13.5478  -47.8031 H         1 UNK         0.0600 
    189 H189       -1.4395  -13.1668  -46.0541 H         1 UNK         0.3000 
    190 H190       -0.7747  -22.7083  -43.7107 H         1 UNK         0.3000 
    191 H191       -1.7404  -25.3475  -43.3572 H         1 UNK         0.0600 
    192 H192        1.1273  -24.2748  -43.2136 H         1 UNK         0.0600 
    193 H193        0.5760  -25.8122  -42.5614 H         1 UNK         0.0600 
    194 H194       -0.0341  -24.3074  -41.8893 H         1 UNK         0.0600 
    195 H195        0.4849  -23.9871  -45.8093 H         1 UNK         0.3000 
    196 H196        0.8637  -26.4603  -47.2581 H         1 UNK         0.0600 
    197 H197        1.8956  -24.9298  -48.9468 H         1 UNK         0.0600 
    198 H198        2.4946  -24.5825  -47.3311 H         1 UNK         0.0600 
    199 H199        1.2866  -23.5320  -48.0677 H         1 UNK         0.0600 
    200 H200       -1.6227  -24.0436  -47.2266 H         1 UNK         0.3000 
    201 H201       -3.4187  -23.4977  -48.3604 H         1 UNK         0.0600 
    202 H202       -4.1613  -25.8466  -47.9905 H         1 UNK         0.0600 
    203 H203       -3.4087  -26.3416  -49.5068 H         1 UNK         0.0600 
    204 H204       -4.7653  -25.2233  -49.5185 H         1 UNK         0.0600 
    205 H205       -1.2052  -22.4718  -49.2948 H         1 UNK         0.3000 
    206 H206       -0.5123  -23.1632  -52.0007 H         1 UNK         0.0600 
    207 H207        1.1525  -22.3572  -50.3643 H         1 UNK         0.0600 
    208 H208        1.1127  -21.2739  -51.7416 H         1 UNK         0.0600 
    209 H209        0.3358  -20.8031  -50.2350 H         1 UNK         0.0600 
    210 H210       -2.1412  -20.3443  -50.5853 H         1 UNK         0.3000 
    211 H211       -3.2145  -18.5396  -51.3706 H         1 UNK         0.0600 
    212 H212       -4.2419  -20.4208  -53.5339 H         1 UNK         0.0600 
    213 H213       -4.9948  -18.9214  -53.0087 H         1 UNK         0.0600 
    214 H214       -4.9138  -20.2941  -51.9179 H         1 UNK         0.0600 
    215 H215       -1.0854  -17.6990  -51.7624 H         1 UNK         0.3000 
    216 H216        0.4576  -16.5190  -52.7972 H         1 UNK         0.0600 
    217 H217       -0.0493  -15.2802  -54.8506 H         1 UNK         0.0600 
    218 H218       -1.4809  -15.2916  -53.8353 H         1 UNK         0.0600 
    219 H219       -1.3838  -16.3529  -55.2405 H         1 UNK         0.0600 
    220 H220        0.1204  -19.5103  -53.2578 H         1 UNK         0.3000 
    221 H221        1.1001  -21.2735  -54.1684 H         1 UNK         0.0600 
    222 H222        3.3608  -19.4089  -55.0622 H         1 UNK         0.0600 
    223 H223        3.2401  -20.1690  -53.4758 H         1 UNK         0.0600 
    224 H224        3.4431  -21.1585  -54.9116 H         1 UNK         0.0600 
    225 H225       -0.9309  -19.9853  -55.6124 H         1 UNK         0.3000 
    226 H226       -0.3051  -20.7490  -58.4221 H         1 UNK         0.0600 
    227 H227        0.0913  -18.3144  -58.2955 H         1 UNK         0.0600 
    228 H228       -1.3869  -18.6253  -59.1941 H         1 UNK         0.0600 
    229 H229       -1.4725  -18.0578  -57.5286 H         1 UNK         0.0600 
    230 H230       -2.9537  -19.5568  -56.2363 H         1 UNK         0.3000 
    231 H231       -4.9371  -20.7885  -57.9810 H         1 UNK         0.0600 
    232 H232       -5.3856  -18.6065  -56.9966 H         1 UNK         0.0600 
    233 H233       -5.1755  -19.2266  -55.3662 H         1 UNK         0.0600 
    234 H234       -6.5379  -19.7594  -56.3439 H         1 UNK         0.0600 
    235 H235       -3.3022  -21.7554  -55.0501 H         1 UNK         0.3000 
    236 H236       -3.4036  -23.4353  -53.6451 H         1 UNK         0.0600 
    237 H237       -4.6637  -25.0075  -55.9462 H         1 UNK         0.0600 
    238 H238       -2.9388  -24.6943  -55.7533 H         1 UNK         0.0600 
    239 H239       -3.7880  -25.6807  -54.5765 H         1 UNK         0.0600 
    240 H240       -5.8942  -21.7127  -53.8109 H         1 UNK         0.3000 
    241 H241       -7.9620  -21.4839  -53.1130 H         1 UNK         0.0600 
    242 H242       -9.0227  -24.0381  -55.7126 H         1 UNK         0.3800 
    243 H243       -7.4866  -23.2228  -55.5438 H         1 UNK         0.3800 
    244 H244       -7.2322  -23.7036  -51.1535 H         1 UNK         0.0800 
    245 H245       -8.8372  -23.0383  -51.1737 H         1 UNK         0.0800 
    246 H246       -5.1328  -22.3162  -50.1061 H         1 UNK         0.0800 
    247 H247       -6.2631  -22.9631  -48.9348 H         1 UNK         0.0800 
@<TRIPOS>BOND
     1    1    2 1    
     2    1  127 1    
     3    1  128 1    
     4    1  129 1    
     5    2    3 2    
     6    2    4 am   BACKBONE|DICT|INTERRES
     7    4    5 1    
     8    4  130 1    
     9    5    6 1    
    10    5   65 1    
    11    5  131 1    
    12    6    7 1    
    13    6  132 1    
    14    6  133 1    
    15    7    8 1    
    16    8    9 1    
    17    8  134 1    
    18    8  135 1    
    19    9   10 ar   
    20    9   14 ar   
    21   10   11 ar   
    22   10  136 1    
    23   11   12 ar   
    24   11  126 1    
    25   12   13 ar   
    26   12  137 1    
    27   13   14 ar   
    28   13   15 1    
    29   14  138 1    
    30   15   16 1    
    31   15  139 1    
    32   15  140 1    
    33   16   17 1    
    34   17   18 1    
    35   17  141 1    
    36   17  142 1    
    37   18   19 1    
    38   18   67 1    
    39   18  143 1    
    40   19   20 am   BACKBONE|DICT|INTERRES
    41   19  144 1    
    42   20   21 2    
    43   20   22 1    
    44   22   23 1    
    45   22   24 1    
    46   22  145 1    
    47   23  146 1    
    48   23  147 1    
    49   23  148 1    
    50   24   25 am   BACKBONE|DICT|INTERRES
    51   24  149 1    
    52   25   26 2    
    53   25   27 1    
    54   27   28 1    
    55   27   29 1    
    56   27  150 1    
    57   28  151 1    
    58   28  152 1    
    59   28  153 1    
    60   29   30 am   BACKBONE|DICT|INTERRES
    61   29  154 1    
    62   30   31 2    
    63   30   32 1    
    64   32   33 1    
    65   32   34 1    
    66   32  155 1    
    67   33  156 1    
    68   33  157 1    
    69   33  158 1    
    70   34   35 am   BACKBONE|DICT|INTERRES
    71   34  159 1    
    72   35   36 2    
    73   35   37 1    
    74   37   38 1    
    75   37   39 1    
    76   37  160 1    
    77   38  161 1    
    78   38  162 1    
    79   38  163 1    
    80   39   40 am   BACKBONE|DICT|INTERRES
    81   39  164 1    
    82   40   41 2    
    83   40   42 1    
    84   42   43 1    
    85   42   44 1    
    86   42  165 1    
    87   43  166 1    
    88   43  167 1    
    89   43  168 1    
    90   44   45 am   BACKBONE|DICT|INTERRES
    91   44  169 1    
    92   45   46 2    
    93   45   47 1    
    94   47   48 1    
    95   47   49 1    
    96   47  170 1    
    97   48  171 1    
    98   48  172 1    
    99   48  173 1    
   100   49   50 am   BACKBONE|DICT|INTERRES
   101   49  174 1    
   102   50   51 2    
   103   50   52 1    
   104   52   53 1    
   105   52   54 1    
   106   52  175 1    
   107   53  176 1    
   108   53  177 1    
   109   53  178 1    
   110   54   55 am   BACKBONE|DICT|INTERRES
   111   54  179 1    
   112   55   56 2    
   113   55   57 1    
   114   57   58 1    
   115   57   59 1    
   116   57  180 1    
   117   58  181 1    
   118   58  182 1    
   119   58  183 1    
   120   59   60 am   BACKBONE|DICT|INTERRES
   121   59  184 1    
   122   60   61 2    
   123   60   62 1    
   124   62   63 1    
   125   62   64 1    
   126   62  185 1    
   127   63  186 1    
   128   63  187 1    
   129   63  188 1    
   130   64   65 am   BACKBONE|DICT|INTERRES
   131   64  189 1    
   132   65   66 2    
   133   67   68 2    
   134   67   69 am   BACKBONE|DICT|INTERRES
   135   69   70 1    
   136   69  190 1    
   137   70   71 1    
   138   70   72 1    
   139   70  191 1    
   140   71  192 1    
   141   71  193 1    
   142   71  194 1    
   143   72   73 2    
   144   72   74 am   BACKBONE|DICT|INTERRES
   145   74   75 1    
   146   74  195 1    
   147   75   76 1    
   148   75   77 1    
   149   75  196 1    
   150   76  197 1    
   151   76  198 1    
   152   76  199 1    
   153   77   78 2    
   154   77   79 am   BACKBONE|DICT|INTERRES
   155   79   80 1    
   156   79  200 1    
   157   80   81 1    
   158   80   82 1    
   159   80  201 1    
   160   81  202 1    
   161   81  203 1    
   162   81  204 1    
   163   82   83 2    
   164   82   84 am   BACKBONE|DICT|INTERRES
   165   84   85 1    
   166   84  205 1    
   167   85   86 1    
   168   85   87 1    
   169   85  206 1    
   170   86  207 1    
   171   86  208 1    
   172   86  209 1    
   173   87   88 2    
   174   87   89 am   BACKBONE|DICT|INTERRES
   175   89   90 1    
   176   89  210 1    
   177   90   91 1    
   178   90   92 1    
   179   90  211 1    
   180   91  212 1    
   181   91  213 1    
   182   91  214 1    
   183   92   93 2    
   184   92   94 am   BACKBONE|DICT|INTERRES
   185   94   95 1    
   186   94  215 1    
   187   95   96 1    
   188   95   97 1    
   189   95  216 1    
   190   96  217 1    
   191   96  218 1    
   192   96  219 1    
   193   97   98 2    
   194   97   99 am   BACKBONE|DICT|INTERRES
   195   99  100 1    
   196   99  220 1    
   197  100  101 1    
   198  100  102 1    
   199  100  221 1    
   200  101  222 1    
   201  101  223 1    
   202  101  224 1    
   203  102  103 2    
   204  102  104 am   BACKBONE|DICT|INTERRES
   205  104  105 1    
   206  104  225 1    
   207  105  106 1    
   208  105  107 1    
   209  105  226 1    
   210  106  227 1    
   211  106  228 1    
   212  106  229 1    
   213  107  108 2    
   214  107  109 am   BACKBONE|DICT|INTERRES
   215  109  110 1    
   216  109  230 1    
   217  110  111 1    
   218  110  112 1    
   219  110  231 1    
   220  111  232 1    
   221  111  233 1    
   222  111  234 1    
   223  112  113 2    
   224  112  114 am   BACKBONE|DICT|INTERRES
   225  114  115 1    
   226  114  235 1    
   227  115  116 1    
   228  115  117 1    
   229  115  236 1    
   230  116  237 1    
   231  116  238 1    
   232  116  239 1    
   233  117  118 2    
   234  117  119 am   BACKBONE|DICT|INTERRES
   235  119  120 1    
   236  119  240 1    
   237  120  121 1    
   238  120  124 1    
   239  120  241 1    
   240  121  122 am   BACKBONE|DICT|INTERRES
   241  121  123 2    
   242  122  242 1    
   243  122  243 1    
   244  124  125 1    
   245  124  244 1    
   246  124  245 1    
   247  125  126 1    
   248  126  246 1    
   249  126  247 1    
@<TRIPOS>SUBSTRUCTURE
     1 UNK         1 GROUP             0       ****    0 ROOT    
