@<TRIPOS>MOLECULE
3R540
247   249    1
SMALL
USER_CHARGES


@<TRIPOS>ATOM
      1 CA         -0.1107  -12.8748  -52.2222 C.3       0 UNK        -0.1800 
      2 C           0.2517  -13.7134  -51.0057 C.2       0 UNK         0.5000 
      3 O           0.0060  -14.9174  -51.0072 O.2       0 UNK        -0.5000 
      4 N           0.7987  -13.0638  -49.9674 N.am      1 UNK        -0.5000 
      5 CA          1.3228  -13.5622  -48.6795 C.3       1 UNK         0.1400 
      6 C6          2.7569  -14.1555  -48.7535 C.3       23 UNK        -0.0398 
      7 S7          2.9768  -15.6517  -49.7767 S.3       23 UNK        -0.2404 
      8 C8          2.7161  -16.9719  -48.5486 C.3       23 UNK        -0.0205 
      9 C9          3.0640  -18.3530  -49.0843 C.ar      23 UNK        -0.0193 
     10 C10         2.5411  -18.8057  -50.2990 C.ar      23 UNK        -0.1150 
     11 C11         2.8482  -20.0824  -50.7797 C.ar      23 UNK        -0.0193 
     12 C12         3.6887  -20.9108  -50.0275 C.ar      23 UNK        -0.1150 
     13 C13         4.2260  -20.4668  -48.8152 C.ar      23 UNK        -0.0193 
     14 C14         3.9067  -19.1893  -48.3493 C.ar      23 UNK        -0.1150 
     15 C15         5.1840  -21.3458  -48.0233 C.3       23 UNK        -0.0205 
     16 S16         4.3504  -22.7254  -47.1788 S.3       23 UNK        -0.2404 
     17 C17         3.2486  -21.8624  -46.0046 C.3       23 UNK        -0.0398 
     18 CA          1.8757  -22.5599  -45.8733 C.3       11 UNK         0.1400 
     19 N           1.1453  -22.1073  -44.6902 N.am      11 UNK        -0.5000 
     20 C           0.0963  -22.7514  -44.1614 C.2       10 UNK         0.5000 
     21 O          -0.3099  -23.8416  -44.5639 O.2       10 UNK        -0.5000 
     22 CA         -0.6420  -22.0495  -43.0072 C.3       10 UNK         0.1400 
     23 CB          0.0233  -22.3769  -41.6624 C.3       10 UNK        -0.1800 
     24 N          -0.7260  -20.5969  -43.1769 N.am      10 UNK        -0.5000 
     25 C          -1.3769  -19.9874  -44.1786 C.2       9 UNK         0.5000 
     26 O          -1.9936  -20.5889  -45.0554 O.2       9 UNK        -0.5000 
     27 CA         -1.2905  -18.4541  -44.2419 C.3       9 UNK         0.1400 
     28 CB         -2.2342  -17.8087  -43.2160 C.3       9 UNK        -0.1800 
     29 N           0.0679  -17.9585  -44.0375 N.am      9 UNK        -0.5000 
     30 C           1.1111  -18.2160  -44.8382 C.2       8 UNK         0.5000 
     31 O           1.0370  -18.8705  -45.8777 O.2       8 UNK        -0.5000 
     32 CA          2.4825  -17.7169  -44.3517 C.3       8 UNK         0.1400 
     33 CB          2.6648  -16.2161  -44.6217 C.3       8 UNK        -0.1800 
     34 N           2.6785  -17.9794  -42.9266 N.am      8 UNK        -0.5000 
     35 C           2.7947  -19.2005  -42.3866 C.2       7 UNK         0.5000 
     36 O           2.7876  -20.2428  -43.0414 O.2       7 UNK        -0.5000 
     37 CA          2.8986  -19.2626  -40.8520 C.3       7 UNK         0.1400 
     38 CB          4.3492  -19.0422  -40.3980 C.3       7 UNK        -0.1800 
     39 N           2.0289  -18.2859  -40.1923 N.am      7 UNK        -0.5000 
     40 C           0.6897  -18.3472  -40.1949 C.2       6 UNK         0.5000 
     41 O           0.0484  -19.2468  -40.7351 O.2       6 UNK        -0.5000 
     42 CA         -0.0578  -17.1794  -39.5252 C.3       6 UNK         0.1400 
     43 CB         -0.1342  -17.3838  -38.0048 C.3       6 UNK        -0.1800 
     44 N           0.5402  -15.8727  -39.8152 N.am      6 UNK        -0.5000 
     45 C           0.6311  -15.3425  -41.0410 C.2       5 UNK         0.5000 
     46 O           0.2360  -15.9093  -42.0630 O.2       5 UNK        -0.5000 
     47 CA          1.3122  -13.9747  -41.1543 C.3       5 UNK         0.1400 
     48 CB          2.8440  -14.1247  -41.0857 C.3       5 UNK        -0.1800 
     49 N           0.9214  -13.3811  -42.4273 N.am      5 UNK        -0.5000 
     50 C           1.0305  -12.0932  -42.7656 C.2       4 UNK         0.5000 
     51 O           1.4892  -11.2263  -42.0203 O.2       4 UNK        -0.5000 
     52 CA          0.5491  -11.7029  -44.1750 C.3       4 UNK         0.1400 
     53 CB          1.7293  -11.7020  -45.1585 C.3       4 UNK        -0.1800 
     54 N          -0.5145  -12.5739  -44.6892 N.am      4 UNK        -0.5000 
     55 C          -1.8009  -12.4822  -44.3129 C.2       3 UNK         0.5000 
     56 O          -2.1935  -11.6769  -43.4672 O.2       3 UNK        -0.5000 
     57 CA         -2.8266  -13.4153  -44.9905 C.3       3 UNK         0.1400 
     58 CB         -4.1193  -12.6731  -45.3761 C.3       3 UNK        -0.1800 
     59 N          -2.2753  -14.0610  -46.1812 N.am      3 UNK        -0.5000 
     60 C          -2.4304  -15.3499  -46.5024 C.2       2 UNK         0.5000 
     61 O          -3.1629  -16.1158  -45.8772 O.2       2 UNK        -0.5000 
     62 CA         -1.6510  -15.8930  -47.7221 C.3       2 UNK         0.1400 
     63 CB         -2.6195  -16.3827  -48.8113 C.3       2 UNK        -0.1800 
     64 N          -0.6950  -14.9733  -48.3477 N.am      2 UNK        -0.5000 
     65 C           0.3809  -14.4107  -47.7896 C.2       1 UNK         0.5000 
     66 O           0.6298  -14.5031  -46.5881 O.2       1 UNK        -0.5000 
     67 C           1.0123  -22.4335  -47.1473 C.2       11 UNK         0.5000 
     68 O           0.9260  -23.3955  -47.9108 O.2       11 UNK        -0.5000 
     69 N           0.3433  -21.2846  -47.3306 N.am      12 UNK        -0.5000 
     70 CA         -0.5565  -21.0335  -48.4593 C.3       12 UNK         0.1400 
     71 CB         -0.9945  -19.5626  -48.4641 C.3       12 UNK        -0.1800 
     72 C          -1.7783  -21.9719  -48.4898 C.2       12 UNK         0.5000 
     73 O          -2.1838  -22.4054  -49.5681 O.2       12 UNK        -0.5000 
     74 N          -2.3083  -22.3177  -47.3068 N.am      13 UNK        -0.5000 
     75 CA         -3.4263  -23.2438  -47.1011 C.3       13 UNK         0.1400 
     76 CB         -3.7712  -23.3108  -45.6061 C.3       13 UNK        -0.1800 
     77 C          -3.2056  -24.6611  -47.6662 C.2       13 UNK         0.5000 
     78 O          -4.1871  -25.3495  -47.9479 O.2       13 UNK        -0.5000 
     79 N          -1.9426  -25.0641  -47.8736 N.am      14 UNK        -0.5000 
     80 CA         -1.5652  -26.3250  -48.5183 C.3       14 UNK         0.1400 
     81 CB         -0.0479  -26.5261  -48.3961 C.3       14 UNK        -0.1800 
     82 C          -2.0070  -26.4227  -49.9945 C.2       14 UNK         0.5000 
     83 O          -2.1348  -27.5345  -50.5082 O.2       14 UNK        -0.5000 
     84 N          -2.2645  -25.2756  -50.6420 N.am      15 UNK        -0.5000 
     85 CA         -2.8279  -25.1899  -51.9909 C.3       15 UNK         0.1400 
     86 CB         -2.4152  -23.8498  -52.6176 C.3       15 UNK        -0.1800 
     87 C          -4.3613  -25.3867  -52.0261 C.2       15 UNK         0.5000 
     88 O          -4.9328  -25.4121  -53.1175 O.2       15 UNK        -0.5000 
     89 N          -5.0011  -25.5374  -50.8538 N.am      16 UNK        -0.5000 
     90 CA         -6.4171  -25.8498  -50.6391 C.3       16 UNK         0.1400 
     91 CB         -6.7086  -27.3088  -51.0553 C.3       16 UNK        -0.1800 
     92 C          -7.3486  -24.8124  -51.2957 C.2       16 UNK         0.5000 
     93 O          -7.4043  -23.6747  -50.8304 O.2       16 UNK        -0.5000 
     94 N          -8.0415  -25.1964  -52.3759 N.am      17 UNK        -0.5000 
     95 CA         -8.9213  -24.3257  -53.1603 C.3       17 UNK         0.1400 
     96 CB         -9.6688  -25.1781  -54.1969 C.3       17 UNK        -0.1800 
     97 C          -8.1864  -23.1581  -53.8514 C.2       17 UNK         0.5000 
     98 O          -8.8110  -22.1348  -54.1319 O.2       17 UNK        -0.5000 
     99 N          -6.8792  -23.3207  -54.0954 N.am      18 UNK        -0.5000 
    100 CA        -6.0054  -22.3191  -54.7029 C.3       18 UNK         0.1400 
    101 CB        -5.0867  -23.0212  -55.7183 C.3       18 UNK        -0.1800 
    102 C         -5.2010  -21.5203  -53.6561 C.2       18 UNK         0.5000 
    103 O         -4.2715  -20.8123  -54.0373 O.2       18 UNK        -0.5000 
    104 N         -5.5477  -21.6275  -52.3626 N.am      19 UNK        -0.5000 
    105 CA        -4.8701  -20.9276  -51.2640 C.3       19 UNK         0.1400 
    106 CB        -5.3525  -21.4856  -49.9201 C.3       19 UNK        -0.1800 
    107 C         -5.0251  -19.3968  -51.2879 C.2       19 UNK         0.5000 
    108 O         -4.1731  -18.7062  -50.7298 O.2       19 UNK        -0.5000 
    109 N         -6.0822  -18.8892  -51.9379 N.am      20 UNK        -0.5000 
    110 CA        -6.3544  -17.4657  -52.1460 C.3       20 UNK         0.1400 
    111 CB        -7.7326  -17.3155  -52.8118 C.3       20 UNK        -0.1800 
    112 C         -5.2402  -16.7960  -52.9766 C.2       20 UNK         0.5000 
    113 O         -5.2353  -16.9175  -54.2022 O.2       20 UNK        -0.5000 
    114 N         -4.2939  -16.1582  -52.2713 N.am      21 UNK        -0.5000 
    115 CA        -3.0290  -15.5928  -52.7638 C.3       21 UNK         0.1400 
    116 CB        -3.2765  -14.4755  -53.7998 C.3       21 UNK        -0.1800 
    117 C         -2.0182  -16.6555  -53.2585 C.2       21 UNK         0.5000 
    118 O         -1.0515  -16.3040  -53.9372 O.2       21 UNK        -0.5000 
    119 N         -2.2459  -17.9239  -52.8877 N.am      22 UNK        -0.5000 
    120 CA        -1.4510  -19.1106  -53.2385 C.3       22 UNK         0.1400 
    121 C         -1.3041  -19.3735  -54.7751 C.2       22 UNK         0.5000 
    122 N         -0.4214  -20.2756  -55.1835 N.am      22 UNK        -0.7600 
    123 O         -2.0014  -18.8007  -55.6099 O.2       22 UNK        -0.5000 
    124 C124       -0.1101  -19.1290  -52.4532 C.3       23 UNK        -0.0398 
    125 S125        0.5141  -20.8157  -52.1258 S.3       23 UNK        -0.2404 
    126 C126        2.3167  -20.5504  -52.1296 C.3       23 UNK        -0.0205 
    127 H127        0.1566  -13.4045  -53.1369 H         1 UNK         0.0600 
    128 H128        0.4094  -11.9166  -52.2219 H         1 UNK         0.0600 
    129 H129       -1.1833  -12.6834  -52.2379 H         1 UNK         0.0600 
    130 H130        0.9083  -12.0650  -50.0750 H         1 UNK         0.3000 
    131 H131        1.4314  -12.6418  -48.1056 H         1 UNK         0.0600 
    132 H132        3.4232  -13.3970  -49.1658 H         1 UNK         0.0800 
    133 H133        3.1428  -14.3473  -47.7505 H         1 UNK         0.0800 
    134 H134        1.6766  -16.9769  -48.2195 H         1 UNK         0.0800 
    135 H135        3.3273  -16.7525  -47.6738 H         1 UNK         0.0800 
    136 H136        1.9058  -18.1499  -50.8743 H         1 UNK         0.1150 
    137 H137        3.9411  -21.8972  -50.3905 H         1 UNK         0.1150 
    138 H138        4.3192  -18.8441  -47.4118 H         1 UNK         0.1150 
    139 H139        5.9354  -21.7534  -48.7010 H         1 UNK         0.0800 
    140 H140        5.7311  -20.7562  -47.2858 H         1 UNK         0.0800 
    141 H141        3.1213  -20.8147  -46.2756 H         1 UNK         0.0800 
    142 H142        3.7552  -21.8597  -45.0386 H         1 UNK         0.0800 
    143 H143        2.0705  -23.6250  -45.7269 H         1 UNK         0.0600 
    144 H144        1.4571  -21.2424  -44.2620 H         1 UNK         0.3000 
    145 H145       -1.6619  -22.4388  -42.9846 H         1 UNK         0.0600 
    146 H146       -0.5473  -21.9651  -40.8299 H         1 UNK         0.0600 
    147 H147        1.0354  -21.9753  -41.6067 H         1 UNK         0.0600 
    148 H148        0.0879  -23.4549  -41.5097 H         1 UNK         0.0600 
    149 H149       -0.2871  -20.0300  -42.4565 H         1 UNK         0.3000 
    150 H150       -1.6055  -18.1504  -45.2409 H         1 UNK         0.0600 
    151 H151       -3.2640  -18.1273  -43.3811 H         1 UNK         0.0600 
    152 H152       -2.2147  -16.7215  -43.2939 H         1 UNK         0.0600 
    153 H153       -1.9652  -18.0741  -42.1937 H         1 UNK         0.0600 
    154 H154        0.2123  -17.3689  -43.2217 H         1 UNK         0.3000 
    155 H155        3.2513  -18.2589  -44.9066 H         1 UNK         0.0600 
    156 H156        2.5747  -15.9987  -45.6836 H         1 UNK         0.0600 
    157 H157        3.6490  -15.8722  -44.3041 H         1 UNK         0.0600 
    158 H158        1.9162  -15.6139  -44.1085 H         1 UNK         0.0600 
    159 H159        2.6528  -17.1823  -42.3101 H         1 UNK         0.3000 
    160 H160        2.5911  -20.2620  -40.5372 H         1 UNK         0.0600 
    161 H161        4.7094  -18.0471  -40.6621 H         1 UNK         0.0600 
    162 H162        5.0176  -19.7678  -40.8635 H         1 UNK         0.0600 
    163 H163        4.4461  -19.1590  -39.3185 H         1 UNK         0.0600 
    164 H164        2.4775  -17.5126  -39.7241 H         1 UNK         0.3000 
    165 H165       -1.0767  -17.1738  -39.9182 H         1 UNK         0.0600 
    166 H166       -0.7405  -16.6102  -37.5331 H         1 UNK         0.0600 
    167 H167       -0.5906  -18.3447  -37.7630 H         1 UNK         0.0600 
    168 H168        0.8540  -17.3643  -37.5437 H         1 UNK         0.0600 
    169 H169        0.8925  -15.3517  -39.0250 H         1 UNK         0.3000 
    170 H170        0.9607  -13.3409  -40.3377 H         1 UNK         0.0600 
    171 H171        3.2253  -14.7356  -41.9045 H         1 UNK         0.0600 
    172 H172        3.3409  -13.1558  -41.1358 H         1 UNK         0.0600 
    173 H173        3.1538  -14.5945  -40.1516 H         1 UNK         0.0600 
    174 H174        0.4918  -14.0335  -43.0712 H         1 UNK         0.3000 
    175 H175        0.1652  -10.6820  -44.1173 H         1 UNK         0.0600 
    176 H176        2.1528  -12.6992  -45.2838 H         1 UNK         0.0600 
    177 H177        1.4225  -11.3346  -46.1369 H         1 UNK         0.0600 
    178 H178        2.5298  -11.0497  -44.8069 H         1 UNK         0.0600 
    179 H179       -0.2275  -13.3031  -45.3356 H         1 UNK         0.3000 
    180 H180       -3.0749  -14.1709  -44.2424 H         1 UNK         0.0600 
    181 H181       -4.8465  -13.3546  -45.8181 H         1 UNK         0.0600 
    182 H182       -3.9241  -11.8780  -46.0965 H         1 UNK         0.0600 
    183 H183       -4.5923  -12.2206  -44.5038 H         1 UNK         0.0600 
    184 H184       -1.6721  -13.4963  -46.7610 H         1 UNK         0.3000 
    185 H185       -1.0774  -16.7499  -47.3642 H         1 UNK         0.0600 
    186 H186       -3.3039  -17.1378  -48.4219 H         1 UNK         0.0600 
    187 H187       -3.2214  -15.5642  -49.2067 H         1 UNK         0.0600 
    188 H188       -2.0824  -16.8374  -49.6443 H         1 UNK         0.0600 
    189 H189       -0.7472  -14.9000  -49.3608 H         1 UNK         0.3000 
    190 H190        0.4832  -20.5149  -46.6812 H         1 UNK         0.3000 
    191 H191        0.0164  -21.2181  -49.3676 H         1 UNK         0.0600 
    192 H192       -1.6526  -19.3559  -49.3093 H         1 UNK         0.0600 
    193 H193       -0.1354  -18.8970  -48.5500 H         1 UNK         0.0600 
    194 H194       -1.5344  -19.3012  -47.5538 H         1 UNK         0.0600 
    195 H195       -1.9556  -21.8537  -46.4734 H         1 UNK         0.3000 
    196 H196       -4.2903  -22.8283  -47.6188 H         1 UNK         0.0600 
    197 H197       -4.0546  -22.3312  -45.2215 H         1 UNK         0.0600 
    198 H198       -2.9313  -23.6749  -45.0154 H         1 UNK         0.0600 
    199 H199       -4.6126  -23.9815  -45.4273 H         1 UNK         0.0600 
    200 H200       -1.1873  -24.4307  -47.6424 H         1 UNK         0.3000 
    201 H201       -2.0596  -27.1328  -47.9750 H         1 UNK         0.0600 
    202 H202        0.2816  -26.4514  -47.3595 H         1 UNK         0.0600 
    203 H203        0.5024  -25.7868  -48.9789 H         1 UNK         0.0600 
    204 H204        0.2445  -27.5114  -48.7614 H         1 UNK         0.0600 
    205 H205       -2.1391  -24.3938  -50.1541 H         1 UNK         0.3000 
    206 H206       -2.3935  -25.9844  -52.6009 H         1 UNK         0.0600 
    207 H207       -2.8561  -23.0096  -52.0871 H         1 UNK         0.0600 
    208 H208       -1.3327  -23.7211  -52.6015 H         1 UNK         0.0600 
    209 H209       -2.7319  -23.7846  -53.6579 H         1 UNK         0.0600 
    210 H210       -4.4564  -25.4622  -50.0023 H         1 UNK         0.3000 
    211 H211       -6.5893  -25.7741  -49.5645 H         1 UNK         0.0600 
    212 H212       -6.5034  -27.4892  -52.1111 H         1 UNK         0.0600 
    213 H213       -7.7501  -27.5722  -50.8663 H         1 UNK         0.0600 
    214 H214       -6.0948  -28.0029  -50.4810 H         1 UNK         0.0600 
    215 H215       -7.9189  -26.1398  -52.7140 H         1 UNK         0.3000 
    216 H216       -9.6560  -23.8913  -52.4793 H         1 UNK         0.0600 
    217 H217      -10.3571  -24.5672  -54.7826 H         1 UNK         0.0600 
    218 H218      -10.2588  -25.9583  -53.7156 H         1 UNK         0.0600 
    219 H219       -8.9806  -25.6576  -54.8943 H         1 UNK         0.0600 
    220 H220       -6.4266  -24.1805  -53.7994 H         1 UNK         0.3000 
    221 H221       -6.6024  -21.5902  -55.2544 H         1 UNK         0.0600 
    222 H222       -4.4561  -23.7712  -55.2425 H         1 UNK         0.0600 
    223 H223       -5.6697  -23.5211  -56.4919 H         1 UNK         0.0600 
    224 H224       -4.4308  -22.3089  -56.2203 H         1 UNK         0.0600 
    225 H225       -6.3112  -22.2410  -52.1039 H         1 UNK         0.3000 
    226 H226       -3.8011  -21.1260  -51.3447 H         1 UNK         0.0600 
    227 H227       -5.1352  -22.5508  -49.8417 H         1 UNK         0.0600 
    228 H228       -4.8496  -20.9886  -49.0895 H         1 UNK         0.0600 
    229 H229       -6.4255  -21.3456  -49.7861 H         1 UNK         0.0600 
    230 H230       -6.7138  -19.5363  -52.3857 H         1 UNK         0.3000 
    231 H231       -6.4009  -16.9821  -51.1680 H         1 UNK         0.0600 
    232 H232       -7.9649  -16.2655  -52.9936 H         1 UNK         0.0600 
    233 H233       -8.5227  -17.7176  -52.1773 H         1 UNK         0.0600 
    234 H234       -7.7780  -17.8331  -53.7710 H         1 UNK         0.0600 
    235 H235       -4.3817  -16.1803  -51.2646 H         1 UNK         0.3000 
    236 H236       -2.5619  -15.1274  -51.8955 H         1 UNK         0.0600 
    237 H237       -3.6797  -14.8679  -54.7333 H         1 UNK         0.0600 
    238 H238       -3.9733  -13.7297  -53.4177 H         1 UNK         0.0600 
    239 H239       -2.3497  -13.9566  -54.0451 H         1 UNK         0.0600 
    240 H240       -3.0553  -18.1035  -52.3054 H         1 UNK         0.3000 
    241 H241       -2.0552  -19.9403  -52.8720 H         1 UNK         0.0600 
    242 H242       -0.3279  -20.4661  -56.1686 H         1 UNK         0.3800 
    243 H243        0.1417  -20.7809  -54.5155 H         1 UNK         0.3800 
    244 H244       -0.2513  -18.6604  -51.4781 H         1 UNK         0.0800 
    245 H245        0.6405  -18.5284  -52.9694 H         1 UNK         0.0800 
    246 H246        2.7936  -21.4899  -52.4127 H         1 UNK         0.0800 
    247 H247        2.5930  -19.8322  -52.9025 H         1 UNK         0.0800 
@<TRIPOS>BOND
     1    1    2 1    
     2    1  127 1    
     3    1  128 1    
     4    1  129 1    
     5    2    3 2    
     6    2    4 am   BACKBONE|DICT|INTERRES
     7    4    5 1    
     8    4  130 1    
     9    5    6 1    
    10    5   65 1    
    11    5  131 1    
    12    6    7 1    
    13    6  132 1    
    14    6  133 1    
    15    7    8 1    
    16    8    9 1    
    17    8  134 1    
    18    8  135 1    
    19    9   10 ar   
    20    9   14 ar   
    21   10   11 ar   
    22   10  136 1    
    23   11   12 ar   
    24   11  126 1    
    25   12   13 ar   
    26   12  137 1    
    27   13   14 ar   
    28   13   15 1    
    29   14  138 1    
    30   15   16 1    
    31   15  139 1    
    32   15  140 1    
    33   16   17 1    
    34   17   18 1    
    35   17  141 1    
    36   17  142 1    
    37   18   19 1    
    38   18   67 1    
    39   18  143 1    
    40   19   20 am   BACKBONE|DICT|INTERRES
    41   19  144 1    
    42   20   21 2    
    43   20   22 1    
    44   22   23 1    
    45   22   24 1    
    46   22  145 1    
    47   23  146 1    
    48   23  147 1    
    49   23  148 1    
    50   24   25 am   BACKBONE|DICT|INTERRES
    51   24  149 1    
    52   25   26 2    
    53   25   27 1    
    54   27   28 1    
    55   27   29 1    
    56   27  150 1    
    57   28  151 1    
    58   28  152 1    
    59   28  153 1    
    60   29   30 am   BACKBONE|DICT|INTERRES
    61   29  154 1    
    62   30   31 2    
    63   30   32 1    
    64   32   33 1    
    65   32   34 1    
    66   32  155 1    
    67   33  156 1    
    68   33  157 1    
    69   33  158 1    
    70   34   35 am   BACKBONE|DICT|INTERRES
    71   34  159 1    
    72   35   36 2    
    73   35   37 1    
    74   37   38 1    
    75   37   39 1    
    76   37  160 1    
    77   38  161 1    
    78   38  162 1    
    79   38  163 1    
    80   39   40 am   BACKBONE|DICT|INTERRES
    81   39  164 1    
    82   40   41 2    
    83   40   42 1    
    84   42   43 1    
    85   42   44 1    
    86   42  165 1    
    87   43  166 1    
    88   43  167 1    
    89   43  168 1    
    90   44   45 am   BACKBONE|DICT|INTERRES
    91   44  169 1    
    92   45   46 2    
    93   45   47 1    
    94   47   48 1    
    95   47   49 1    
    96   47  170 1    
    97   48  171 1    
    98   48  172 1    
    99   48  173 1    
   100   49   50 am   BACKBONE|DICT|INTERRES
   101   49  174 1    
   102   50   51 2    
   103   50   52 1    
   104   52   53 1    
   105   52   54 1    
   106   52  175 1    
   107   53  176 1    
   108   53  177 1    
   109   53  178 1    
   110   54   55 am   BACKBONE|DICT|INTERRES
   111   54  179 1    
   112   55   56 2    
   113   55   57 1    
   114   57   58 1    
   115   57   59 1    
   116   57  180 1    
   117   58  181 1    
   118   58  182 1    
   119   58  183 1    
   120   59   60 am   BACKBONE|DICT|INTERRES
   121   59  184 1    
   122   60   61 2    
   123   60   62 1    
   124   62   63 1    
   125   62   64 1    
   126   62  185 1    
   127   63  186 1    
   128   63  187 1    
   129   63  188 1    
   130   64   65 am   BACKBONE|DICT|INTERRES
   131   64  189 1    
   132   65   66 2    
   133   67   68 2    
   134   67   69 am   BACKBONE|DICT|INTERRES
   135   69   70 1    
   136   69  190 1    
   137   70   71 1    
   138   70   72 1    
   139   70  191 1    
   140   71  192 1    
   141   71  193 1    
   142   71  194 1    
   143   72   73 2    
   144   72   74 am   BACKBONE|DICT|INTERRES
   145   74   75 1    
   146   74  195 1    
   147   75   76 1    
   148   75   77 1    
   149   75  196 1    
   150   76  197 1    
   151   76  198 1    
   152   76  199 1    
   153   77   78 2    
   154   77   79 am   BACKBONE|DICT|INTERRES
   155   79   80 1    
   156   79  200 1    
   157   80   81 1    
   158   80   82 1    
   159   80  201 1    
   160   81  202 1    
   161   81  203 1    
   162   81  204 1    
   163   82   83 2    
   164   82   84 am   BACKBONE|DICT|INTERRES
   165   84   85 1    
   166   84  205 1    
   167   85   86 1    
   168   85   87 1    
   169   85  206 1    
   170   86  207 1    
   171   86  208 1    
   172   86  209 1    
   173   87   88 2    
   174   87   89 am   BACKBONE|DICT|INTERRES
   175   89   90 1    
   176   89  210 1    
   177   90   91 1    
   178   90   92 1    
   179   90  211 1    
   180   91  212 1    
   181   91  213 1    
   182   91  214 1    
   183   92   93 2    
   184   92   94 am   BACKBONE|DICT|INTERRES
   185   94   95 1    
   186   94  215 1    
   187   95   96 1    
   188   95   97 1    
   189   95  216 1    
   190   96  217 1    
   191   96  218 1    
   192   96  219 1    
   193   97   98 2    
   194   97   99 am   BACKBONE|DICT|INTERRES
   195   99  100 1    
   196   99  220 1    
   197  100  101 1    
   198  100  102 1    
   199  100  221 1    
   200  101  222 1    
   201  101  223 1    
   202  101  224 1    
   203  102  103 2    
   204  102  104 am   BACKBONE|DICT|INTERRES
   205  104  105 1    
   206  104  225 1    
   207  105  106 1    
   208  105  107 1    
   209  105  226 1    
   210  106  227 1    
   211  106  228 1    
   212  106  229 1    
   213  107  108 2    
   214  107  109 am   BACKBONE|DICT|INTERRES
   215  109  110 1    
   216  109  230 1    
   217  110  111 1    
   218  110  112 1    
   219  110  231 1    
   220  111  232 1    
   221  111  233 1    
   222  111  234 1    
   223  112  113 2    
   224  112  114 am   BACKBONE|DICT|INTERRES
   225  114  115 1    
   226  114  235 1    
   227  115  116 1    
   228  115  117 1    
   229  115  236 1    
   230  116  237 1    
   231  116  238 1    
   232  116  239 1    
   233  117  118 2    
   234  117  119 am   BACKBONE|DICT|INTERRES
   235  119  120 1    
   236  119  240 1    
   237  120  121 1    
   238  120  124 1    
   239  120  241 1    
   240  121  122 am   BACKBONE|DICT|INTERRES
   241  121  123 2    
   242  122  242 1    
   243  122  243 1    
   244  124  125 1    
   245  124  244 1    
   246  124  245 1    
   247  125  126 1    
   248  126  246 1    
   249  126  247 1    
@<TRIPOS>SUBSTRUCTURE
     1 UNK         1 GROUP             0       ****    0 ROOT    
