@<TRIPOS>MOLECULE
3R540
247   249    1
SMALL
USER_CHARGES


@<TRIPOS>ATOM
      1 CA          5.0388  -15.3733  -48.2060 C.3       0 UNK        -0.1800 
      2 C           3.9423  -14.9268  -47.2505 C.2       0 UNK         0.5000 
      3 O           4.2169  -14.6527  -46.0822 O.2       0 UNK        -0.5000 
      4 N           2.6995  -14.8462  -47.7402 N.am      1 UNK        -0.5000 
      5 CA          1.4947  -14.4981  -46.9771 C.3       1 UNK         0.1400 
      6 C6          0.2013  -15.0587  -47.6282 C.3       23 UNK        -0.0398 
      7 S7          0.2542  -16.8596  -47.9302 S.3       23 UNK        -0.2404 
      8 C8          0.5310  -16.8442  -49.7301 C.3       23 UNK        -0.0205 
      9 C9          0.9619  -18.1898  -50.2943 C.ar      23 UNK        -0.0193 
     10 C10         0.2407  -18.7687  -51.3423 C.ar      23 UNK        -0.1150 
     11 C11         0.6944  -19.9362  -51.9601 C.ar      23 UNK        -0.0193 
     12 C12         1.8702  -20.5392  -51.5053 C.ar      23 UNK        -0.1150 
     13 C13         2.5956  -19.9803  -50.4484 C.ar      23 UNK        -0.0193 
     14 C14         2.1348  -18.8059  -49.8449 C.ar      23 UNK        -0.1150 
     15 C15         3.9139  -20.6058  -50.0131 C.3       23 UNK        -0.0205 
     16 S16         3.7116  -22.2816  -49.3313 S.3       23 UNK        -0.2404 
     17 C17         3.0493  -21.9258  -47.6721 C.3       23 UNK        -0.0398 
     18 CA          2.0037  -22.9767  -47.2246 C.3       11 UNK         0.1400 
     19 N           1.9705  -23.1246  -45.7695 N.am      11 UNK        -0.5000 
     20 C           1.3708  -24.1276  -45.1139 C.2       10 UNK         0.5000 
     21 O           0.8046  -25.0711  -45.6671 O.2       10 UNK        -0.5000 
     22 CA          1.3739  -24.0317  -43.5770 C.3       10 UNK         0.1400 
     23 CB          2.6806  -24.5967  -43.0006 C.3       10 UNK        -0.1800 
     24 N           1.1834  -22.6598  -43.0984 N.am      10 UNK        -0.5000 
     25 C           0.0473  -21.9667  -43.2551 C.2       9 UNK         0.5000 
     26 O          -0.9549  -22.4168  -43.8063 O.2       9 UNK        -0.5000 
     27 CA          0.0366  -20.5151  -42.7489 C.3       9 UNK         0.1400 
     28 CB         -0.2297  -20.4813  -41.2369 C.3       9 UNK        -0.1800 
     29 N           1.2523  -19.7522  -43.0465 N.am      9 UNK        -0.5000 
     30 C           1.7908  -19.5731  -44.2620 C.2       8 UNK         0.5000 
     31 O           1.3733  -20.1176  -45.2839 O.2       8 UNK        -0.5000 
     32 CA          2.9630  -18.5842  -44.3343 C.3       8 UNK         0.1400 
     33 CB          3.4300  -18.2899  -45.7718 C.3       8 UNK        -0.1800 
     34 N           2.5536  -17.3441  -43.6825 N.am      8 UNK        -0.5000 
     35 C           3.3077  -16.6110  -42.8569 C.2       7 UNK         0.5000 
     36 O           4.4821  -16.8669  -42.5890 O.2       7 UNK        -0.5000 
     37 CA          2.6235  -15.3993  -42.1938 C.3       7 UNK         0.1400 
     38 CB          2.9693  -14.1064  -42.9423 C.3       7 UNK        -0.1800 
     39 N           1.1635  -15.5319  -42.0999 N.am      7 UNK        -0.5000 
     40 C           0.5465  -16.3433  -41.2268 C.2       6 UNK         0.5000 
     41 O           1.1471  -17.0720  -40.4371 O.2       6 UNK        -0.5000 
     42 CA         -0.9880  -16.3776  -41.2562 C.3       6 UNK         0.1400 
     43 CB         -1.5838  -15.1915  -40.4834 C.3       6 UNK        -0.1800 
     44 N          -1.4923  -16.3641  -42.6280 N.am      6 UNK        -0.5000 
     45 C          -2.3039  -17.2903  -43.1554 C.2       5 UNK         0.5000 
     46 O          -2.6896  -18.2861  -42.5420 O.2       5 UNK        -0.5000 
     47 CA         -2.7522  -17.0752  -44.6186 C.3       5 UNK         0.1400 
     48 CB         -4.1225  -17.7135  -44.9277 C.3       5 UNK        -0.1800 
     49 N          -2.7236  -15.6749  -45.0550 N.am      5 UNK        -0.5000 
     50 C          -3.3966  -14.6402  -44.5301 C.2       4 UNK         0.5000 
     51 O          -4.1822  -14.7216  -43.5844 O.2       4 UNK        -0.5000 
     52 CA         -3.0979  -13.2677  -45.1599 C.3       4 UNK         0.1400 
     53 CB         -4.3962  -12.5178  -45.5006 C.3       4 UNK        -0.1800 
     54 N          -2.2591  -12.4098  -44.3194 N.am      4 UNK        -0.5000 
     55 C          -1.0691  -12.7198  -43.7887 C.2       3 UNK         0.5000 
     56 O          -0.5407  -13.8386  -43.8368 O.2       3 UNK        -0.5000 
     57 CA         -0.2904  -11.5597  -43.1538 C.3       3 UNK         0.1400 
     58 CB         -0.0505  -11.7899  -41.6543 C.3       3 UNK        -0.1800 
     59 N           0.9845  -11.5286  -43.8534 N.am      3 UNK        -0.5000 
     60 C           1.3809  -10.5821  -44.7102 C.2       2 UNK         0.5000 
     61 O           0.8672   -9.4666  -44.7998 O.2       2 UNK        -0.5000 
     62 CA          2.5087  -10.9924  -45.6789 C.3       2 UNK         0.1400 
     63 CB          3.8862  -10.7285  -45.0528 C.3       2 UNK        -0.1800 
     64 N           2.4269  -12.4019  -46.0834 N.am      2 UNK        -0.5000 
     65 C           1.4038  -12.9718  -46.7375 C.2       1 UNK         0.5000 
     66 O           0.4269  -12.3401  -47.1433 O.2       1 UNK        -0.5000 
     67 C           0.5993  -22.6626  -47.7710 C.2       11 UNK         0.5000 
     68 O           0.1488  -23.3186  -48.7090 O.2       11 UNK        -0.5000 
     69 N          -0.0882  -21.7107  -47.1241 N.am      12 UNK        -0.5000 
     70 CA         -1.4626  -21.3224  -47.4244 C.3       12 UNK         0.1400 
     71 CB         -1.8590  -20.1168  -46.5647 C.3       12 UNK        -0.1800 
     72 C          -2.4617  -22.4772  -47.2440 C.2       12 UNK         0.5000 
     73 O          -3.3278  -22.6523  -48.0988 O.2       12 UNK        -0.5000 
     74 N          -2.3098  -23.2631  -46.1686 N.am      13 UNK        -0.5000 
     75 CA         -3.1094  -24.4569  -45.8893 C.3       13 UNK         0.1400 
     76 CB         -2.7749  -24.9990  -44.4918 C.3       13 UNK        -0.1800 
     77 C          -2.9336  -25.5506  -46.9564 C.2       13 UNK         0.5000 
     78 O          -3.9322  -26.0777  -47.4479 O.2       13 UNK        -0.5000 
     79 N          -1.6784  -25.8324  -47.3378 N.am      14 UNK        -0.5000 
     80 CA         -1.3292  -26.7660  -48.4147 C.3       14 UNK         0.1400 
     81 CB          0.1945  -26.9575  -48.4485 C.3       14 UNK        -0.1800 
     82 C          -1.8542  -26.3155  -49.7931 C.2       14 UNK         0.5000 
     83 O          -2.2547  -27.1519  -50.6027 O.2       14 UNK        -0.5000 
     84 N          -1.8827  -24.9958  -50.0072 N.am      15 UNK        -0.5000 
     85 CA         -2.4335  -24.3175  -51.1780 C.3       15 UNK         0.1400 
     86 CB         -1.7405  -22.9543  -51.2943 C.3       15 UNK        -0.1800 
     87 C          -3.9697  -24.1555  -51.1552 C.2       15 UNK         0.5000 
     88 O          -4.5069  -23.5232  -52.0644 O.2       15 UNK        -0.5000 
     89 N          -4.6451  -24.7081  -50.1348 N.am      16 UNK        -0.5000 
     90 CA         -6.0926  -24.6791  -49.9031 C.3       16 UNK         0.1400 
     91 CB         -6.8450  -25.4761  -50.9890 C.3       16 UNK        -0.1800 
     92 C          -6.6251  -23.2457  -49.7020 C.2       16 UNK         0.5000 
     93 O          -7.4649  -22.7703  -50.4676 O.2       16 UNK        -0.5000 
     94 N          -6.0973  -22.5924  -48.6587 N.am      17 UNK        -0.5000 
     95 CA         -6.3478  -21.2123  -48.2314 C.3       17 UNK         0.1400 
     96 CB         -7.8404  -20.9635  -47.9270 C.3       17 UNK        -0.1800 
     97 C          -5.7325  -20.1770  -49.1929 C.2       17 UNK         0.5000 
     98 O          -6.3173  -19.1142  -49.4110 O.2       17 UNK        -0.5000 
     99 N          -4.5470  -20.5078  -49.7286 N.am      18 UNK        -0.5000 
    100 CA        -3.6813  -19.7278  -50.6230 C.3       18 UNK         0.1400 
    101 CB        -3.1894  -18.4364  -49.9376 C.3       18 UNK        -0.1800 
    102 C         -4.2816  -19.4292  -52.0101 C.2       18 UNK         0.5000 
    103 O         -3.6835  -19.7879  -53.0261 O.2       18 UNK        -0.5000 
    104 N         -5.4414  -18.7647  -52.0279 N.am      19 UNK        -0.5000 
    105 CA        -6.1071  -18.2059  -53.2048 C.3       19 UNK         0.1400 
    106 CB        -7.3314  -17.4012  -52.7442 C.3       19 UNK        -0.1800 
    107 C         -6.5143  -19.2409  -54.2680 C.2       19 UNK         0.5000 
    108 O         -6.5841  -18.8937  -55.4472 O.2       19 UNK        -0.5000 
    109 N         -6.7554  -20.4901  -53.8505 N.am      20 UNK        -0.5000 
    110 CA        -7.1117  -21.5951  -54.7401 C.3       20 UNK         0.1400 
    111 CB        -7.6141  -22.7759  -53.9001 C.3       20 UNK        -0.1800 
    112 C         -5.9614  -22.0343  -55.6681 C.2       20 UNK         0.5000 
    113 O         -6.2386  -22.5432  -56.7554 O.2       20 UNK        -0.5000 
    114 N         -4.7081  -21.8272  -55.2392 N.am      21 UNK        -0.5000 
    115 CA        -3.5102  -22.1607  -56.0099 C.3       21 UNK         0.1400 
    116 CB        -2.5527  -22.9804  -55.1324 C.3       21 UNK        -0.1800 
    117 C         -2.8021  -20.9023  -56.5364 C.2       21 UNK         0.5000 
    118 O         -2.3662  -20.9000  -57.6885 O.2       21 UNK        -0.5000 
    119 N         -2.6857  -19.8695  -55.6918 N.am      22 UNK        -0.5000 
    120 CA        -1.8980  -18.6518  -55.9561 C.3       22 UNK         0.1400 
    121 C         -2.7623  -17.3882  -56.2335 C.2       22 UNK         0.5000 
    122 N         -4.0829  -17.4778  -56.3180 N.am      22 UNK        -0.7600 
    123 O         -2.2232  -16.2978  -56.4021 O.2       22 UNK        -0.5000 
    124 C124       -0.8593  -18.3982  -54.8304 C.3       23 UNK        -0.0398 
    125 S125        0.3757  -19.7414  -54.7094 S.3       23 UNK        -0.2404 
    126 C126       -0.0677  -20.5340  -53.1330 C.3       23 UNK        -0.0205 
    127 H127        4.6454  -15.6003  -49.1972 H         1 UNK         0.0600 
    128 H128        5.7901  -14.5903  -48.3071 H         1 UNK         0.0600 
    129 H129        5.5267  -16.2690  -47.8215 H         1 UNK         0.0600 
    130 H130        2.5471  -15.0525  -48.7156 H         1 UNK         0.3000 
    131 H131        1.5760  -14.9636  -45.9926 H         1 UNK         0.0600 
    132 H132       -0.6519  -14.8615  -46.9796 H         1 UNK         0.0800 
    133 H133       -0.0150  -14.5421  -48.5652 H         1 UNK         0.0800 
    134 H134       -0.3811  -16.4950  -50.2166 H         1 UNK         0.0800 
    135 H135        1.3052  -16.1175  -49.9763 H         1 UNK         0.0800 
    136 H136       -0.6525  -18.2875  -51.7087 H         1 UNK         0.1150 
    137 H137        2.2343  -21.4365  -51.9857 H         1 UNK         0.1150 
    138 H138        2.7040  -18.3490  -49.0475 H         1 UNK         0.1150 
    139 H139        4.5739  -20.6612  -50.8799 H         1 UNK         0.0800 
    140 H140        4.4256  -19.9773  -49.2823 H         1 UNK         0.0800 
    141 H141        2.6413  -20.9141  -47.6324 H         1 UNK         0.0800 
    142 H142        3.9019  -21.9290  -46.9917 H         1 UNK         0.0800 
    143 H143        2.2997  -23.9490  -47.6257 H         1 UNK         0.0600 
    144 H144        2.3386  -22.3543  -45.2314 H         1 UNK         0.3000 
    145 H145        0.5466  -24.6400  -43.2050 H         1 UNK         0.0600 
    146 H146        2.6596  -24.6044  -41.9107 H         1 UNK         0.0600 
    147 H147        2.8387  -25.6250  -43.3288 H         1 UNK         0.0600 
    148 H148        3.5471  -24.0144  -43.3162 H         1 UNK         0.0600 
    149 H149        1.9640  -22.2177  -42.6357 H         1 UNK         0.3000 
    150 H150       -0.7881  -20.0095  -43.2524 H         1 UNK         0.0600 
    151 H151       -1.1477  -21.0166  -40.9903 H         1 UNK         0.0600 
    152 H152       -0.3487  -19.4599  -40.8792 H         1 UNK         0.0600 
    153 H153        0.5825  -20.9409  -40.6728 H         1 UNK         0.0600 
    154 H154        1.6678  -19.2606  -42.2677 H         1 UNK         0.3000 
    155 H155        3.7911  -19.0425  -43.7899 H         1 UNK         0.0600 
    156 H156        4.2744  -17.6011  -45.7732 H         1 UNK         0.0600 
    157 H157        2.6346  -17.8464  -46.3707 H         1 UNK         0.0600 
    158 H158        3.7561  -19.2004  -46.2743 H         1 UNK         0.0600 
    159 H159        1.5912  -17.0715  -43.8185 H         1 UNK         0.3000 
    160 H160        3.0288  -15.3166  -41.1829 H         1 UNK         0.0600 
    161 H161        2.4850  -14.0779  -43.9158 H         1 UNK         0.0600 
    162 H162        4.0443  -14.0206  -43.1082 H         1 UNK         0.0600 
    163 H163        2.6630  -13.2299  -42.3729 H         1 UNK         0.0600 
    164 H164        0.6076  -14.9512  -42.7185 H         1 UNK         0.3000 
    165 H165       -1.2949  -17.2900  -40.7421 H         1 UNK         0.0600 
    166 H166       -1.3758  -14.2438  -40.9767 H         1 UNK         0.0600 
    167 H167       -2.6665  -15.2875  -40.3987 H         1 UNK         0.0600 
    168 H168       -1.1806  -15.1363  -39.4714 H         1 UNK         0.0600 
    169 H169       -1.2418  -15.5619  -43.1968 H         1 UNK         0.3000 
    170 H170       -2.0064  -17.5869  -45.2266 H         1 UNK         0.0600 
    171 H171       -4.1127  -18.7855  -44.7269 H         1 UNK         0.0600 
    172 H172       -4.9172  -17.2756  -44.3232 H         1 UNK         0.0600 
    173 H173       -4.3888  -17.5857  -45.9770 H         1 UNK         0.0600 
    174 H174       -2.0865  -15.4829  -45.8130 H         1 UNK         0.3000 
    175 H175       -2.5572  -13.4259  -46.0952 H         1 UNK         0.0600 
    176 H176       -4.1895  -11.5980  -46.0483 H         1 UNK         0.0600 
    177 H177       -5.0470  -13.1283  -46.1280 H         1 UNK         0.0600 
    178 H178       -4.9578  -12.2551  -44.6032 H         1 UNK         0.0600 
    179 H179       -2.5945  -11.4646  -44.2050 H         1 UNK         0.3000 
    180 H180       -0.8376  -10.6240  -43.2873 H         1 UNK         0.0600 
    181 H181        0.4639  -12.7308  -41.4592 H         1 UNK         0.0600 
    182 H182       -0.9945  -11.8085  -41.1088 H         1 UNK         0.0600 
    183 H183        0.5538  -10.9886  -41.2289 H         1 UNK         0.0600 
    184 H184        1.4515  -12.4214  -43.9099 H         1 UNK         0.3000 
    185 H185        2.4141  -10.3804  -46.5781 H         1 UNK         0.0600 
    186 H186        4.6881  -10.9475  -45.7582 H         1 UNK         0.0600 
    187 H187        3.9881   -9.6829  -44.7593 H         1 UNK         0.0600 
    188 H188        4.0477  -11.3376  -44.1624 H         1 UNK         0.0600 
    189 H189        3.2144  -12.9985  -45.8447 H         1 UNK         0.3000 
    190 H190        0.3750  -21.2012  -46.3744 H         1 UNK         0.3000 
    191 H191       -1.4924  -21.0120  -48.4702 H         1 UNK         0.0600 
    192 H192       -1.1805  -19.2812  -46.7341 H         1 UNK         0.0600 
    193 H193       -2.8657  -19.7775  -46.8112 H         1 UNK         0.0600 
    194 H194       -1.8403  -20.3537  -45.5008 H         1 UNK         0.0600 
    195 H195       -1.6171  -23.0100  -45.4686 H         1 UNK         0.3000 
    196 H196       -4.1599  -24.1590  -45.8917 H         1 UNK         0.0600 
    197 H197       -3.3552  -25.8955  -44.2699 H         1 UNK         0.0600 
    198 H198       -3.0057  -24.2647  -43.7201 H         1 UNK         0.0600 
    199 H199       -1.7198  -25.2586  -44.4015 H         1 UNK         0.0600 
    200 H200       -0.9061  -25.3660  -46.8736 H         1 UNK         0.3000 
    201 H201       -1.7894  -27.7289  -48.1843 H         1 UNK         0.0600 
    202 H202        0.5634  -27.3484  -47.5000 H         1 UNK         0.0600 
    203 H203        0.7139  -26.0193  -48.6468 H         1 UNK         0.0600 
    204 H204        0.4830  -27.6647  -49.2270 H         1 UNK         0.0600 
    205 H205       -1.4620  -24.3927  -49.3073 H         1 UNK         0.3000 
    206 H206       -2.1916  -24.8983  -52.0702 H         1 UNK         0.0600 
    207 H207       -0.6776  -23.0736  -51.5032 H         1 UNK         0.0600 
    208 H208       -2.1726  -22.3526  -52.0904 H         1 UNK         0.0600 
    209 H209       -1.8317  -22.3841  -50.3723 H         1 UNK         0.0600 
    210 H210       -4.1067  -25.1740  -49.4145 H         1 UNK         0.3000 
    211 H211       -6.2582  -25.1980  -48.9576 H         1 UNK         0.0600 
    212 H212       -6.7017  -25.0566  -51.9833 H         1 UNK         0.0600 
    213 H213       -7.9174  -25.4883  -50.7911 H         1 UNK         0.0600 
    214 H214       -6.5084  -26.5124  -51.0155 H         1 UNK         0.0600 
    215 H215       -5.3223  -23.0402  -48.1818 H         1 UNK         0.3000 
    216 H216       -5.8068  -21.0946  -47.2914 H         1 UNK         0.0600 
    217 H217       -8.2380  -21.7220  -47.2529 H         1 UNK         0.0600 
    218 H218       -8.4480  -20.9647  -48.8321 H         1 UNK         0.0600 
    219 H219       -7.9817  -19.9956  -47.4449 H         1 UNK         0.0600 
    220 H220       -4.1773  -21.4132  -49.4575 H         1 UNK         0.3000 
    221 H221       -2.7993  -20.3401  -50.8030 H         1 UNK         0.0600 
    222 H222       -4.0115  -17.8140  -49.5849 H         1 UNK         0.0600 
    223 H223       -2.5518  -18.6617  -49.0833 H         1 UNK         0.0600 
    224 H224       -2.6038  -17.8246  -50.6230 H         1 UNK         0.0600 
    225 H225       -5.8821  -18.5935  -51.1267 H         1 UNK         0.3000 
    226 H226       -5.4044  -17.5170  -53.6773 H         1 UNK         0.0600 
    227 H227       -7.0426  -16.5956  -52.0689 H         1 UNK         0.0600 
    228 H228       -7.8436  -16.9452  -53.5926 H         1 UNK         0.0600 
    229 H229       -8.0528  -18.0326  -52.2237 H         1 UNK         0.0600 
    230 H230       -6.6640  -20.7026  -52.8672 H         1 UNK         0.3000 
    231 H231       -7.9343  -21.2627  -55.3770 H         1 UNK         0.0600 
    232 H232       -8.4862  -22.4995  -53.3073 H         1 UNK         0.0600 
    233 H233       -6.8428  -23.1248  -53.2157 H         1 UNK         0.0600 
    234 H234       -7.9007  -23.6173  -54.5320 H         1 UNK         0.0600 
    235 H235       -4.5677  -21.3949  -54.3348 H         1 UNK         0.3000 
    236 H236       -3.7699  -22.7778  -56.8724 H         1 UNK         0.0600 
    237 H237       -3.0471  -23.8579  -54.7151 H         1 UNK         0.0600 
    238 H238       -1.6966  -23.3290  -55.7110 H         1 UNK         0.0600 
    239 H239       -2.1656  -22.3869  -54.3070 H         1 UNK         0.0600 
    240 H240       -3.0829  -19.9329  -54.7579 H         1 UNK         0.3000 
    241 H241       -1.3283  -18.7881  -56.8768 H         1 UNK         0.0600 
    242 H242       -4.6171  -16.6473  -56.5172 H         1 UNK         0.3800 
    243 H243       -4.5655  -18.3569  -56.1977 H         1 UNK         0.3800 
    244 H244       -0.3050  -17.4767  -55.0155 H         1 UNK         0.0800 
    245 H245       -1.3677  -18.2577  -53.8767 H         1 UNK         0.0800 
    246 H246       -1.1406  -20.4560  -52.9649 H         1 UNK         0.0800 
    247 H247        0.1529  -21.5988  -53.2150 H         1 UNK         0.0800 
@<TRIPOS>BOND
     1    1    2 1    
     2    1  127 1    
     3    1  128 1    
     4    1  129 1    
     5    2    3 2    
     6    2    4 am   BACKBONE|DICT|INTERRES
     7    4    5 1    
     8    4  130 1    
     9    5    6 1    
    10    5   65 1    
    11    5  131 1    
    12    6    7 1    
    13    6  132 1    
    14    6  133 1    
    15    7    8 1    
    16    8    9 1    
    17    8  134 1    
    18    8  135 1    
    19    9   10 ar   
    20    9   14 ar   
    21   10   11 ar   
    22   10  136 1    
    23   11   12 ar   
    24   11  126 1    
    25   12   13 ar   
    26   12  137 1    
    27   13   14 ar   
    28   13   15 1    
    29   14  138 1    
    30   15   16 1    
    31   15  139 1    
    32   15  140 1    
    33   16   17 1    
    34   17   18 1    
    35   17  141 1    
    36   17  142 1    
    37   18   19 1    
    38   18   67 1    
    39   18  143 1    
    40   19   20 am   BACKBONE|DICT|INTERRES
    41   19  144 1    
    42   20   21 2    
    43   20   22 1    
    44   22   23 1    
    45   22   24 1    
    46   22  145 1    
    47   23  146 1    
    48   23  147 1    
    49   23  148 1    
    50   24   25 am   BACKBONE|DICT|INTERRES
    51   24  149 1    
    52   25   26 2    
    53   25   27 1    
    54   27   28 1    
    55   27   29 1    
    56   27  150 1    
    57   28  151 1    
    58   28  152 1    
    59   28  153 1    
    60   29   30 am   BACKBONE|DICT|INTERRES
    61   29  154 1    
    62   30   31 2    
    63   30   32 1    
    64   32   33 1    
    65   32   34 1    
    66   32  155 1    
    67   33  156 1    
    68   33  157 1    
    69   33  158 1    
    70   34   35 am   BACKBONE|DICT|INTERRES
    71   34  159 1    
    72   35   36 2    
    73   35   37 1    
    74   37   38 1    
    75   37   39 1    
    76   37  160 1    
    77   38  161 1    
    78   38  162 1    
    79   38  163 1    
    80   39   40 am   BACKBONE|DICT|INTERRES
    81   39  164 1    
    82   40   41 2    
    83   40   42 1    
    84   42   43 1    
    85   42   44 1    
    86   42  165 1    
    87   43  166 1    
    88   43  167 1    
    89   43  168 1    
    90   44   45 am   BACKBONE|DICT|INTERRES
    91   44  169 1    
    92   45   46 2    
    93   45   47 1    
    94   47   48 1    
    95   47   49 1    
    96   47  170 1    
    97   48  171 1    
    98   48  172 1    
    99   48  173 1    
   100   49   50 am   BACKBONE|DICT|INTERRES
   101   49  174 1    
   102   50   51 2    
   103   50   52 1    
   104   52   53 1    
   105   52   54 1    
   106   52  175 1    
   107   53  176 1    
   108   53  177 1    
   109   53  178 1    
   110   54   55 am   BACKBONE|DICT|INTERRES
   111   54  179 1    
   112   55   56 2    
   113   55   57 1    
   114   57   58 1    
   115   57   59 1    
   116   57  180 1    
   117   58  181 1    
   118   58  182 1    
   119   58  183 1    
   120   59   60 am   BACKBONE|DICT|INTERRES
   121   59  184 1    
   122   60   61 2    
   123   60   62 1    
   124   62   63 1    
   125   62   64 1    
   126   62  185 1    
   127   63  186 1    
   128   63  187 1    
   129   63  188 1    
   130   64   65 am   BACKBONE|DICT|INTERRES
   131   64  189 1    
   132   65   66 2    
   133   67   68 2    
   134   67   69 am   BACKBONE|DICT|INTERRES
   135   69   70 1    
   136   69  190 1    
   137   70   71 1    
   138   70   72 1    
   139   70  191 1    
   140   71  192 1    
   141   71  193 1    
   142   71  194 1    
   143   72   73 2    
   144   72   74 am   BACKBONE|DICT|INTERRES
   145   74   75 1    
   146   74  195 1    
   147   75   76 1    
   148   75   77 1    
   149   75  196 1    
   150   76  197 1    
   151   76  198 1    
   152   76  199 1    
   153   77   78 2    
   154   77   79 am   BACKBONE|DICT|INTERRES
   155   79   80 1    
   156   79  200 1    
   157   80   81 1    
   158   80   82 1    
   159   80  201 1    
   160   81  202 1    
   161   81  203 1    
   162   81  204 1    
   163   82   83 2    
   164   82   84 am   BACKBONE|DICT|INTERRES
   165   84   85 1    
   166   84  205 1    
   167   85   86 1    
   168   85   87 1    
   169   85  206 1    
   170   86  207 1    
   171   86  208 1    
   172   86  209 1    
   173   87   88 2    
   174   87   89 am   BACKBONE|DICT|INTERRES
   175   89   90 1    
   176   89  210 1    
   177   90   91 1    
   178   90   92 1    
   179   90  211 1    
   180   91  212 1    
   181   91  213 1    
   182   91  214 1    
   183   92   93 2    
   184   92   94 am   BACKBONE|DICT|INTERRES
   185   94   95 1    
   186   94  215 1    
   187   95   96 1    
   188   95   97 1    
   189   95  216 1    
   190   96  217 1    
   191   96  218 1    
   192   96  219 1    
   193   97   98 2    
   194   97   99 am   BACKBONE|DICT|INTERRES
   195   99  100 1    
   196   99  220 1    
   197  100  101 1    
   198  100  102 1    
   199  100  221 1    
   200  101  222 1    
   201  101  223 1    
   202  101  224 1    
   203  102  103 2    
   204  102  104 am   BACKBONE|DICT|INTERRES
   205  104  105 1    
   206  104  225 1    
   207  105  106 1    
   208  105  107 1    
   209  105  226 1    
   210  106  227 1    
   211  106  228 1    
   212  106  229 1    
   213  107  108 2    
   214  107  109 am   BACKBONE|DICT|INTERRES
   215  109  110 1    
   216  109  230 1    
   217  110  111 1    
   218  110  112 1    
   219  110  231 1    
   220  111  232 1    
   221  111  233 1    
   222  111  234 1    
   223  112  113 2    
   224  112  114 am   BACKBONE|DICT|INTERRES
   225  114  115 1    
   226  114  235 1    
   227  115  116 1    
   228  115  117 1    
   229  115  236 1    
   230  116  237 1    
   231  116  238 1    
   232  116  239 1    
   233  117  118 2    
   234  117  119 am   BACKBONE|DICT|INTERRES
   235  119  120 1    
   236  119  240 1    
   237  120  121 1    
   238  120  124 1    
   239  120  241 1    
   240  121  122 am   BACKBONE|DICT|INTERRES
   241  121  123 2    
   242  122  242 1    
   243  122  243 1    
   244  124  125 1    
   245  124  244 1    
   246  124  245 1    
   247  125  126 1    
   248  126  246 1    
   249  126  247 1    
@<TRIPOS>SUBSTRUCTURE
     1 UNK         1 GROUP             0       ****    0 ROOT    
