@<TRIPOS>MOLECULE
3R540
247   249    1
SMALL
USER_CHARGES


@<TRIPOS>ATOM
      1 CA         -6.1310  -10.2501  -48.8227 C.3       0 UNK        -0.1800 
      2 C          -4.8114  -11.0016  -48.9188 C.2       0 UNK         0.5000 
      3 O          -3.7488  -10.4005  -48.7575 O.2       0 UNK        -0.5000 
      4 N          -4.8711  -12.3177  -49.1656 N.am      1 UNK        -0.5000 
      5 CA         -3.7056  -13.2025  -49.3019 C.3       1 UNK         0.1400 
      6 C6         -4.0878  -14.5754  -49.9071 C.3       23 UNK        -0.0398 
      7 S7         -5.2345  -15.5891  -48.9007 S.3       23 UNK        -0.2404 
      8 C8         -4.1085  -16.6466  -47.9272 C.3       23 UNK        -0.0205 
      9 C9         -3.3324  -17.6501  -48.7707 C.ar      23 UNK        -0.0193 
     10 C10        -2.0611  -17.3323  -49.2580 C.ar      23 UNK        -0.1150 
     11 C11        -1.3323  -18.2548  -50.0120 C.ar      23 UNK        -0.0193 
     12 C12        -1.8782  -19.5184  -50.2554 C.ar      23 UNK        -0.1150 
     13 C13        -3.1284  -19.8705  -49.7349 C.ar      23 UNK        -0.0193 
     14 C14        -3.8578  -18.9223  -49.0107 C.ar      23 UNK        -0.1150 
     15 C15        -3.6989  -21.2722  -49.9341 C.3       23 UNK        -0.0205 
     16 S16        -2.4947  -22.6215  -49.6611 S.3       23 UNK        -0.2404 
     17 C17        -1.6478  -22.1001  -48.1312 C.3       23 UNK        -0.0398 
     18 CA         -1.0482  -23.2894  -47.3426 C.3       11 UNK         0.1400 
     19 N           0.1586  -22.9087  -46.6041 N.am      11 UNK        -0.5000 
     20 C           0.9714  -23.7593  -45.9617 C.2       10 UNK         0.5000 
     21 O           0.8301  -24.9811  -45.9775 O.2       10 UNK        -0.5000 
     22 CA          2.0975  -23.1397  -45.1119 C.3       10 UNK         0.1400 
     23 CB          3.3285  -22.8171  -45.9714 C.3       10 UNK        -0.1800 
     24 N           1.6602  -21.9401  -44.3947 N.am      10 UNK        -0.5000 
     25 C           0.7192  -21.9404  -43.4389 C.2       9 UNK         0.5000 
     26 O           0.1779  -22.9622  -43.0164 O.2       9 UNK        -0.5000 
     27 CA          0.2672  -20.5707  -42.9019 C.3       9 UNK         0.1400 
     28 CB          1.2381  -20.0578  -41.8285 C.3       9 UNK        -0.1800 
     29 N           0.1221  -19.5699  -43.9603 N.am      9 UNK        -0.5000 
     30 C          -0.7636  -19.6466  -44.9647 C.2       8 UNK         0.5000 
     31 O          -1.5934  -20.5491  -45.0742 O.2       8 UNK        -0.5000 
     32 CA         -0.6694  -18.5685  -46.0600 C.3       8 UNK         0.1400 
     33 CB         -1.3465  -17.2655  -45.6088 C.3       8 UNK        -0.1800 
     34 N           0.7130  -18.2903  -46.4480 N.am      8 UNK        -0.5000 
     35 C           1.5482  -19.1787  -47.0035 C.2       7 UNK         0.5000 
     36 O           1.2188  -20.3224  -47.3110 O.2       7 UNK        -0.5000 
     37 CA          3.0100  -18.7375  -47.1931 C.3       7 UNK         0.1400 
     38 CB          3.2044  -17.9593  -48.5019 C.3       7 UNK        -0.1800 
     39 N           3.4747  -17.9262  -46.0709 N.am      7 UNK        -0.5000 
     40 C           3.7651  -18.4175  -44.8594 C.2       6 UNK         0.5000 
     41 O           3.6930  -19.6125  -44.5704 O.2       6 UNK        -0.5000 
     42 CA          4.1706  -17.3922  -43.7849 C.3       6 UNK         0.1400 
     43 CB          5.6628  -17.0469  -43.8994 C.3       6 UNK        -0.1800 
     44 N           3.3794  -16.1612  -43.8519 N.am      6 UNK        -0.5000 
     45 C           2.0722  -16.0984  -43.5658 C.2       5 UNK         0.5000 
     46 O           1.4034  -17.0706  -43.2177 O.2       5 UNK        -0.5000 
     47 CA          1.3873  -14.7295  -43.7207 C.3       5 UNK         0.1400 
     48 CB          1.6324  -13.8652  -42.4747 C.3       5 UNK        -0.1800 
     49 N           1.7688  -13.9708  -44.9158 N.am      5 UNK        -0.5000 
     50 C           1.7080  -14.4046  -46.1826 C.2       4 UNK         0.5000 
     51 O           1.4917  -15.5758  -46.4930 O.2       4 UNK        -0.5000 
     52 CA          1.8635  -13.3286  -47.2743 C.3       4 UNK         0.1400 
     53 CB          1.7781  -13.9110  -48.6964 C.3       4 UNK        -0.1800 
     54 N           0.8078  -12.3308  -47.1109 N.am      4 UNK        -0.5000 
     55 C           0.9094  -11.2052  -46.3889 C.2       3 UNK         0.5000 
     56 O           1.9587  -10.8256  -45.8683 O.2       3 UNK        -0.5000 
     57 CA         -0.3863  -10.3986  -46.1562 C.3       3 UNK         0.1400 
     58 CB         -0.5608   -9.3308  -47.2460 C.3       3 UNK        -0.1800 
     59 N          -1.5821  -11.2420  -46.1192 N.am      3 UNK        -0.5000 
     60 C          -1.8133  -12.2106  -45.2199 C.2       2 UNK         0.5000 
     61 O          -1.1231  -12.3809  -44.2155 O.2       2 UNK        -0.5000 
     62 CA         -2.9855  -13.1757  -45.4946 C.3       2 UNK         0.1400 
     63 CB         -4.1215  -12.9517  -44.4852 C.3       2 UNK        -0.1800 
     64 N          -3.5411  -13.0989  -46.8484 N.am      2 UNK        -0.5000 
     65 C          -2.8942  -13.3571  -47.9955 C.2       1 UNK         0.5000 
     66 O          -1.7082  -13.6824  -48.0483 O.2       1 UNK        -0.5000 
     67 C          -2.0955  -23.9425  -46.4199 C.2       11 UNK         0.5000 
     68 O          -2.6142  -25.0079  -46.7493 O.2       11 UNK        -0.5000 
     69 N          -2.3506  -23.3253  -45.2573 N.am      12 UNK        -0.5000 
     70 CA         -3.2477  -23.8416  -44.2221 C.3       12 UNK         0.1400 
     71 CB         -3.4038  -22.8000  -43.1045 C.3       12 UNK        -0.1800 
     72 C          -2.7878  -25.1989  -43.6574 C.2       12 UNK         0.5000 
     73 O          -3.6100  -26.1051  -43.5192 O.2       12 UNK        -0.5000 
     74 N          -1.4783  -25.3399  -43.4045 N.am      13 UNK        -0.5000 
     75 CA         -0.8388  -26.5891  -42.9789 C.3       13 UNK         0.1400 
     76 CB          0.6236  -26.3109  -42.6009 C.3       13 UNK        -0.1800 
     77 C          -0.9264  -27.7119  -44.0337 C.2       13 UNK         0.5000 
     78 O          -1.0261  -28.8830  -43.6671 O.2       13 UNK        -0.5000 
     79 N          -0.9323  -27.3338  -45.3187 N.am      14 UNK        -0.5000 
     80 CA         -1.1348  -28.2170  -46.4696 C.3       14 UNK         0.1400 
     81 CB         -0.4552  -27.5904  -47.6995 C.3       14 UNK        -0.1800 
     82 C          -2.6215  -28.5337  -46.7535 C.2       14 UNK         0.5000 
     83 O          -2.9048  -29.2132  -47.7408 O.2       14 UNK        -0.5000 
     84 N          -3.5361  -28.0528  -45.8965 N.am      15 UNK        -0.5000 
     85 CA         -4.9938  -28.2061  -45.9579 C.3       15 UNK         0.1400 
     86 CB         -5.4146  -29.6911  -45.9123 C.3       15 UNK        -0.1800 
     87 C          -5.6461  -27.4139  -47.1110 C.2       15 UNK         0.5000 
     88 O          -6.6621  -27.8485  -47.6573 O.2       15 UNK        -0.5000 
     89 N          -5.0696  -26.2416  -47.4114 N.am      16 UNK        -0.5000 
     90 CA         -5.4814  -25.2333  -48.3909 C.3       16 UNK         0.1400 
     91 CB         -6.9298  -24.7619  -48.1401 C.3       16 UNK        -0.1800 
     92 C          -5.2502  -25.6446  -49.8580 C.2       16 UNK         0.5000 
     93 O          -4.9785  -26.8057  -50.1708 O.2       16 UNK        -0.5000 
     94 N          -5.3576  -24.6430  -50.7328 N.am      17 UNK        -0.5000 
     95 CA         -5.1937  -24.6839  -52.1805 C.3       17 UNK         0.1400 
     96 CB         -3.7131  -24.9106  -52.5551 C.3       17 UNK        -0.1800 
     97 C          -5.7320  -23.3477  -52.7251 C.2       17 UNK         0.5000 
     98 O          -6.3453  -22.5847  -51.9706 O.2       17 UNK        -0.5000 
     99 N          -5.4903  -23.0681  -54.0119 N.am      18 UNK        -0.5000 
    100 CA        -5.7883  -21.7805  -54.6409 C.3       18 UNK         0.1400 
    101 CB        -5.5771  -21.8947  -56.1590 C.3       18 UNK        -0.1800 
    102 C         -4.9141  -20.6618  -54.0401 C.2       18 UNK         0.5000 
    103 O         -3.6860  -20.7486  -54.1068 O.2       18 UNK        -0.5000 
    104 N         -5.5623  -19.6563  -53.4423 N.am      19 UNK        -0.5000 
    105 CA        -4.9126  -18.5100  -52.8102 C.3       19 UNK         0.1400 
    106 CB        -5.9330  -17.7957  -51.9137 C.3       19 UNK        -0.1800 
    107 C         -4.3241  -17.5335  -53.8426 C.2       19 UNK         0.5000 
    108 O         -4.8804  -17.3772  -54.9329 O.2       19 UNK        -0.5000 
    109 N         -3.2302  -16.8720  -53.4595 N.am      20 UNK        -0.5000 
    110 CA        -2.4831  -15.8960  -54.2452 C.3       20 UNK         0.1400 
    111 CB        -1.7206  -16.6082  -55.3843 C.3       20 UNK        -0.1800 
    112 C         -1.5221  -15.1592  -53.2969 C.2       20 UNK         0.5000 
    113 O         -1.5515  -15.3969  -52.0877 O.2       20 UNK        -0.5000 
    114 N         -0.6571  -14.3021  -53.8552 N.am      21 UNK        -0.5000 
    115 CA         0.4891  -13.7299  -53.1394 C.3       21 UNK         0.1400 
    116 CB         1.0548  -12.5536  -53.9494 C.3       21 UNK        -0.1800 
    117 C          1.5890  -14.7780  -52.8621 C.2       21 UNK         0.5000 
    118 O          2.3433  -14.6265  -51.9023 O.2       21 UNK        -0.5000 
    119 N          1.6439  -15.8212  -53.7039 N.am      22 UNK        -0.5000 
    120 CA         2.5021  -17.0138  -53.5830 C.3       22 UNK         0.1400 
    121 C          4.0306  -16.7531  -53.7595 C.2       22 UNK         0.5000 
    122 N          4.4504  -15.6139  -54.2959 N.am      22 UNK        -0.7600 
    123 O          4.8524  -17.6083  -53.4406 O.2       22 UNK        -0.5000 
    124 C124        2.1848  -17.8650  -52.3205 C.3       23 UNK        -0.0398 
    125 S125        0.4270  -18.3588  -52.2039 S.3       23 UNK        -0.2404 
    126 C126        0.0761  -17.9049  -50.4745 C.3       23 UNK        -0.0205 
    127 H127       -6.1686   -9.4614  -49.5741 H         1 UNK         0.0600 
    128 H128       -6.2300   -9.7906  -47.8393 H         1 UNK         0.0600 
    129 H129       -6.9854  -10.9093  -48.9783 H         1 UNK         0.0600 
    130 H130       -5.7711  -12.7643  -49.2751 H         1 UNK         0.3000 
    131 H131       -3.0316  -12.7222  -50.0148 H         1 UNK         0.0600 
    132 H132       -4.5626  -14.4156  -50.8760 H         1 UNK         0.0800 
    133 H133       -3.1906  -15.1424  -50.1355 H         1 UNK         0.0800 
    134 H134       -4.7010  -17.1823  -47.1842 H         1 UNK         0.0800 
    135 H135       -3.4197  -16.0269  -47.3559 H         1 UNK         0.0800 
    136 H136       -1.6282  -16.3662  -49.0370 H         1 UNK         0.1150 
    137 H137       -1.3098  -20.2452  -50.8180 H         1 UNK         0.1150 
    138 H138       -4.8298  -19.1793  -48.6137 H         1 UNK         0.1150 
    139 H139       -4.5487  -21.4353  -49.2697 H         1 UNK         0.0800 
    140 H140       -4.0828  -21.3466  -50.9518 H         1 UNK         0.0800 
    141 H141       -2.3191  -21.5002  -47.5140 H         1 UNK         0.0800 
    142 H142       -0.8512  -21.4247  -48.4424 H         1 UNK         0.0800 
    143 H143       -0.7295  -24.0493  -48.0595 H         1 UNK         0.0600 
    144 H144        0.3926  -21.9202  -46.5965 H         1 UNK         0.3000 
    145 H145        2.3947  -23.8805  -44.3668 H         1 UNK         0.0600 
    146 H146        4.1404  -22.4179  -45.3632 H         1 UNK         0.0600 
    147 H147        3.7023  -23.7144  -46.4659 H         1 UNK         0.0600 
    148 H148        3.1027  -22.0870  -46.7477 H         1 UNK         0.0600 
    149 H149        2.0919  -21.0626  -44.6600 H         1 UNK         0.3000 
    150 H150       -0.7111  -20.7050  -42.4361 H         1 UNK         0.0600 
    151 H151        1.3560  -20.7880  -41.0269 H         1 UNK         0.0600 
    152 H152        0.8730  -19.1355  -41.3766 H         1 UNK         0.0600 
    153 H153        2.2275  -19.8587  -42.2409 H         1 UNK         0.0600 
    154 H154        0.7318  -18.7591  -43.9042 H         1 UNK         0.3000 
    155 H155       -1.1930  -18.9420  -46.9421 H         1 UNK         0.0600 
    156 H156       -0.8975  -16.8713  -44.6978 H         1 UNK         0.0600 
    157 H157       -2.4061  -17.4275  -45.4089 H         1 UNK         0.0600 
    158 H158       -1.2684  -16.4945  -46.3756 H         1 UNK         0.0600 
    159 H159        1.0506  -17.3436  -46.2872 H         1 UNK         0.3000 
    160 H160        3.6288  -19.6360  -47.2439 H         1 UNK         0.0600 
    161 H161        4.2243  -17.5858  -48.5934 H         1 UNK         0.0600 
    162 H162        2.5278  -17.1071  -48.5734 H         1 UNK         0.0600 
    163 H163        3.0240  -18.6056  -49.3607 H         1 UNK         0.0600 
    164 H164        3.4790  -16.9252  -46.2046 H         1 UNK         0.3000 
    165 H165        4.0022  -17.8521  -42.8086 H         1 UNK         0.0600 
    166 H166        5.9767  -16.3833  -43.0934 H         1 UNK         0.0600 
    167 H167        6.2769  -17.9463  -43.8361 H         1 UNK         0.0600 
    168 H168        5.8932  -16.5579  -44.8467 H         1 UNK         0.0600 
    169 H169        3.8549  -15.3187  -44.1401 H         1 UNK         0.3000 
    170 H170        0.3138  -14.9128  -43.7945 H         1 UNK         0.0600 
    171 H171        1.3353  -14.3931  -41.5674 H         1 UNK         0.0600 
    172 H172        2.6843  -13.5970  -42.3705 H         1 UNK         0.0600 
    173 H173        1.0534  -12.9423  -42.5148 H         1 UNK         0.0600 
    174 H174        1.9430  -12.9854  -44.7724 H         1 UNK         0.3000 
    175 H175        2.8462  -12.8680  -47.1561 H         1 UNK         0.0600 
    176 H176        0.8317  -14.4248  -48.8709 H         1 UNK         0.0600 
    177 H177        1.8746  -13.1287  -49.4492 H         1 UNK         0.0600 
    178 H178        2.5787  -14.6297  -48.8741 H         1 UNK         0.0600 
    179 H179       -0.1071  -12.6121  -47.4505 H         1 UNK         0.3000 
    180 H180       -0.2975   -9.8966  -45.1906 H         1 UNK         0.0600 
    181 H181       -0.6811   -9.7799  -48.2329 H         1 UNK         0.0600 
    182 H182        0.3054   -8.6691  -47.2880 H         1 UNK         0.0600 
    183 H183       -1.4357   -8.7096  -47.0531 H         1 UNK         0.0600 
    184 H184       -2.2151  -11.1593  -46.9034 H         1 UNK         0.3000 
    185 H185       -2.5995  -14.1878  -45.3572 H         1 UNK         0.0600 
    186 H186       -4.5645  -11.9610  -44.5934 H         1 UNK         0.0600 
    187 H187       -4.9130  -13.6907  -44.6110 H         1 UNK         0.0600 
    188 H188       -3.7588  -13.0393  -43.4601 H         1 UNK         0.0600 
    189 H189       -4.5119  -12.8303  -46.9155 H         1 UNK         0.3000 
    190 H190       -1.9137  -22.4250  -45.0760 H         1 UNK         0.3000 
    191 H191       -4.2264  -23.9911  -44.6828 H         1 UNK         0.0600 
    192 H192       -2.4566  -22.5961  -42.6056 H         1 UNK         0.0600 
    193 H193       -4.1067  -23.1453  -42.3455 H         1 UNK         0.0600 
    194 H194       -3.7841  -21.8563  -43.4962 H         1 UNK         0.0600 
    195 H195       -0.8739  -24.5280  -43.4979 H         1 UNK         0.3000 
    196 H196       -1.3591  -26.9383  -42.0848 H         1 UNK         0.0600 
    197 H197        1.1126  -27.2160  -42.2388 H         1 UNK         0.0600 
    198 H198        0.6914  -25.5648  -41.8089 H         1 UNK         0.0600 
    199 H199        1.1971  -25.9466  -43.4532 H         1 UNK         0.0600 
    200 H200       -0.7968  -26.3521  -45.5314 H         1 UNK         0.3000 
    201 H201       -0.6412  -29.1694  -46.2669 H         1 UNK         0.0600 
    202 H202        0.6001  -27.3941  -47.5094 H         1 UNK         0.0600 
    203 H203       -0.9241  -26.6487  -47.9840 H         1 UNK         0.0600 
    204 H204       -0.5092  -28.2560  -48.5616 H         1 UNK         0.0600 
    205 H205       -3.2039  -27.4817  -45.1286 H         1 UNK         0.3000 
    206 H206       -5.3695  -27.7448  -45.0436 H         1 UNK         0.0600 
    207 H207       -4.9313  -30.2133  -45.0865 H         1 UNK         0.0600 
    208 H208       -6.4914  -29.7856  -45.7683 H         1 UNK         0.0600 
    209 H209       -5.1649  -30.2149  -46.8351 H         1 UNK         0.0600 
    210 H210       -4.1887  -26.0201  -46.9534 H         1 UNK         0.3000 
    211 H211       -4.8278  -24.3793  -48.2073 H         1 UNK         0.0600 
    212 H212       -7.6595  -25.5283  -48.4021 H         1 UNK         0.0600 
    213 H213       -7.1650  -23.8778  -48.7335 H         1 UNK         0.0600 
    214 H214       -7.0824  -24.4953  -47.0942 H         1 UNK         0.0600 
    215 H215       -5.6468  -23.7275  -50.4089 H         1 UNK         0.3000 
    216 H216       -5.8070  -25.4921  -52.5830 H         1 UNK         0.0600 
    217 H217       -3.5913  -25.0392  -53.6307 H         1 UNK         0.0600 
    218 H218       -3.3100  -25.8070  -52.0844 H         1 UNK         0.0600 
    219 H219       -3.0901  -24.0684  -52.2526 H         1 UNK         0.0600 
    220 H220       -4.9586  -23.7242  -54.5646 H         1 UNK         0.3000 
    221 H221       -6.8407  -21.5487  -54.4627 H         1 UNK         0.0600 
    222 H222       -4.5478  -22.1591  -56.4050 H         1 UNK         0.0600 
    223 H223       -6.2313  -22.6510  -56.5930 H         1 UNK         0.0600 
    224 H224       -5.7999  -20.9487  -56.6543 H         1 UNK         0.0600 
    225 H225       -6.5715  -19.6556  -53.4394 H         1 UNK         0.3000 
    226 H226       -4.0986  -18.8786  -52.1839 H         1 UNK         0.0600 
    227 H227       -6.8056  -17.4643  -52.4776 H         1 UNK         0.0600 
    228 H228       -6.2750  -18.4456  -51.1079 H         1 UNK         0.0600 
    229 H229       -5.4887  -16.9144  -51.4532 H         1 UNK         0.0600 
    230 H230       -2.8515  -17.0032  -52.5278 H         1 UNK         0.3000 
    231 H231       -3.1782  -15.1647  -54.6617 H         1 UNK         0.0600 
    232 H232       -2.3982  -17.1532  -56.0413 H         1 UNK         0.0600 
    233 H233       -0.9961  -17.3232  -54.9920 H         1 UNK         0.0600 
    234 H234       -1.1813  -15.8994  -56.0127 H         1 UNK         0.0600 
    235 H235       -0.7098  -14.1191  -54.8467 H         1 UNK         0.3000 
    236 H236        0.1450  -13.3480  -52.1755 H         1 UNK         0.0600 
    237 H237        1.8975  -12.0935  -53.4315 H         1 UNK         0.0600 
    238 H238        1.4064  -12.8712  -54.9317 H         1 UNK         0.0600 
    239 H239        0.3026  -11.7782  -54.0957 H         1 UNK         0.0600 
    240 H240        0.9897  -15.8389  -54.4706 H         1 UNK         0.3000 
    241 H241        2.2426  -17.6303  -54.4442 H         1 UNK         0.0600 
    242 H242        3.7907  -14.9026  -54.5666 H         1 UNK         0.3800 
    243 H243        5.4384  -15.4563  -54.4180 H         1 UNK         0.3800 
    244 H244        2.7751  -18.7826  -52.3187 H         1 UNK         0.0800 
    245 H245        2.4778  -17.3176  -51.4238 H         1 UNK         0.0800 
    246 H246        0.2689  -16.8379  -50.3466 H         1 UNK         0.0800 
    247 H247        0.7703  -18.4355  -49.8268 H         1 UNK         0.0800 
@<TRIPOS>BOND
     1    1    2 1    
     2    1  127 1    
     3    1  128 1    
     4    1  129 1    
     5    2    3 2    
     6    2    4 am   BACKBONE|DICT|INTERRES
     7    4    5 1    
     8    4  130 1    
     9    5    6 1    
    10    5   65 1    
    11    5  131 1    
    12    6    7 1    
    13    6  132 1    
    14    6  133 1    
    15    7    8 1    
    16    8    9 1    
    17    8  134 1    
    18    8  135 1    
    19    9   10 ar   
    20    9   14 ar   
    21   10   11 ar   
    22   10  136 1    
    23   11   12 ar   
    24   11  126 1    
    25   12   13 ar   
    26   12  137 1    
    27   13   14 ar   
    28   13   15 1    
    29   14  138 1    
    30   15   16 1    
    31   15  139 1    
    32   15  140 1    
    33   16   17 1    
    34   17   18 1    
    35   17  141 1    
    36   17  142 1    
    37   18   19 1    
    38   18   67 1    
    39   18  143 1    
    40   19   20 am   BACKBONE|DICT|INTERRES
    41   19  144 1    
    42   20   21 2    
    43   20   22 1    
    44   22   23 1    
    45   22   24 1    
    46   22  145 1    
    47   23  146 1    
    48   23  147 1    
    49   23  148 1    
    50   24   25 am   BACKBONE|DICT|INTERRES
    51   24  149 1    
    52   25   26 2    
    53   25   27 1    
    54   27   28 1    
    55   27   29 1    
    56   27  150 1    
    57   28  151 1    
    58   28  152 1    
    59   28  153 1    
    60   29   30 am   BACKBONE|DICT|INTERRES
    61   29  154 1    
    62   30   31 2    
    63   30   32 1    
    64   32   33 1    
    65   32   34 1    
    66   32  155 1    
    67   33  156 1    
    68   33  157 1    
    69   33  158 1    
    70   34   35 am   BACKBONE|DICT|INTERRES
    71   34  159 1    
    72   35   36 2    
    73   35   37 1    
    74   37   38 1    
    75   37   39 1    
    76   37  160 1    
    77   38  161 1    
    78   38  162 1    
    79   38  163 1    
    80   39   40 am   BACKBONE|DICT|INTERRES
    81   39  164 1    
    82   40   41 2    
    83   40   42 1    
    84   42   43 1    
    85   42   44 1    
    86   42  165 1    
    87   43  166 1    
    88   43  167 1    
    89   43  168 1    
    90   44   45 am   BACKBONE|DICT|INTERRES
    91   44  169 1    
    92   45   46 2    
    93   45   47 1    
    94   47   48 1    
    95   47   49 1    
    96   47  170 1    
    97   48  171 1    
    98   48  172 1    
    99   48  173 1    
   100   49   50 am   BACKBONE|DICT|INTERRES
   101   49  174 1    
   102   50   51 2    
   103   50   52 1    
   104   52   53 1    
   105   52   54 1    
   106   52  175 1    
   107   53  176 1    
   108   53  177 1    
   109   53  178 1    
   110   54   55 am   BACKBONE|DICT|INTERRES
   111   54  179 1    
   112   55   56 2    
   113   55   57 1    
   114   57   58 1    
   115   57   59 1    
   116   57  180 1    
   117   58  181 1    
   118   58  182 1    
   119   58  183 1    
   120   59   60 am   BACKBONE|DICT|INTERRES
   121   59  184 1    
   122   60   61 2    
   123   60   62 1    
   124   62   63 1    
   125   62   64 1    
   126   62  185 1    
   127   63  186 1    
   128   63  187 1    
   129   63  188 1    
   130   64   65 am   BACKBONE|DICT|INTERRES
   131   64  189 1    
   132   65   66 2    
   133   67   68 2    
   134   67   69 am   BACKBONE|DICT|INTERRES
   135   69   70 1    
   136   69  190 1    
   137   70   71 1    
   138   70   72 1    
   139   70  191 1    
   140   71  192 1    
   141   71  193 1    
   142   71  194 1    
   143   72   73 2    
   144   72   74 am   BACKBONE|DICT|INTERRES
   145   74   75 1    
   146   74  195 1    
   147   75   76 1    
   148   75   77 1    
   149   75  196 1    
   150   76  197 1    
   151   76  198 1    
   152   76  199 1    
   153   77   78 2    
   154   77   79 am   BACKBONE|DICT|INTERRES
   155   79   80 1    
   156   79  200 1    
   157   80   81 1    
   158   80   82 1    
   159   80  201 1    
   160   81  202 1    
   161   81  203 1    
   162   81  204 1    
   163   82   83 2    
   164   82   84 am   BACKBONE|DICT|INTERRES
   165   84   85 1    
   166   84  205 1    
   167   85   86 1    
   168   85   87 1    
   169   85  206 1    
   170   86  207 1    
   171   86  208 1    
   172   86  209 1    
   173   87   88 2    
   174   87   89 am   BACKBONE|DICT|INTERRES
   175   89   90 1    
   176   89  210 1    
   177   90   91 1    
   178   90   92 1    
   179   90  211 1    
   180   91  212 1    
   181   91  213 1    
   182   91  214 1    
   183   92   93 2    
   184   92   94 am   BACKBONE|DICT|INTERRES
   185   94   95 1    
   186   94  215 1    
   187   95   96 1    
   188   95   97 1    
   189   95  216 1    
   190   96  217 1    
   191   96  218 1    
   192   96  219 1    
   193   97   98 2    
   194   97   99 am   BACKBONE|DICT|INTERRES
   195   99  100 1    
   196   99  220 1    
   197  100  101 1    
   198  100  102 1    
   199  100  221 1    
   200  101  222 1    
   201  101  223 1    
   202  101  224 1    
   203  102  103 2    
   204  102  104 am   BACKBONE|DICT|INTERRES
   205  104  105 1    
   206  104  225 1    
   207  105  106 1    
   208  105  107 1    
   209  105  226 1    
   210  106  227 1    
   211  106  228 1    
   212  106  229 1    
   213  107  108 2    
   214  107  109 am   BACKBONE|DICT|INTERRES
   215  109  110 1    
   216  109  230 1    
   217  110  111 1    
   218  110  112 1    
   219  110  231 1    
   220  111  232 1    
   221  111  233 1    
   222  111  234 1    
   223  112  113 2    
   224  112  114 am   BACKBONE|DICT|INTERRES
   225  114  115 1    
   226  114  235 1    
   227  115  116 1    
   228  115  117 1    
   229  115  236 1    
   230  116  237 1    
   231  116  238 1    
   232  116  239 1    
   233  117  118 2    
   234  117  119 am   BACKBONE|DICT|INTERRES
   235  119  120 1    
   236  119  240 1    
   237  120  121 1    
   238  120  124 1    
   239  120  241 1    
   240  121  122 am   BACKBONE|DICT|INTERRES
   241  121  123 2    
   242  122  242 1    
   243  122  243 1    
   244  124  125 1    
   245  124  244 1    
   246  124  245 1    
   247  125  126 1    
   248  126  246 1    
   249  126  247 1    
@<TRIPOS>SUBSTRUCTURE
     1 UNK         1 GROUP             0       ****    0 ROOT    
