@<TRIPOS>MOLECULE
3R540
247   249    1
SMALL
USER_CHARGES


@<TRIPOS>ATOM
      1 CA          6.5483  -12.6054  -46.4785 C.3       0 UNK        -0.1800 
      2 C           5.2041  -13.1505  -46.0201 C.2       0 UNK         0.5000 
      3 O           5.0401  -13.4626  -44.8412 O.2       0 UNK        -0.5000 
      4 N           4.2333  -13.2513  -46.9390 N.am      1 UNK        -0.5000 
      5 CA          2.8825  -13.7660  -46.6760 C.3       1 UNK         0.1400 
      6 C6          2.0753  -13.9608  -47.9844 C.3       23 UNK        -0.0398 
      7 S7          0.8679  -15.3239  -47.8734 S.3       23 UNK        -0.2404 
      8 C8         -0.4565  -14.7075  -48.9560 C.3       23 UNK        -0.0205 
      9 C9         -1.3846  -15.8226  -49.4203 C.ar      23 UNK        -0.0193 
     10 C10        -1.2006  -16.4149  -50.6746 C.ar      23 UNK        -0.1150 
     11 C11        -2.0879  -17.3915  -51.1385 C.ar      23 UNK        -0.0193 
     12 C12        -3.1655  -17.7692  -50.3363 C.ar      23 UNK        -0.1150 
     13 C13        -3.3522  -17.2065  -49.0723 C.ar      23 UNK        -0.0193 
     14 C14        -2.4549  -16.2335  -48.6199 C.ar      23 UNK        -0.1150 
     15 C15        -4.5470  -17.6141  -48.2166 C.3       23 UNK        -0.0205 
     16 S16        -4.5773  -19.3898  -47.7929 S.3       23 UNK        -0.2404 
     17 C17        -2.9589  -19.6310  -46.9852 C.3       23 UNK        -0.0398 
     18 CA         -2.0806  -20.6324  -47.7838 C.3       11 UNK         0.1400 
     19 N          -0.7480  -20.0995  -48.0721 N.am      11 UNK        -0.5000 
     20 C           0.1459  -20.6505  -48.9012 C.2       10 UNK         0.5000 
     21 O          -0.0478  -21.7047  -49.5030 O.2       10 UNK        -0.5000 
     22 CA          1.5073  -19.9459  -49.0403 C.3       10 UNK         0.1400 
     23 CB          1.3669  -18.5809  -49.7337 C.3       10 UNK        -0.1800 
     24 N           2.2515  -19.8384  -47.7777 N.am      10 UNK        -0.5000 
     25 C           1.9196  -19.1749  -46.6617 C.2       9 UNK         0.5000 
     26 O           0.8908  -18.5078  -46.5200 O.2       9 UNK        -0.5000 
     27 CA          2.9087  -19.2856  -45.4970 C.3       9 UNK         0.1400 
     28 CB          3.9943  -18.2029  -45.6016 C.3       9 UNK        -0.1800 
     29 N           2.1546  -19.1099  -44.2631 N.am      9 UNK        -0.5000 
     30 C           2.2367  -19.8815  -43.1757 C.2       8 UNK         0.5000 
     31 O           3.0642  -20.7838  -43.0413 O.2       8 UNK        -0.5000 
     32 CA          1.2191  -19.6183  -42.0469 C.3       8 UNK         0.1400 
     33 CB          1.9095  -19.0782  -40.7834 C.3       8 UNK        -0.1800 
     34 N           0.1219  -18.7159  -42.4159 N.am      8 UNK        -0.5000 
     35 C          -0.9252  -19.0792  -43.1706 C.2       7 UNK         0.5000 
     36 O          -1.0042  -20.1594  -43.7539 O.2       7 UNK        -0.5000 
     37 CA         -2.0824  -18.0827  -43.2889 C.3       7 UNK         0.1400 
     38 CB         -2.8334  -17.9390  -41.9542 C.3       7 UNK        -0.1800 
     39 N          -1.6245  -16.7717  -43.7369 N.am      7 UNK        -0.5000 
     40 C          -2.3102  -15.9904  -44.5829 C.2       6 UNK         0.5000 
     41 O          -3.3587  -16.3363  -45.1275 O.2       6 UNK        -0.5000 
     42 CA         -1.7451  -14.5768  -44.8391 C.3       6 UNK         0.1400 
     43 CB         -2.7900  -13.5902  -45.4008 C.3       6 UNK        -0.1800 
     44 N          -1.0846  -14.0100  -43.6615 N.am      6 UNK        -0.5000 
     45 C          -1.6126  -13.8019  -42.4456 C.2       5 UNK         0.5000 
     46 O          -2.8036  -13.9702  -42.1784 O.2       5 UNK        -0.5000 
     47 CA         -0.6412  -13.3427  -41.3376 C.3       5 UNK         0.1400 
     48 CB         -1.0671  -13.8405  -39.9406 C.3       5 UNK        -0.1800 
     49 N           0.7637  -13.6840  -41.5904 N.am      5 UNK        -0.5000 
     50 C           1.3098  -14.9031  -41.7300 C.2       4 UNK         0.5000 
     51 O           0.6503  -15.9465  -41.7343 O.2       4 UNK        -0.5000 
     52 CA          2.8417  -14.9731  -41.9346 C.3       4 UNK         0.1400 
     53 CB          3.2075  -15.9344  -43.0736 C.3       4 UNK        -0.1800 
     54 N           3.4431  -13.6736  -42.2331 N.am      4 UNK        -0.5000 
     55 C           3.8015  -12.7411  -41.3421 C.2       3 UNK         0.5000 
     56 O           3.7394  -12.8972  -40.1228 O.2       3 UNK        -0.5000 
     57 CA          4.2429  -11.3825  -41.9207 C.3       3 UNK         0.1400 
     58 CB          5.7667  -11.3339  -42.1090 C.3       3 UNK        -0.1800 
     59 N           3.5811  -11.0805  -43.1947 N.am      3 UNK        -0.5000 
     60 C           2.2791  -10.7823  -43.3203 C.2       2 UNK         0.5000 
     61 O           1.5087  -10.6812  -42.3653 O.2       2 UNK        -0.5000 
     62 CA          1.7363  -10.6192  -44.7530 C.3       2 UNK         0.1400 
     63 CB          1.9792   -9.1921  -45.2658 C.3       2 UNK        -0.1800 
     64 N           2.3150  -11.5791  -45.6961 N.am      2 UNK        -0.5000 
     65 C           2.1146  -12.9048  -45.6497 C.2       1 UNK         0.5000 
     66 O           1.4062  -13.4527  -44.8074 O.2       1 UNK        -0.5000 
     67 C          -2.0191  -22.0157  -47.0996 C.2       11 UNK         0.5000 
     68 O          -2.8422  -22.8817  -47.3993 O.2       11 UNK        -0.5000 
     69 N          -1.0156  -22.2102  -46.2304 N.am      12 UNK        -0.5000 
     70 CA         -0.7023  -23.4827  -45.5801 C.3       12 UNK         0.1400 
     71 CB          0.3582  -23.2567  -44.4908 C.3       12 UNK        -0.1800 
     72 C          -0.2285  -24.5540  -46.5787 C.2       12 UNK         0.5000 
     73 O          -0.6793  -25.6965  -46.5013 O.2       12 UNK        -0.5000 
     74 N           0.6390  -24.1590  -47.5228 N.am      13 UNK        -0.5000 
     75 CA          1.1395  -25.0159  -48.6032 C.3       13 UNK         0.1400 
     76 CB          2.3234  -24.3272  -49.2993 C.3       13 UNK        -0.1800 
     77 C           0.0372  -25.3783  -49.6161 C.2       13 UNK         0.5000 
     78 O           0.0018  -26.5054  -50.1095 O.2       13 UNK        -0.5000 
     79 N          -0.8750  -24.4282  -49.8543 N.am      14 UNK        -0.5000 
     80 CA         -2.1013  -24.5873  -50.6323 C.3       14 UNK         0.1400 
     81 CB         -2.6119  -23.1891  -51.0149 C.3       14 UNK        -0.1800 
     82 C          -3.2036  -25.3857  -49.9029 C.2       14 UNK         0.5000 
     83 O          -4.2678  -25.5922  -50.4842 O.2       14 UNK        -0.5000 
     84 N          -2.9663  -25.7910  -48.6449 N.am      15 UNK        -0.5000 
     85 CA         -3.8671  -26.5545  -47.7728 C.3       15 UNK         0.1400 
     86 CB         -4.0058  -28.0028  -48.2853 C.3       15 UNK        -0.1800 
     87 C          -5.2292  -25.8612  -47.5520 C.2       15 UNK         0.5000 
     88 O          -6.2640  -26.5278  -47.5000 O.2       15 UNK        -0.5000 
     89 N          -5.1947  -24.5240  -47.4577 N.am      16 UNK        -0.5000 
     90 CA         -6.3245  -23.6003  -47.3210 C.3       16 UNK         0.1400 
     91 CB         -7.1140  -23.8668  -46.0225 C.3       16 UNK        -0.1800 
     92 C          -7.2414  -23.5067  -48.5622 C.2       16 UNK         0.5000 
     93 O          -8.2799  -22.8487  -48.4838 O.2       16 UNK        -0.5000 
     94 N          -6.8418  -24.0990  -49.7005 N.am      17 UNK        -0.5000 
     95 CA         -7.5127  -23.9196  -50.9961 C.3       17 UNK         0.1400 
     96 CB         -7.1813  -25.1018  -51.9192 C.3       17 UNK        -0.1800 
     97 C          -7.1392  -22.5811  -51.6680 C.2       17 UNK         0.5000 
     98 O          -7.7979  -22.1758  -52.6269 O.2       17 UNK        -0.5000 
     99 N          -6.0994  -21.9202  -51.1394 N.am      18 UNK        -0.5000 
    100 CA        -5.5798  -20.6094  -51.5174 C.3       18 UNK         0.1400 
    101 CB        -6.5812  -19.5006  -51.1207 C.3       18 UNK        -0.1800 
    102 C         -5.1265  -20.5648  -52.9889 C.2       18 UNK         0.5000 
    103 O         -4.3611  -21.4350  -53.4047 O.2       18 UNK        -0.5000 
    104 N         -5.5991  -19.5737  -53.7575 N.am      19 UNK        -0.5000 
    105 CA        -5.2275  -19.3011  -55.1513 C.3       19 UNK         0.1400 
    106 CB        -6.0221  -18.0823  -55.6437 C.3       19 UNK        -0.1800 
    107 C         -5.3957  -20.4842  -56.1285 C.2       19 UNK         0.5000 
    108 O         -4.7297  -20.5072  -57.1638 O.2       19 UNK        -0.5000 
    109 N         -6.2498  -21.4543  -55.7755 N.am      20 UNK        -0.5000 
    110 CA        -6.4380  -22.7068  -56.5049 C.3       20 UNK         0.1400 
    111 CB        -7.7159  -23.3896  -55.9938 C.3       20 UNK        -0.1800 
    112 C         -5.2391  -23.6741  -56.4054 C.2       20 UNK         0.5000 
    113 O         -5.1167  -24.5456  -57.2677 O.2       20 UNK        -0.5000 
    114 N         -4.3927  -23.5277  -55.3740 N.am      21 UNK        -0.5000 
    115 CA        -3.2586  -24.4157  -55.1034 C.3       21 UNK         0.1400 
    116 CB        -3.6322  -25.3840  -53.9715 C.3       21 UNK        -0.1800 
    117 C         -1.9343  -23.6758  -54.8271 C.2       21 UNK         0.5000 
    118 O         -0.8901  -24.3294  -54.8346 O.2       21 UNK        -0.5000 
    119 N         -1.9616  -22.3463  -54.6394 N.am      22 UNK        -0.5000 
    120 CA        -0.7583  -21.4881  -54.6135 C.3       22 UNK         0.1400 
    121 C          0.0547  -21.4882  -55.9453 C.2       22 UNK         0.5000 
    122 N         -0.5461  -21.7856  -57.0920 N.am      22 UNK        -0.7600 
    123 O          1.2505  -21.2092  -55.9356 O.2       22 UNK        -0.5000 
    124 C124       -1.0794  -20.0204  -54.2225 C.3       23 UNK        -0.0398 
    125 S125       -1.5016  -19.7729  -52.4677 S.3       23 UNK        -0.2404 
    126 C126       -1.9186  -17.9995  -52.5237 C.3       23 UNK        -0.0205 
    127 H127        6.8016  -11.7094  -45.9120 H         1 UNK         0.0600 
    128 H128        6.5426  -12.3492  -47.5381 H         1 UNK         0.0600 
    129 H129        7.3289  -13.3475  -46.3112 H         1 UNK         0.0600 
    130 H130        4.4269  -12.9749  -47.8912 H         1 UNK         0.3000 
    131 H131        3.0261  -14.7478  -46.2201 H         1 UNK         0.0600 
    132 H132        2.7465  -14.2205  -48.8043 H         1 UNK         0.0800 
    133 H133        1.5812  -13.0360  -48.2886 H         1 UNK         0.0800 
    134 H134       -0.0156  -14.2146  -49.8239 H         1 UNK         0.0800 
    135 H135       -1.0270  -13.9433  -48.4259 H         1 UNK         0.0800 
    136 H136       -0.3738  -16.1018  -51.2964 H         1 UNK         0.1150 
    137 H137       -3.8628  -18.5023  -50.7005 H         1 UNK         0.1150 
    138 H138       -2.5993  -15.7803  -47.6514 H         1 UNK         0.1150 
    139 H139       -4.5800  -17.0332  -47.2952 H         1 UNK         0.0800 
    140 H140       -5.4624  -17.3712  -48.7575 H         1 UNK         0.0800 
    141 H141       -3.1351  -19.9604  -45.9595 H         1 UNK         0.0800 
    142 H142       -2.4622  -18.6649  -46.8847 H         1 UNK         0.0800 
    143 H143       -2.5337  -20.7933  -48.7634 H         1 UNK         0.0600 
    144 H144       -0.4527  -19.2727  -47.5584 H         1 UNK         0.3000 
    145 H145        2.1184  -20.5738  -49.6908 H         1 UNK         0.0600 
    146 H146        2.3350  -18.0974  -49.8626 H         1 UNK         0.0600 
    147 H147        0.9203  -18.6912  -50.7225 H         1 UNK         0.0600 
    148 H148        0.7288  -17.9076  -49.1646 H         1 UNK         0.0600 
    149 H149        3.1197  -20.3554  -47.7661 H         1 UNK         0.3000 
    150 H150        3.3738  -20.2734  -45.5226 H         1 UNK         0.0600 
    151 H151        4.6165  -18.3587  -46.4835 H         1 UNK         0.0600 
    152 H152        4.6519  -18.2169  -44.7323 H         1 UNK         0.0600 
    153 H153        3.5617  -17.2054  -45.6816 H         1 UNK         0.0600 
    154 H154        1.3906  -18.4505  -44.3306 H         1 UNK         0.3000 
    155 H155        0.7856  -20.5878  -41.7917 H         1 UNK         0.0600 
    156 H156        2.3353  -18.0883  -40.9397 H         1 UNK         0.0600 
    157 H157        2.7187  -19.7367  -40.4654 H         1 UNK         0.0600 
    158 H158        1.2062  -19.0082  -39.9535 H         1 UNK         0.0600 
    159 H159        0.1515  -17.7862  -42.0061 H         1 UNK         0.3000 
    160 H160       -2.7764  -18.5031  -44.0193 H         1 UNK         0.0600 
    161 H161       -2.2093  -17.4777  -41.1876 H         1 UNK         0.0600 
    162 H162       -3.1570  -18.9105  -41.5786 H         1 UNK         0.0600 
    163 H163       -3.7243  -17.3217  -42.0711 H         1 UNK         0.0600 
    164 H164       -0.7816  -16.4093  -43.3074 H         1 UNK         0.3000 
    165 H165       -0.9686  -14.6978  -45.5942 H         1 UNK         0.0600 
    166 H166       -3.6280  -13.4559  -44.7166 H         1 UNK         0.0600 
    167 H167       -2.3459  -12.6119  -45.5844 H         1 UNK         0.0600 
    168 H168       -3.1977  -13.9412  -46.3487 H         1 UNK         0.0600 
    169 H169       -0.0937  -13.8171  -43.7948 H         1 UNK         0.3000 
    170 H170       -0.6895  -12.2530  -41.3297 H         1 UNK         0.0600 
    171 H171       -2.0536  -13.4614  -39.6716 H         1 UNK         0.0600 
    172 H172       -1.1123  -14.9292  -39.8967 H         1 UNK         0.0600 
    173 H173       -0.3718  -13.5019  -39.1725 H         1 UNK         0.0600 
    174 H174        1.3831  -12.8883  -41.6671 H         1 UNK         0.3000 
    175 H175        3.2757  -15.3592  -41.0104 H         1 UNK         0.0600 
    176 H176        2.6888  -15.6787  -43.9968 H         1 UNK         0.0600 
    177 H177        4.2788  -15.9253  -43.2757 H         1 UNK         0.0600 
    178 H178        2.9390  -16.9566  -42.8211 H         1 UNK         0.0600 
    179 H179        3.5762  -13.4639  -43.2153 H         1 UNK         0.3000 
    180 H180        3.9656  -10.6097  -41.2005 H         1 UNK         0.0600 
    181 H181        6.1132  -12.0898  -42.8140 H         1 UNK         0.0600 
    182 H182        6.2806  -11.5100  -41.1632 H         1 UNK         0.0600 
    183 H183        6.0882  -10.3593  -42.4764 H         1 UNK         0.0600 
    184 H184        4.1373  -11.1910  -44.0300 H         1 UNK         0.3000 
    185 H185        0.6579  -10.7901  -44.7187 H         1 UNK         0.0600 
    186 H186        3.0435   -8.9685  -45.3499 H         1 UNK         0.0600 
    187 H187        1.5259   -9.0430  -46.2460 H         1 UNK         0.0600 
    188 H188        1.5411   -8.4553  -44.5912 H         1 UNK         0.0600 
    189 H189        2.9293  -11.2077  -46.4059 H         1 UNK         0.3000 
    190 H190       -0.4273  -21.4241  -45.9946 H         1 UNK         0.3000 
    191 H191       -1.6119  -23.8519  -45.1017 H         1 UNK         0.0600 
    192 H192        0.6472  -24.1992  -44.0238 H         1 UNK         0.0600 
    193 H193       -0.0209  -22.6118  -43.6988 H         1 UNK         0.0600 
    194 H194        1.2626  -22.7976  -44.8920 H         1 UNK         0.0600 
    195 H195        0.9236  -23.1918  -47.5441 H         1 UNK         0.3000 
    196 H196        1.5010  -25.9455  -48.1584 H         1 UNK         0.0600 
    197 H197        2.0288  -23.3891  -49.7700 H         1 UNK         0.0600 
    198 H198        3.1257  -24.1120  -48.5935 H         1 UNK         0.0600 
    199 H199        2.7399  -24.9662  -50.0790 H         1 UNK         0.0600 
    200 H200       -0.7076  -23.5000  -49.4755 H         1 UNK         0.3000 
    201 H201       -1.8588  -25.1284  -51.5483 H         1 UNK         0.0600 
    202 H202       -2.8428  -22.5927  -50.1349 H         1 UNK         0.0600 
    203 H203       -3.5205  -23.2396  -51.6115 H         1 UNK         0.0600 
    204 H204       -1.8706  -22.6477  -51.6021 H         1 UNK         0.0600 
    205 H205       -2.0771  -25.5444  -48.2298 H         1 UNK         0.3000 
    206 H206       -3.3854  -26.5939  -46.7950 H         1 UNK         0.0600 
    207 H207       -3.0290  -28.4691  -48.4147 H         1 UNK         0.0600 
    208 H208       -4.5662  -28.6168  -47.5794 H         1 UNK         0.0600 
    209 H209       -4.5269  -28.0447  -49.2423 H         1 UNK         0.0600 
    210 H210       -4.2838  -24.0705  -47.5124 H         1 UNK         0.3000 
    211 H211       -5.8719  -22.6123  -47.2226 H         1 UNK         0.0600 
    212 H212       -7.8339  -23.0700  -45.8324 H         1 UNK         0.0600 
    213 H213       -6.4498  -23.9130  -45.1595 H         1 UNK         0.0600 
    214 H214       -7.6719  -24.8021  -46.0692 H         1 UNK         0.0600 
    215 H215       -5.9887  -24.6484  -49.7075 H         1 UNK         0.3000 
    216 H216       -8.5927  -23.9165  -50.8349 H         1 UNK         0.0600 
    217 H217       -6.1369  -25.0928  -52.2270 H         1 UNK         0.0600 
    218 H218       -7.7855  -25.0666  -52.8262 H         1 UNK         0.0600 
    219 H219       -7.3810  -26.0559  -51.4313 H         1 UNK         0.0600 
    220 H220       -5.6141  -22.3757  -50.3819 H         1 UNK         0.3000 
    221 H221       -4.6757  -20.4849  -50.9228 H         1 UNK         0.0600 
    222 H222       -6.8246  -19.5620  -50.0598 H         1 UNK         0.0600 
    223 H223       -7.5174  -19.5761  -51.6748 H         1 UNK         0.0600 
    224 H224       -6.1697  -18.5055  -51.2928 H         1 UNK         0.0600 
    225 H225       -6.2507  -18.9249  -53.3409 H         1 UNK         0.3000 
    226 H226       -4.1693  -19.0365  -55.1540 H         1 UNK         0.0600 
    227 H227       -7.0964  -18.2699  -55.6243 H         1 UNK         0.0600 
    228 H228       -5.8219  -17.2048  -55.0286 H         1 UNK         0.0600 
    229 H229       -5.7520  -17.8256  -56.6690 H         1 UNK         0.0600 
    230 H230       -6.7415  -21.3653  -54.8964 H         1 UNK         0.3000 
    231 H231       -6.5794  -22.4668  -57.5608 H         1 UNK         0.0600 
    232 H232       -7.6297  -23.6645  -54.9423 H         1 UNK         0.0600 
    233 H233       -7.9233  -24.3019  -56.5547 H         1 UNK         0.0600 
    234 H234       -8.5834  -22.7383  -56.1010 H         1 UNK         0.0600 
    235 H235       -4.5535  -22.7830  -54.7008 H         1 UNK         0.3000 
    236 H236       -3.0498  -25.0222  -55.9869 H         1 UNK         0.0600 
    237 H237       -4.4498  -26.0392  -54.2721 H         1 UNK         0.0600 
    238 H238       -2.7915  -26.0213  -53.6954 H         1 UNK         0.0600 
    239 H239       -3.9525  -24.8486  -53.0819 H         1 UNK         0.0600 
    240 H240       -2.8517  -21.8817  -54.5001 H         1 UNK         0.3000 
    241 H241       -0.0910  -21.8973  -53.8524 H         1 UNK         0.0600 
    242 H242       -0.0116  -21.7842  -57.9466 H         1 UNK         0.3800 
    243 H243       -1.5299  -22.0012  -57.1169 H         1 UNK         0.3800 
    244 H244       -1.8883  -19.6361  -54.8446 H         1 UNK         0.0800 
    245 H245       -0.2201  -19.3749  -54.4164 H         1 UNK         0.0800 
    246 H246       -1.1418  -17.4663  -53.0738 H         1 UNK         0.0800 
    247 H247       -2.8425  -17.8670  -53.0884 H         1 UNK         0.0800 
@<TRIPOS>BOND
     1    1    2 1    
     2    1  127 1    
     3    1  128 1    
     4    1  129 1    
     5    2    3 2    
     6    2    4 am   BACKBONE|DICT|INTERRES
     7    4    5 1    
     8    4  130 1    
     9    5    6 1    
    10    5   65 1    
    11    5  131 1    
    12    6    7 1    
    13    6  132 1    
    14    6  133 1    
    15    7    8 1    
    16    8    9 1    
    17    8  134 1    
    18    8  135 1    
    19    9   10 ar   
    20    9   14 ar   
    21   10   11 ar   
    22   10  136 1    
    23   11   12 ar   
    24   11  126 1    
    25   12   13 ar   
    26   12  137 1    
    27   13   14 ar   
    28   13   15 1    
    29   14  138 1    
    30   15   16 1    
    31   15  139 1    
    32   15  140 1    
    33   16   17 1    
    34   17   18 1    
    35   17  141 1    
    36   17  142 1    
    37   18   19 1    
    38   18   67 1    
    39   18  143 1    
    40   19   20 am   BACKBONE|DICT|INTERRES
    41   19  144 1    
    42   20   21 2    
    43   20   22 1    
    44   22   23 1    
    45   22   24 1    
    46   22  145 1    
    47   23  146 1    
    48   23  147 1    
    49   23  148 1    
    50   24   25 am   BACKBONE|DICT|INTERRES
    51   24  149 1    
    52   25   26 2    
    53   25   27 1    
    54   27   28 1    
    55   27   29 1    
    56   27  150 1    
    57   28  151 1    
    58   28  152 1    
    59   28  153 1    
    60   29   30 am   BACKBONE|DICT|INTERRES
    61   29  154 1    
    62   30   31 2    
    63   30   32 1    
    64   32   33 1    
    65   32   34 1    
    66   32  155 1    
    67   33  156 1    
    68   33  157 1    
    69   33  158 1    
    70   34   35 am   BACKBONE|DICT|INTERRES
    71   34  159 1    
    72   35   36 2    
    73   35   37 1    
    74   37   38 1    
    75   37   39 1    
    76   37  160 1    
    77   38  161 1    
    78   38  162 1    
    79   38  163 1    
    80   39   40 am   BACKBONE|DICT|INTERRES
    81   39  164 1    
    82   40   41 2    
    83   40   42 1    
    84   42   43 1    
    85   42   44 1    
    86   42  165 1    
    87   43  166 1    
    88   43  167 1    
    89   43  168 1    
    90   44   45 am   BACKBONE|DICT|INTERRES
    91   44  169 1    
    92   45   46 2    
    93   45   47 1    
    94   47   48 1    
    95   47   49 1    
    96   47  170 1    
    97   48  171 1    
    98   48  172 1    
    99   48  173 1    
   100   49   50 am   BACKBONE|DICT|INTERRES
   101   49  174 1    
   102   50   51 2    
   103   50   52 1    
   104   52   53 1    
   105   52   54 1    
   106   52  175 1    
   107   53  176 1    
   108   53  177 1    
   109   53  178 1    
   110   54   55 am   BACKBONE|DICT|INTERRES
   111   54  179 1    
   112   55   56 2    
   113   55   57 1    
   114   57   58 1    
   115   57   59 1    
   116   57  180 1    
   117   58  181 1    
   118   58  182 1    
   119   58  183 1    
   120   59   60 am   BACKBONE|DICT|INTERRES
   121   59  184 1    
   122   60   61 2    
   123   60   62 1    
   124   62   63 1    
   125   62   64 1    
   126   62  185 1    
   127   63  186 1    
   128   63  187 1    
   129   63  188 1    
   130   64   65 am   BACKBONE|DICT|INTERRES
   131   64  189 1    
   132   65   66 2    
   133   67   68 2    
   134   67   69 am   BACKBONE|DICT|INTERRES
   135   69   70 1    
   136   69  190 1    
   137   70   71 1    
   138   70   72 1    
   139   70  191 1    
   140   71  192 1    
   141   71  193 1    
   142   71  194 1    
   143   72   73 2    
   144   72   74 am   BACKBONE|DICT|INTERRES
   145   74   75 1    
   146   74  195 1    
   147   75   76 1    
   148   75   77 1    
   149   75  196 1    
   150   76  197 1    
   151   76  198 1    
   152   76  199 1    
   153   77   78 2    
   154   77   79 am   BACKBONE|DICT|INTERRES
   155   79   80 1    
   156   79  200 1    
   157   80   81 1    
   158   80   82 1    
   159   80  201 1    
   160   81  202 1    
   161   81  203 1    
   162   81  204 1    
   163   82   83 2    
   164   82   84 am   BACKBONE|DICT|INTERRES
   165   84   85 1    
   166   84  205 1    
   167   85   86 1    
   168   85   87 1    
   169   85  206 1    
   170   86  207 1    
   171   86  208 1    
   172   86  209 1    
   173   87   88 2    
   174   87   89 am   BACKBONE|DICT|INTERRES
   175   89   90 1    
   176   89  210 1    
   177   90   91 1    
   178   90   92 1    
   179   90  211 1    
   180   91  212 1    
   181   91  213 1    
   182   91  214 1    
   183   92   93 2    
   184   92   94 am   BACKBONE|DICT|INTERRES
   185   94   95 1    
   186   94  215 1    
   187   95   96 1    
   188   95   97 1    
   189   95  216 1    
   190   96  217 1    
   191   96  218 1    
   192   96  219 1    
   193   97   98 2    
   194   97   99 am   BACKBONE|DICT|INTERRES
   195   99  100 1    
   196   99  220 1    
   197  100  101 1    
   198  100  102 1    
   199  100  221 1    
   200  101  222 1    
   201  101  223 1    
   202  101  224 1    
   203  102  103 2    
   204  102  104 am   BACKBONE|DICT|INTERRES
   205  104  105 1    
   206  104  225 1    
   207  105  106 1    
   208  105  107 1    
   209  105  226 1    
   210  106  227 1    
   211  106  228 1    
   212  106  229 1    
   213  107  108 2    
   214  107  109 am   BACKBONE|DICT|INTERRES
   215  109  110 1    
   216  109  230 1    
   217  110  111 1    
   218  110  112 1    
   219  110  231 1    
   220  111  232 1    
   221  111  233 1    
   222  111  234 1    
   223  112  113 2    
   224  112  114 am   BACKBONE|DICT|INTERRES
   225  114  115 1    
   226  114  235 1    
   227  115  116 1    
   228  115  117 1    
   229  115  236 1    
   230  116  237 1    
   231  116  238 1    
   232  116  239 1    
   233  117  118 2    
   234  117  119 am   BACKBONE|DICT|INTERRES
   235  119  120 1    
   236  119  240 1    
   237  120  121 1    
   238  120  124 1    
   239  120  241 1    
   240  121  122 am   BACKBONE|DICT|INTERRES
   241  121  123 2    
   242  122  242 1    
   243  122  243 1    
   244  124  125 1    
   245  124  244 1    
   246  124  245 1    
   247  125  126 1    
   248  126  246 1    
   249  126  247 1    
@<TRIPOS>SUBSTRUCTURE
     1 UNK         1 GROUP             0       ****    0 ROOT    
