@<TRIPOS>MOLECULE
3R540
247   249    1
SMALL
USER_CHARGES


@<TRIPOS>ATOM
      1 CA          0.5975  -16.2259  -50.9988 C.3       0 UNK        -0.1800 
      2 C          -0.3270  -16.1412  -49.7926 C.2       0 UNK         0.5000 
      3 O          -1.4304  -15.6087  -49.9053 O.2       0 UNK        -0.5000 
      4 N           0.1279  -16.6593  -48.6434 N.am      1 UNK        -0.5000 
      5 CA         -0.5688  -16.6513  -47.3471 C.3       1 UNK         0.1400 
      6 C6         -1.8688  -17.5031  -47.3104 C.3       23 UNK        -0.0398 
      7 S7         -1.5588  -19.2516  -47.7341 S.3       23 UNK        -0.2404 
      8 C8         -2.3713  -19.3821  -49.3538 C.3       23 UNK        -0.0205 
      9 C9         -3.8508  -19.6899  -49.2239 C.ar      23 UNK        -0.0193 
     10 C10        -4.8113  -18.7167  -49.5046 C.ar      23 UNK        -0.1150 
     11 C11        -6.1729  -19.0201  -49.4130 C.ar      23 UNK        -0.0193 
     12 C12        -6.5656  -20.3024  -49.0109 C.ar      23 UNK        -0.1150 
     13 C13        -5.6126  -21.2910  -48.7464 C.ar      23 UNK        -0.0193 
     14 C14        -4.2569  -20.9739  -48.8595 C.ar      23 UNK        -0.1150 
     15 C15        -6.0523  -22.7090  -48.4024 C.3       23 UNK        -0.0205 
     16 S16        -5.6753  -23.1751  -46.6802 S.3       23 UNK        -0.2404 
     17 C17        -3.9440  -23.7481  -46.8037 C.3       23 UNK        -0.0398 
     18 CA         -2.9629  -22.8268  -46.0361 C.3       11 UNK         0.1400 
     19 N          -3.2265  -22.8626  -44.5902 N.am      11 UNK        -0.5000 
     20 C          -2.8625  -21.9089  -43.7268 C.2       10 UNK         0.5000 
     21 O          -2.3117  -20.8637  -44.0773 O.2       10 UNK        -0.5000 
     22 CA         -3.1301  -22.1954  -42.2360 C.3       10 UNK         0.1400 
     23 CB         -2.4945  -23.5250  -41.7879 C.3       10 UNK        -0.1800 
     24 N          -2.5489  -21.1224  -41.4416 N.am      10 UNK        -0.5000 
     25 C          -3.1662  -20.3997  -40.4993 C.2       9 UNK         0.5000 
     26 O          -4.2950  -20.6489  -40.0742 O.2       9 UNK        -0.5000 
     27 CA         -2.3981  -19.1766  -39.9470 C.3       9 UNK         0.1400 
     28 CB         -1.7808  -19.4995  -38.5778 C.3       9 UNK        -0.1800 
     29 N          -1.3341  -18.7253  -40.8466 N.am      9 UNK        -0.5000 
     30 C          -1.5351  -18.2066  -42.0668 C.2       8 UNK         0.5000 
     31 O          -2.6372  -17.8279  -42.4651 O.2       8 UNK        -0.5000 
     32 CA         -0.3209  -18.1362  -43.0154 C.3       8 UNK         0.1400 
     33 CB         -0.0506  -16.6914  -43.4526 C.3       8 UNK        -0.1800 
     34 N           0.9111  -18.7188  -42.4686 N.am      8 UNK        -0.5000 
     35 C           1.1393  -20.0308  -42.2901 C.2       7 UNK         0.5000 
     36 O           0.3097  -20.9034  -42.5406 O.2       7 UNK        -0.5000 
     37 CA          2.5082  -20.4511  -41.7191 C.3       7 UNK         0.1400 
     38 CB          3.3857  -21.0780  -42.8141 C.3       7 UNK        -0.1800 
     39 N           3.2497  -19.3572  -41.0908 N.am      7 UNK        -0.5000 
     40 C           2.9266  -18.7695  -39.9302 C.2       6 UNK         0.5000 
     41 O           1.9559  -19.0955  -39.2464 O.2       6 UNK        -0.5000 
     42 CA          3.8258  -17.5994  -39.4834 C.3       6 UNK         0.1400 
     43 CB          4.9557  -18.1051  -38.5740 C.3       6 UNK        -0.1800 
     44 N           4.4066  -16.8628  -40.6125 N.am      6 UNK        -0.5000 
     45 C           3.6938  -16.1054  -41.4562 C.2       5 UNK         0.5000 
     46 O           2.4767  -15.9446  -41.3582 O.2       5 UNK        -0.5000 
     47 CA          4.4512  -15.4717  -42.6332 C.3       5 UNK         0.1400 
     48 CB          4.1827  -16.2568  -43.9276 C.3       5 UNK        -0.1800 
     49 N           4.0242  -14.0867  -42.8132 N.am      5 UNK        -0.5000 
     50 C           4.5481  -13.0464  -42.1485 C.2       4 UNK         0.5000 
     51 O           5.5085  -13.1439  -41.3829 O.2       4 UNK        -0.5000 
     52 CA          3.9011  -11.6619  -42.3641 C.3       4 UNK         0.1400 
     53 CB          4.6593  -10.8773  -43.4458 C.3       4 UNK        -0.1800 
     54 N           2.4892  -11.7359  -42.7370 N.am      4 UNK        -0.5000 
     55 C           1.5037  -12.1636  -41.9367 C.2       3 UNK         0.5000 
     56 O           1.6626  -12.4176  -40.7421 O.2       3 UNK        -0.5000 
     57 CA          0.1061  -12.3456  -42.5681 C.3       3 UNK         0.1400 
     58 CB         -0.8667  -11.2804  -42.0370 C.3       3 UNK        -0.1800 
     59 N           0.0627  -12.3272  -44.0371 N.am      3 UNK        -0.5000 
     60 C           0.6784  -13.1952  -44.8500 C.2       2 UNK         0.5000 
     61 O           1.4824  -14.0461  -44.4638 O.2       2 UNK        -0.5000 
     62 CA          0.3819  -13.0620  -46.3536 C.3       2 UNK         0.1400 
     63 CB          1.4984  -12.2714  -47.0525 C.3       2 UNK        -0.1800 
     64 N           0.2760  -14.3832  -46.9682 N.am      2 UNK        -0.5000 
     65 C          -0.7587  -15.2188  -46.7989 C.2       1 UNK         0.5000 
     66 O          -1.8031  -14.8992  -46.2284 O.2       1 UNK        -0.5000 
     67 C          -1.4944  -23.1790  -46.3855 C.2       11 UNK         0.5000 
     68 O          -1.1212  -23.1276  -47.5568 O.2       11 UNK        -0.5000 
     69 N          -0.6910  -23.5507  -45.3784 N.am      12 UNK        -0.5000 
     70 CA          0.6814  -24.0463  -45.4961 C.3       12 UNK         0.1400 
     71 CB          1.1453  -24.5110  -44.1063 C.3       12 UNK        -0.1800 
     72 C           1.6972  -23.0508  -46.0912 C.2       12 UNK         0.5000 
     73 O           2.7390  -23.4874  -46.5820 O.2       12 UNK        -0.5000 
     74 N           1.4004  -21.7453  -46.0300 N.am      13 UNK        -0.5000 
     75 CA          2.2776  -20.6796  -46.5197 C.3       13 UNK         0.1400 
     76 CB          1.8109  -19.3272  -45.9612 C.3       13 UNK        -0.1800 
     77 C           2.4385  -20.6256  -48.0527 C.2       13 UNK         0.5000 
     78 O           3.4576  -20.1102  -48.5149 O.2       13 UNK        -0.5000 
     79 N           1.4705  -21.1504  -48.8170 N.am      14 UNK        -0.5000 
     80 CA          1.5386  -21.2241  -50.2748 C.3       14 UNK         0.1400 
     81 CB          1.1913  -19.8639  -50.9062 C.3       14 UNK        -0.1800 
     82 C           0.6301  -22.3583  -50.7697 C.2       14 UNK         0.5000 
     83 O          -0.5940  -22.2594  -50.6636 O.2       14 UNK        -0.5000 
     84 N           1.2577  -23.4237  -51.2833 N.am      15 UNK        -0.5000 
     85 CA          0.6276  -24.6717  -51.7178 C.3       15 UNK         0.1400 
     86 CB          1.7251  -25.6293  -52.2076 C.3       15 UNK        -0.1800 
     87 C          -0.4499  -24.4990  -52.8059 C.2       15 UNK         0.5000 
     88 O          -0.3845  -23.5639  -53.6095 O.2       15 UNK        -0.5000 
     89 N          -1.4148  -25.4311  -52.8076 N.am      16 UNK        -0.5000 
     90 CA         -2.5610  -25.5174  -53.7218 C.3       16 UNK         0.1400 
     91 CB         -2.0907  -25.8813  -55.1458 C.3       16 UNK        -0.1800 
     92 C          -3.4557  -24.2608  -53.6830 C.2       16 UNK         0.5000 
     93 O          -3.9497  -23.8228  -54.7213 O.2       16 UNK        -0.5000 
     94 N          -3.6146  -23.6883  -52.4806 N.am      17 UNK        -0.5000 
     95 CA         -4.3165  -22.4351  -52.1868 C.3       17 UNK         0.1400 
     96 CB         -5.8356  -22.5949  -52.3897 C.3       17 UNK        -0.1800 
     97 C          -3.7135  -21.2394  -52.9525 C.2       17 UNK         0.5000 
     98 O          -4.4329  -20.5059  -53.6370 O.2       17 UNK        -0.5000 
     99 N          -2.3805  -21.1184  -52.8486 N.am      18 UNK        -0.5000 
    100 CA        -1.5111  -20.1941  -53.5795 C.3       18 UNK         0.1400 
    101 CB        -1.7529  -18.7389  -53.1297 C.3       18 UNK        -0.1800 
    102 C         -1.6071  -20.3829  -55.1049 C.2       18 UNK         0.5000 
    103 O         -1.8124  -19.4137  -55.8342 O.2       18 UNK        -0.5000 
    104 N         -1.4931  -21.6411  -55.5563 N.am      19 UNK        -0.5000 
    105 CA        -1.6553  -22.0835  -56.9485 C.3       19 UNK         0.1400 
    106 CB        -0.4537  -21.6294  -57.8024 C.3       19 UNK        -0.1800 
    107 C         -3.0185  -21.6636  -57.5451 C.2       19 UNK         0.5000 
    108 O         -3.0833  -21.1304  -58.6542 O.2       19 UNK        -0.5000 
    109 N         -4.0769  -21.8912  -56.7570 N.am      20 UNK        -0.5000 
    110 CA        -5.4839  -21.5667  -56.9938 C.3       20 UNK         0.1400 
    111 CB        -6.0220  -22.3116  -58.2330 C.3       20 UNK        -0.1800 
    112 C         -5.8153  -20.0588  -57.0236 C.2       20 UNK         0.5000 
    113 O         -6.9397  -19.7090  -57.3885 O.2       20 UNK        -0.5000 
    114 N         -4.8887  -19.1822  -56.6014 N.am      21 UNK        -0.5000 
    115 CA        -5.0990  -17.7288  -56.5350 C.3       21 UNK         0.1400 
    116 CB        -3.7719  -17.0116  -56.2535 C.3       21 UNK        -0.1800 
    117 C         -6.1730  -17.2992  -55.5150 C.2       21 UNK         0.5000 
    118 O         -6.7465  -16.2194  -55.6651 O.2       21 UNK        -0.5000 
    119 N         -6.4556  -18.1584  -54.5263 N.am      22 UNK        -0.5000 
    120 CA        -7.6165  -18.0453  -53.6285 C.3       22 UNK         0.1400 
    121 C         -8.9973  -18.2320  -54.3392 C.2       22 UNK         0.5000 
    122 N         -9.0675  -18.7864  -55.5453 N.am      22 UNK        -0.7600 
    123 O        -10.0296  -17.8455  -53.7988 O.2       22 UNK        -0.5000 
    124 C124       -7.4571  -19.0012  -52.4186 C.3       23 UNK        -0.0398 
    125 S125       -8.4602  -18.5403  -50.9597 S.3       23 UNK        -0.2404 
    126 C126       -7.2092  -17.9589  -49.7647 C.3       23 UNK        -0.0205 
    127 H127        1.5866  -16.5949  -50.7271 H         1 UNK         0.0600 
    128 H128        0.7177  -15.2404  -51.4488 H         1 UNK         0.0600 
    129 H129        0.1787  -16.8944  -51.7496 H         1 UNK         0.0600 
    130 H130        1.0398  -17.0928  -48.6362 H         1 UNK         0.3000 
    131 H131        0.1256  -17.1082  -46.6440 H         1 UNK         0.0600 
    132 H132       -2.2993  -17.4943  -46.3075 H         1 UNK         0.0800 
    133 H133       -2.6307  -17.0823  -47.9676 H         1 UNK         0.0800 
    134 H134       -2.2128  -18.4646  -49.9192 H         1 UNK         0.0800 
    135 H135       -1.9013  -20.1827  -49.9220 H         1 UNK         0.0800 
    136 H136       -4.4971  -17.7279  -49.8084 H         1 UNK         0.1150 
    137 H137       -7.6180  -20.5383  -48.9387 H         1 UNK         0.1150 
    138 H138       -3.5037  -21.7273  -48.6873 H         1 UNK         0.1150 
    139 H139       -7.1289  -22.8094  -48.5482 H         1 UNK         0.0800 
    140 H140       -5.5953  -23.4161  -49.0959 H         1 UNK         0.0800 
    141 H141       -3.6690  -23.8315  -47.8559 H         1 UNK         0.0800 
    142 H142       -3.8935  -24.7650  -46.4110 H         1 UNK         0.0800 
    143 H143       -3.1170  -21.8025  -46.3808 H         1 UNK         0.0600 
    144 H144       -3.6992  -23.6859  -44.2463 H         1 UNK         0.3000 
    145 H145       -4.2116  -22.2392  -42.0937 H         1 UNK         0.0600 
    146 H146       -2.6424  -23.6875  -40.7200 H         1 UNK         0.0600 
    147 H147       -2.9371  -24.3777  -42.3032 H         1 UNK         0.0600 
    148 H148       -1.4204  -23.5406  -41.9790 H         1 UNK         0.0600 
    149 H149       -1.6418  -20.8121  -41.7763 H         1 UNK         0.3000 
    150 H150       -3.1137  -18.3614  -39.8228 H         1 UNK         0.0600 
    151 H151       -1.2845  -18.6267  -38.1529 H         1 UNK         0.0600 
    152 H152       -2.5463  -19.8159  -37.8681 H         1 UNK         0.0600 
    153 H153       -1.0448  -20.3017  -38.6482 H         1 UNK         0.0600 
    154 H154       -0.3901  -18.9763  -40.5881 H         1 UNK         0.3000 
    155 H155       -0.5901  -18.7065  -43.9069 H         1 UNK         0.0600 
    156 H156        0.2052  -16.0531  -42.6074 H         1 UNK         0.0600 
    157 H157       -0.9292  -16.2558  -43.9286 H         1 UNK         0.0600 
    158 H158        0.7646  -16.6448  -44.1733 H         1 UNK         0.0600 
    159 H159        1.6247  -18.0601  -42.1879 H         1 UNK         0.3000 
    160 H160        2.3163  -21.2134  -40.9611 H         1 UNK         0.0600 
    161 H161        3.6883  -20.3438  -43.5606 H         1 UNK         0.0600 
    162 H162        2.8583  -21.8784  -43.3339 H         1 UNK         0.0600 
    163 H163        4.2907  -21.5127  -42.3894 H         1 UNK         0.0600 
    164 H164        4.0665  -19.0244  -41.5810 H         1 UNK         0.3000 
    165 H165        3.2064  -16.9090  -38.9066 H         1 UNK         0.0600 
    166 H166        5.5547  -17.2782  -38.1921 H         1 UNK         0.0600 
    167 H167        4.5533  -18.6384  -37.7116 H         1 UNK         0.0600 
    168 H168        5.6227  -18.7888  -39.1007 H         1 UNK         0.0600 
    169 H169        5.4041  -16.9505  -40.7462 H         1 UNK         0.3000 
    170 H170        5.5243  -15.5024  -42.4325 H         1 UNK         0.0600 
    171 H171        4.5020  -17.2952  -43.8311 H         1 UNK         0.0600 
    172 H172        3.1234  -16.2623  -44.1848 H         1 UNK         0.0600 
    173 H173        4.7260  -15.8257  -44.7685 H         1 UNK         0.0600 
    174 H174        3.1855  -13.9494  -43.3692 H         1 UNK         0.3000 
    175 H175        3.9767  -11.1114  -41.4241 H         1 UNK         0.0600 
    176 H176        4.6018  -11.3721  -44.4163 H         1 UNK         0.0600 
    177 H177        4.2582   -9.8698  -43.5573 H         1 UNK         0.0600 
    178 H178        5.7150  -10.7790  -43.1893 H         1 UNK         0.0600 
    179 H179        2.2645  -11.5502  -43.7027 H         1 UNK         0.3000 
    180 H180       -0.2543  -13.3253  -42.2472 H         1 UNK         0.0600 
    181 H181       -0.5740  -10.2779  -42.3517 H         1 UNK         0.0600 
    182 H182       -0.8992  -11.2857  -40.9466 H         1 UNK         0.0600 
    183 H183       -1.8824  -11.4614  -42.3893 H         1 UNK         0.0600 
    184 H184       -0.5541  -11.6403  -44.4465 H         1 UNK         0.3000 
    185 H185       -0.5630  -12.5322  -46.4918 H         1 UNK         0.0600 
    186 H186        1.5860  -11.2672  -46.6357 H         1 UNK         0.0600 
    187 H187        2.4683  -12.7585  -46.9418 H         1 UNK         0.0600 
    188 H188        1.2969  -12.1634  -48.1185 H         1 UNK         0.0600 
    189 H189        1.1035  -14.7295  -47.4300 H         1 UNK         0.3000 
    190 H190       -1.0765  -23.5341  -44.4468 H         1 UNK         0.3000 
    191 H191        0.6606  -24.9142  -46.1583 H         1 UNK         0.0600 
    192 H192        0.5094  -25.3099  -43.7242 H         1 UNK         0.0600 
    193 H193        2.1647  -24.8980  -44.1394 H         1 UNK         0.0600 
    194 H194        1.1269  -23.6937  -43.3839 H         1 UNK         0.0600 
    195 H195        0.5241  -21.4686  -45.6102 H         1 UNK         0.3000 
    196 H196        3.2771  -20.8655  -46.1204 H         1 UNK         0.0600 
    197 H197        2.2604  -18.4901  -46.4973 H         1 UNK         0.0600 
    198 H198        2.0964  -19.2175  -44.9182 H         1 UNK         0.0600 
    199 H199        0.7300  -19.2234  -46.0189 H         1 UNK         0.0600 
    200 H200        0.6576  -21.5773  -48.3872 H         1 UNK         0.3000 
    201 H201        2.5641  -21.4679  -50.5614 H         1 UNK         0.0600 
    202 H202        1.2749  -19.9062  -51.9913 H         1 UNK         0.0600 
    203 H203        1.8749  -19.0859  -50.5681 H         1 UNK         0.0600 
    204 H204        0.1815  -19.5457  -50.6563 H         1 UNK         0.0600 
    205 H205        2.2642  -23.3989  -51.3522 H         1 UNK         0.3000 
    206 H206        0.1525  -25.1098  -50.8375 H         1 UNK         0.0600 
    207 H207        2.4548  -25.8303  -51.4229 H         1 UNK         0.0600 
    208 H208        1.3052  -26.5897  -52.5100 H         1 UNK         0.0600 
    209 H209        2.2586  -25.2206  -53.0669 H         1 UNK         0.0600 
    210 H210       -1.3713  -26.1598  -52.1084 H         1 UNK         0.3000 
    211 H211       -3.1838  -26.3381  -53.3630 H         1 UNK         0.0600 
    212 H212       -1.4614  -25.1034  -55.5768 H         1 UNK         0.0600 
    213 H213       -2.9383  -26.0280  -55.8163 H         1 UNK         0.0600 
    214 H214       -1.5176  -26.8083  -55.1437 H         1 UNK         0.0600 
    215 H215       -3.1387  -24.1146  -51.6984 H         1 UNK         0.3000 
    216 H216       -4.1423  -22.2448  -51.1316 H         1 UNK         0.0600 
    217 H217       -6.3653  -21.7344  -51.9840 H         1 UNK         0.0600 
    218 H218       -6.2128  -23.4762  -51.8713 H         1 UNK         0.0600 
    219 H219       -6.1008  -22.6847  -53.4437 H         1 UNK         0.0600 
    220 H220       -1.8893  -21.7772  -52.2529 H         1 UNK         0.3000 
    221 H221       -0.4891  -20.4621  -53.3158 H         1 UNK         0.0600 
    222 H222       -2.7815  -18.4229  -53.3018 H         1 UNK         0.0600 
    223 H223       -1.5431  -18.6192  -52.0703 H         1 UNK         0.0600 
    224 H224       -1.1016  -18.0469  -53.6646 H         1 UNK         0.0600 
    225 H225       -1.2915  -22.3714  -54.8779 H         1 UNK         0.3000 
    226 H226       -1.6538  -23.1734  -56.9310 H         1 UNK         0.0600 
    227 H227        0.4872  -21.9673  -57.3680 H         1 UNK         0.0600 
    228 H228       -0.5125  -22.0426  -58.8100 H         1 UNK         0.0600 
    229 H229       -0.4093  -20.5439  -57.8959 H         1 UNK         0.0600 
    230 H230       -3.9085  -22.3835  -55.8815 H         1 UNK         0.3000 
    231 H231       -6.0141  -21.9604  -56.1254 H         1 UNK         0.0600 
    232 H232       -5.5939  -21.9237  -59.1575 H         1 UNK         0.0600 
    233 H233       -7.1053  -22.2128  -58.3105 H         1 UNK         0.0600 
    234 H234       -5.7994  -23.3773  -58.1796 H         1 UNK         0.0600 
    235 H235       -3.9860  -19.5260  -56.2951 H         1 UNK         0.3000 
    236 H236       -5.4467  -17.4062  -57.5186 H         1 UNK         0.0600 
    237 H237       -3.0222  -17.2576  -57.0055 H         1 UNK         0.0600 
    238 H238       -3.9020  -15.9288  -56.2685 H         1 UNK         0.0600 
    239 H239       -3.3721  -17.2778  -55.2758 H         1 UNK         0.0600 
    240 H240       -5.9032  -19.0048  -54.4517 H         1 UNK         0.3000 
    241 H241       -7.6071  -17.0238  -53.2436 H         1 UNK         0.0600 
    242 H242       -8.2380  -19.0799  -56.0506 H         1 UNK         0.3800 
    243 H243       -9.9691  -18.8846  -55.9842 H         1 UNK         0.3800 
    244 H244       -7.7198  -20.0193  -52.7082 H         1 UNK         0.0800 
    245 H245       -6.4095  -19.0438  -52.1185 H         1 UNK         0.0800 
    246 H246       -6.7299  -17.0671  -50.1716 H         1 UNK         0.0800 
    247 H247       -7.7145  -17.6475  -48.8498 H         1 UNK         0.0800 
@<TRIPOS>BOND
     1    1    2 1    
     2    1  127 1    
     3    1  128 1    
     4    1  129 1    
     5    2    3 2    
     6    2    4 am   BACKBONE|DICT|INTERRES
     7    4    5 1    
     8    4  130 1    
     9    5    6 1    
    10    5   65 1    
    11    5  131 1    
    12    6    7 1    
    13    6  132 1    
    14    6  133 1    
    15    7    8 1    
    16    8    9 1    
    17    8  134 1    
    18    8  135 1    
    19    9   10 ar   
    20    9   14 ar   
    21   10   11 ar   
    22   10  136 1    
    23   11   12 ar   
    24   11  126 1    
    25   12   13 ar   
    26   12  137 1    
    27   13   14 ar   
    28   13   15 1    
    29   14  138 1    
    30   15   16 1    
    31   15  139 1    
    32   15  140 1    
    33   16   17 1    
    34   17   18 1    
    35   17  141 1    
    36   17  142 1    
    37   18   19 1    
    38   18   67 1    
    39   18  143 1    
    40   19   20 am   BACKBONE|DICT|INTERRES
    41   19  144 1    
    42   20   21 2    
    43   20   22 1    
    44   22   23 1    
    45   22   24 1    
    46   22  145 1    
    47   23  146 1    
    48   23  147 1    
    49   23  148 1    
    50   24   25 am   BACKBONE|DICT|INTERRES
    51   24  149 1    
    52   25   26 2    
    53   25   27 1    
    54   27   28 1    
    55   27   29 1    
    56   27  150 1    
    57   28  151 1    
    58   28  152 1    
    59   28  153 1    
    60   29   30 am   BACKBONE|DICT|INTERRES
    61   29  154 1    
    62   30   31 2    
    63   30   32 1    
    64   32   33 1    
    65   32   34 1    
    66   32  155 1    
    67   33  156 1    
    68   33  157 1    
    69   33  158 1    
    70   34   35 am   BACKBONE|DICT|INTERRES
    71   34  159 1    
    72   35   36 2    
    73   35   37 1    
    74   37   38 1    
    75   37   39 1    
    76   37  160 1    
    77   38  161 1    
    78   38  162 1    
    79   38  163 1    
    80   39   40 am   BACKBONE|DICT|INTERRES
    81   39  164 1    
    82   40   41 2    
    83   40   42 1    
    84   42   43 1    
    85   42   44 1    
    86   42  165 1    
    87   43  166 1    
    88   43  167 1    
    89   43  168 1    
    90   44   45 am   BACKBONE|DICT|INTERRES
    91   44  169 1    
    92   45   46 2    
    93   45   47 1    
    94   47   48 1    
    95   47   49 1    
    96   47  170 1    
    97   48  171 1    
    98   48  172 1    
    99   48  173 1    
   100   49   50 am   BACKBONE|DICT|INTERRES
   101   49  174 1    
   102   50   51 2    
   103   50   52 1    
   104   52   53 1    
   105   52   54 1    
   106   52  175 1    
   107   53  176 1    
   108   53  177 1    
   109   53  178 1    
   110   54   55 am   BACKBONE|DICT|INTERRES
   111   54  179 1    
   112   55   56 2    
   113   55   57 1    
   114   57   58 1    
   115   57   59 1    
   116   57  180 1    
   117   58  181 1    
   118   58  182 1    
   119   58  183 1    
   120   59   60 am   BACKBONE|DICT|INTERRES
   121   59  184 1    
   122   60   61 2    
   123   60   62 1    
   124   62   63 1    
   125   62   64 1    
   126   62  185 1    
   127   63  186 1    
   128   63  187 1    
   129   63  188 1    
   130   64   65 am   BACKBONE|DICT|INTERRES
   131   64  189 1    
   132   65   66 2    
   133   67   68 2    
   134   67   69 am   BACKBONE|DICT|INTERRES
   135   69   70 1    
   136   69  190 1    
   137   70   71 1    
   138   70   72 1    
   139   70  191 1    
   140   71  192 1    
   141   71  193 1    
   142   71  194 1    
   143   72   73 2    
   144   72   74 am   BACKBONE|DICT|INTERRES
   145   74   75 1    
   146   74  195 1    
   147   75   76 1    
   148   75   77 1    
   149   75  196 1    
   150   76  197 1    
   151   76  198 1    
   152   76  199 1    
   153   77   78 2    
   154   77   79 am   BACKBONE|DICT|INTERRES
   155   79   80 1    
   156   79  200 1    
   157   80   81 1    
   158   80   82 1    
   159   80  201 1    
   160   81  202 1    
   161   81  203 1    
   162   81  204 1    
   163   82   83 2    
   164   82   84 am   BACKBONE|DICT|INTERRES
   165   84   85 1    
   166   84  205 1    
   167   85   86 1    
   168   85   87 1    
   169   85  206 1    
   170   86  207 1    
   171   86  208 1    
   172   86  209 1    
   173   87   88 2    
   174   87   89 am   BACKBONE|DICT|INTERRES
   175   89   90 1    
   176   89  210 1    
   177   90   91 1    
   178   90   92 1    
   179   90  211 1    
   180   91  212 1    
   181   91  213 1    
   182   91  214 1    
   183   92   93 2    
   184   92   94 am   BACKBONE|DICT|INTERRES
   185   94   95 1    
   186   94  215 1    
   187   95   96 1    
   188   95   97 1    
   189   95  216 1    
   190   96  217 1    
   191   96  218 1    
   192   96  219 1    
   193   97   98 2    
   194   97   99 am   BACKBONE|DICT|INTERRES
   195   99  100 1    
   196   99  220 1    
   197  100  101 1    
   198  100  102 1    
   199  100  221 1    
   200  101  222 1    
   201  101  223 1    
   202  101  224 1    
   203  102  103 2    
   204  102  104 am   BACKBONE|DICT|INTERRES
   205  104  105 1    
   206  104  225 1    
   207  105  106 1    
   208  105  107 1    
   209  105  226 1    
   210  106  227 1    
   211  106  228 1    
   212  106  229 1    
   213  107  108 2    
   214  107  109 am   BACKBONE|DICT|INTERRES
   215  109  110 1    
   216  109  230 1    
   217  110  111 1    
   218  110  112 1    
   219  110  231 1    
   220  111  232 1    
   221  111  233 1    
   222  111  234 1    
   223  112  113 2    
   224  112  114 am   BACKBONE|DICT|INTERRES
   225  114  115 1    
   226  114  235 1    
   227  115  116 1    
   228  115  117 1    
   229  115  236 1    
   230  116  237 1    
   231  116  238 1    
   232  116  239 1    
   233  117  118 2    
   234  117  119 am   BACKBONE|DICT|INTERRES
   235  119  120 1    
   236  119  240 1    
   237  120  121 1    
   238  120  124 1    
   239  120  241 1    
   240  121  122 am   BACKBONE|DICT|INTERRES
   241  121  123 2    
   242  122  242 1    
   243  122  243 1    
   244  124  125 1    
   245  124  244 1    
   246  124  245 1    
   247  125  126 1    
   248  126  246 1    
   249  126  247 1    
@<TRIPOS>SUBSTRUCTURE
     1 UNK         1 GROUP             0       ****    0 ROOT    
