@<TRIPOS>MOLECULE
3R540
247   249    1
SMALL
USER_CHARGES


@<TRIPOS>ATOM
      1 CA         -3.9517  -13.8572  -46.1434 C.3       0 UNK        -0.1800 
      2 C          -3.0837  -12.9929  -47.0435 C.2       0 UNK         0.5000 
      3 O          -3.3004  -11.7833  -47.1216 O.2       0 UNK        -0.5000 
      4 N          -2.1115  -13.6106  -47.7219 N.am      1 UNK        -0.5000 
      5 CA         -1.0986  -12.9373  -48.5389 C.3       1 UNK         0.1400 
      6 C6         -0.8631  -13.6694  -49.8887 C.3       23 UNK        -0.0398 
      7 S7         -0.3766  -15.4215  -49.7419 S.3       23 UNK        -0.2404 
      8 C8          1.1689  -15.4578  -50.6971 C.3       23 UNK        -0.0205 
      9 C9          1.9722  -16.7000  -50.3580 C.ar      23 UNK        -0.0193 
     10 C10         2.1099  -17.7563  -51.2644 C.ar      23 UNK        -0.1150 
     11 C11         2.8507  -18.8926  -50.9184 C.ar      23 UNK        -0.0193 
     12 C12         3.4624  -18.9575  -49.6609 C.ar      23 UNK        -0.1150 
     13 C13         3.3249  -17.9064  -48.7501 C.ar      23 UNK        -0.0193 
     14 C14         2.5835  -16.7839  -49.1084 C.ar      23 UNK        -0.1150 
     15 C15         3.9614  -17.9771  -47.3743 C.3       23 UNK        -0.0205 
     16 S16         2.9119  -18.8993  -46.2171 S.3       23 UNK        -0.2404 
     17 C17         1.5280  -17.7442  -45.8936 C.3       23 UNK        -0.0398 
     18 CA          0.2002  -18.1040  -46.6142 C.3       11 UNK         0.1400 
     19 N          -0.0877  -19.5307  -46.5284 N.am      11 UNK        -0.5000 
     20 C          -0.7738  -20.2417  -47.4261 C.2       10 UNK         0.5000 
     21 O          -1.4509  -19.7504  -48.3315 O.2       10 UNK        -0.5000 
     22 CA         -0.6662  -21.7651  -47.2778 C.3       10 UNK         0.1400 
     23 CB          0.7737  -22.2375  -47.5445 C.3       10 UNK        -0.1800 
     24 N          -1.0555  -22.1912  -45.9359 N.am      10 UNK        -0.5000 
     25 C          -2.0630  -23.0291  -45.6585 C.2       9 UNK         0.5000 
     26 O          -2.8068  -23.5084  -46.5145 O.2       9 UNK        -0.5000 
     27 CA         -2.2764  -23.4294  -44.1822 C.3       9 UNK         0.1400 
     28 CB         -1.8554  -24.8905  -43.9585 C.3       9 UNK        -0.1800 
     29 N          -1.5592  -22.5882  -43.2217 N.am      9 UNK        -0.5000 
     30 C          -1.8795  -21.3225  -42.9254 C.2       8 UNK         0.5000 
     31 O          -2.8353  -20.7305  -43.4235 O.2       8 UNK        -0.5000 
     32 CA         -0.9466  -20.5776  -41.9470 C.3       8 UNK         0.1400 
     33 CB         -1.4784  -20.6771  -40.5103 C.3       8 UNK        -0.1800 
     34 N           0.4539  -21.0159  -41.9786 N.am      8 UNK        -0.5000 
     35 C           1.2336  -20.9768  -43.0657 C.2       7 UNK         0.5000 
     36 O           0.8247  -20.6469  -44.1790 O.2       7 UNK        -0.5000 
     37 CA          2.7111  -21.3273  -42.8798 C.3       7 UNK         0.1400 
     38 CB          3.2402  -22.1913  -44.0426 C.3       7 UNK        -0.1800 
     39 N           3.4379  -20.0674  -42.7859 N.am      7 UNK        -0.5000 
     40 C           4.6986  -19.9202  -42.3653 C.2       6 UNK         0.5000 
     41 O           5.4245  -20.8567  -42.0280 O.2       6 UNK        -0.5000 
     42 CA          5.2346  -18.4780  -42.2757 C.3       6 UNK         0.1400 
     43 CB          5.8596  -18.0456  -43.6105 C.3       6 UNK        -0.1800 
     44 N           4.2228  -17.4992  -41.8608 N.am      6 UNK        -0.5000 
     45 C           3.6641  -17.4727  -40.6393 C.2       5 UNK         0.5000 
     46 O           3.9253  -18.2973  -39.7621 O.2       5 UNK        -0.5000 
     47 CA          2.6736  -16.3374  -40.3042 C.3       5 UNK         0.1400 
     48 CB          3.2938  -15.3682  -39.2847 C.3       5 UNK        -0.1800 
     49 N           2.2210  -15.5628  -41.4581 N.am      5 UNK        -0.5000 
     50 C           1.3437  -15.9888  -42.3741 C.2       4 UNK         0.5000 
     51 O           0.8337  -17.1090  -42.3640 O.2       4 UNK        -0.5000 
     52 CA          1.0019  -14.9987  -43.5071 C.3       4 UNK         0.1400 
     53 CB         -0.1817  -14.1108  -43.0934 C.3       4 UNK        -0.1800 
     54 N           2.1150  -14.1452  -43.9433 N.am      4 UNK        -0.5000 
     55 C           3.3404  -14.5543  -44.3088 C.2       3 UNK         0.5000 
     56 O           3.7084  -15.7279  -44.2597 O.2       3 UNK        -0.5000 
     57 CA          4.3110  -13.4527  -44.7867 C.3       3 UNK         0.1400 
     58 CB          5.6278  -14.0131  -45.3667 C.3       3 UNK        -0.1800 
     59 N           3.6721  -12.5081  -45.7128 N.am      3 UNK        -0.5000 
     60 C           3.1818  -12.7852  -46.9302 C.2       2 UNK         0.5000 
     61 O           3.3015  -13.8708  -47.4971 O.2       2 UNK        -0.5000 
     62 CA          2.4365  -11.6375  -47.6412 C.3       2 UNK         0.1400 
     63 CB          3.3470  -10.9739  -48.6859 C.3       2 UNK        -0.1800 
     64 N           1.1905  -12.0576  -48.2940 N.am      2 UNK        -0.5000 
     65 C           0.1764  -12.6998  -47.6944 C.2       1 UNK         0.5000 
     66 O           0.2019  -13.0418  -46.5083 O.2       1 UNK        -0.5000 
     67 C          -0.9922  -17.2901  -46.0727 C.2       11 UNK         0.5000 
     68 O          -1.5100  -16.4162  -46.7694 O.2       11 UNK        -0.5000 
     69 N          -1.4677  -17.6334  -44.8628 N.am      12 UNK        -0.5000 
     70 CA         -2.6714  -17.0369  -44.2620 C.3       12 UNK         0.1400 
     71 CB         -2.7122  -17.2938  -42.7483 C.3       12 UNK        -0.1800 
     72 C          -3.9749  -17.5183  -44.9320 C.2       12 UNK         0.5000 
     73 O          -5.0026  -16.8533  -44.8084 O.2       12 UNK        -0.5000 
     74 N          -3.8963  -18.6310  -45.6741 N.am      13 UNK        -0.5000 
     75 CA         -4.9367  -19.1297  -46.5745 C.3       13 UNK         0.1400 
     76 CB         -4.7111  -20.6313  -46.7992 C.3       13 UNK        -0.1800 
     77 C          -4.9948  -18.3630  -47.9160 C.2       13 UNK         0.5000 
     78 O          -5.8351  -18.6863  -48.7559 O.2       13 UNK        -0.5000 
     79 N          -4.1107  -17.3688  -48.0976 N.am      14 UNK        -0.5000 
     80 CA         -4.0454  -16.4212  -49.2129 C.3       14 UNK         0.1400 
     81 CB         -5.3167  -15.5477  -49.2662 C.3       14 UNK        -0.1800 
     82 C          -3.7098  -17.0708  -50.5679 C.2       14 UNK         0.5000 
     83 O          -4.1002  -16.5378  -51.6081 O.2       14 UNK        -0.5000 
     84 N          -2.9885  -18.2031  -50.5320 N.am      15 UNK        -0.5000 
     85 CA         -2.5297  -18.9823  -51.6856 C.3       15 UNK         0.1400 
     86 CB         -1.4619  -18.1926  -52.4697 C.3       15 UNK        -0.1800 
     87 C          -3.6746  -19.4905  -52.5893 C.2       15 UNK         0.5000 
     88 O          -3.4909  -19.6072  -53.8014 O.2       15 UNK        -0.5000 
     89 N          -4.8358  -19.7757  -51.9809 N.am      16 UNK        -0.5000 
     90 CA         -6.0573  -20.2535  -52.6275 C.3       16 UNK         0.1400 
     91 CB         -7.1432  -20.4413  -51.5566 C.3       16 UNK        -0.1800 
     92 C          -5.8412  -21.5541  -53.4238 C.2       16 UNK         0.5000 
     93 O          -5.6407  -22.6149  -52.8265 O.2       16 UNK        -0.5000 
     94 N          -5.8863  -21.4471  -54.7576 N.am      17 UNK        -0.5000 
     95 CA         -5.6762  -22.5536  -55.6932 C.3       17 UNK         0.1400 
     96 CB         -5.5240  -21.9935  -57.1149 C.3       17 UNK        -0.1800 
     97 C          -6.7955  -23.6084  -55.6428 C.2       17 UNK         0.5000 
     98 O          -6.5179  -24.7916  -55.8335 O.2       17 UNK        -0.5000 
     99 N          -8.0266  -23.1716  -55.3391 N.am      18 UNK        -0.5000 
    100 CA        -9.1996  -24.0323  -55.1592 C.3       18 UNK         0.1400 
    101 CB       -10.4591  -23.1559  -55.0844 C.3       18 UNK        -0.1800 
    102 C         -9.0973  -24.9381  -53.9160 C.2       18 UNK         0.5000 
    103 O         -9.6233  -26.0513  -53.9287 O.2       18 UNK        -0.5000 
    104 N         -8.4018  -24.4522  -52.8791 N.am      19 UNK        -0.5000 
    105 CA        -8.0827  -25.1987  -51.6610 C.3       19 UNK         0.1400 
    106 CB        -7.9974  -24.2041  -50.4917 C.3       19 UNK        -0.1800 
    107 C         -6.7617  -25.9847  -51.7844 C.2       19 UNK         0.5000 
    108 O         -6.4590  -26.7881  -50.9015 O.2       19 UNK        -0.5000 
    109 N         -5.9907  -25.7136  -52.8502 N.am      20 UNK        -0.5000 
    110 CA        -4.6218  -26.1694  -53.1116 C.3       20 UNK         0.1400 
    111 CB        -4.5861  -27.6907  -53.3652 C.3       20 UNK        -0.1800 
    112 C         -3.6346  -25.7066  -52.0178 C.2       20 UNK         0.5000 
    113 O         -2.7330  -26.4560  -51.6386 O.2       20 UNK        -0.5000 
    114 N         -3.8460  -24.4826  -51.5122 N.am      21 UNK        -0.5000 
    115 CA        -3.1097  -23.9060  -50.3898 C.3       21 UNK         0.1400 
    116 CB        -3.8805  -22.6895  -49.8573 C.3       21 UNK        -0.1800 
    117 C         -1.6656  -23.5336  -50.7637 C.2       21 UNK         0.5000 
    118 O         -0.7341  -23.9404  -50.0705 O.2       21 UNK        -0.5000 
    119 N         -1.5064  -22.7820  -51.8596 N.am      22 UNK        -0.5000 
    120 CA        -0.2047  -22.3483  -52.3937 C.3       22 UNK         0.1400 
    121 C         -0.2674  -21.9759  -53.9039 C.2       22 UNK         0.5000 
    122 N         -1.2155  -22.5039  -54.6699 N.am      22 UNK        -0.7600 
    123 O          0.5491  -21.2051  -54.3994 O.2       22 UNK        -0.5000 
    124 C124        0.4900  -21.2727  -51.5015 C.3       23 UNK        -0.0398 
    125 S125        2.2757  -21.5910  -51.2999 S.3       23 UNK        -0.2404 
    126 C126        3.0144  -20.0399  -51.9072 C.3       23 UNK        -0.0205 
    127 H127       -3.8436  -14.9124  -46.3883 H         1 UNK         0.0600 
    128 H128       -5.0026  -13.5921  -46.2584 H         1 UNK         0.0600 
    129 H129       -3.6731  -13.7138  -45.0996 H         1 UNK         0.0600 
    130 H130       -1.9155  -14.5892  -47.5304 H         1 UNK         0.3000 
    131 H131       -1.4600  -11.9401  -48.7979 H         1 UNK         0.0600 
    132 H132       -1.7889  -13.6459  -50.4652 H         1 UNK         0.0800 
    133 H133       -0.1388  -13.1297  -50.4995 H         1 UNK         0.0800 
    134 H134        0.9404  -15.4155  -51.7630 H         1 UNK         0.0800 
    135 H135        1.7699  -14.5771  -50.4643 H         1 UNK         0.0800 
    136 H136        1.6439  -17.6937  -52.2374 H         1 UNK         0.1150 
    137 H137        4.0337  -19.8331  -49.3864 H         1 UNK         0.1150 
    138 H138        2.4596  -15.9768  -48.4034 H         1 UNK         0.1150 
    139 H139        4.1552  -16.9778  -46.9794 H         1 UNK         0.0800 
    140 H140        4.9306  -18.4726  -47.4438 H         1 UNK         0.0800 
    141 H141        1.8338  -16.7271  -46.1430 H         1 UNK         0.0800 
    142 H142        1.3875  -17.7678  -44.8145 H         1 UNK         0.0800 
    143 H143        0.3186  -17.8480  -47.6694 H         1 UNK         0.0600 
    144 H144        0.4083  -20.0207  -45.7861 H         1 UNK         0.3000 
    145 H145       -1.3106  -22.2119  -48.0334 H         1 UNK         0.0600 
    146 H146        1.1418  -21.8663  -48.5001 H         1 UNK         0.0600 
    147 H147        0.8265  -23.3257  -47.5781 H         1 UNK         0.0600 
    148 H148        1.4659  -21.8936  -46.7751 H         1 UNK         0.0600 
    149 H149       -0.5082  -21.8161  -45.1696 H         1 UNK         0.3000 
    150 H150       -3.3459  -23.3470  -43.9772 H         1 UNK         0.0600 
    151 H151       -0.7896  -25.0338  -44.1413 H         1 UNK         0.0600 
    152 H152       -2.3959  -25.5613  -44.6277 H         1 UNK         0.0600 
    153 H153       -2.0688  -25.2117  -42.9388 H         1 UNK         0.0600 
    154 H154       -0.7510  -22.9954  -42.7749 H         1 UNK         0.3000 
    155 H155       -0.9483  -19.5257  -42.2352 H         1 UNK         0.0600 
    156 H156       -1.4560  -21.7039  -40.1433 H         1 UNK         0.0600 
    157 H157       -2.5105  -20.3285  -40.4508 H         1 UNK         0.0600 
    158 H158       -0.8907  -20.0619  -39.8287 H         1 UNK         0.0600 
    159 H159        0.8593  -21.2866  -41.0942 H         1 UNK         0.3000 
    160 H160        2.8288  -21.8809  -41.9462 H         1 UNK         0.0600 
    161 H161        3.2378  -21.6449  -44.9858 H         1 UNK         0.0600 
    162 H162        2.6260  -23.0823  -44.1782 H         1 UNK         0.0600 
    163 H163        4.2600  -22.5281  -43.8581 H         1 UNK         0.0600 
    164 H164        2.9107  -19.2422  -43.0391 H         1 UNK         0.3000 
    165 H165        6.0260  -18.4722  -41.5232 H         1 UNK         0.0600 
    166 H166        6.3018  -17.0520  -43.5369 H         1 UNK         0.0600 
    167 H167        6.6499  -18.7333  -43.9135 H         1 UNK         0.0600 
    168 H168        5.1212  -18.0234  -44.4115 H         1 UNK         0.0600 
    169 H169        3.9548  -16.8045  -42.5510 H         1 UNK         0.3000 
    170 H170        1.7996  -16.8015  -39.8421 H         1 UNK         0.0600 
    171 H171        2.5783  -14.6042  -38.9798 H         1 UNK         0.0600 
    172 H172        4.1715  -14.8646  -39.6918 H         1 UNK         0.0600 
    173 H173        3.6069  -15.8942  -38.3818 H         1 UNK         0.0600 
    174 H174        2.6041  -14.6346  -41.5589 H         1 UNK         0.3000 
    175 H175        0.6855  -15.5773  -44.3720 H         1 UNK         0.0600 
    176 H176       -1.0278  -14.7120  -42.7598 H         1 UNK         0.0600 
    177 H177        0.0851  -13.4394  -42.2764 H         1 UNK         0.0600 
    178 H178       -0.5309  -13.5030  -43.9280 H         1 UNK         0.0600 
    179 H179        1.8957  -13.1660  -44.0534 H         1 UNK         0.3000 
    180 H180        4.5713  -12.8769  -43.8975 H         1 UNK         0.0600 
    181 H181        5.4528  -14.6752  -46.2150 H         1 UNK         0.0600 
    182 H182        6.1682  -14.5894  -44.6149 H         1 UNK         0.0600 
    183 H183        6.2875  -13.2108  -45.6966 H         1 UNK         0.0600 
    184 H184        3.5367  -11.5753  -45.3483 H         1 UNK         0.3000 
    185 H185        2.1674  -10.8862  -46.8960 H         1 UNK         0.0600 
    186 H186        4.2762  -10.6274  -48.2315 H         1 UNK         0.0600 
    187 H187        3.6120  -11.6681  -49.4847 H         1 UNK         0.0600 
    188 H188        2.8655  -10.1069  -49.1386 H         1 UNK         0.0600 
    189 H189        1.1023  -11.8056  -49.2666 H         1 UNK         0.3000 
    190 H190       -1.0099  -18.3688  -44.3433 H         1 UNK         0.3000 
    191 H191       -2.6109  -15.9564  -44.4057 H         1 UNK         0.0600 
    192 H192       -1.7722  -17.0325  -42.2659 H         1 UNK         0.0600 
    193 H193       -3.4906  -16.6897  -42.2809 H         1 UNK         0.0600 
    194 H194       -2.9380  -18.3322  -42.5154 H         1 UNK         0.0600 
    195 H195       -3.0215  -19.1345  -45.6761 H         1 UNK         0.3000 
    196 H196       -5.9078  -19.0029  -46.0920 H         1 UNK         0.0600 
    197 H197       -5.4729  -21.0557  -47.4544 H         1 UNK         0.0600 
    198 H198       -4.7499  -21.1803  -45.8581 H         1 UNK         0.0600 
    199 H199       -3.7412  -20.8215  -47.2547 H         1 UNK         0.0600 
    200 H200       -3.4102  -17.2237  -47.3813 H         1 UNK         0.3000 
    201 H201       -3.2096  -15.7616  -48.9895 H         1 UNK         0.0600 
    202 H202       -5.1897  -14.7156  -49.9596 H         1 UNK         0.0600 
    203 H203       -5.5487  -15.1218  -48.2908 H         1 UNK         0.0600 
    204 H204       -6.1852  -16.1185  -49.5962 H         1 UNK         0.0600 
    205 H205       -2.6927  -18.5557  -49.6274 H         1 UNK         0.3000 
    206 H206       -2.0544  -19.8716  -51.2722 H         1 UNK         0.0600 
    207 H207       -0.6722  -17.8486  -51.8044 H         1 UNK         0.0600 
    208 H208       -0.9988  -18.8077  -53.2420 H         1 UNK         0.0600 
    209 H209       -1.8849  -17.3171  -52.9628 H         1 UNK         0.0600 
    210 H210       -4.8997  -19.6135  -50.9852 H         1 UNK         0.3000 
    211 H211       -6.3934  -19.4743  -53.3143 H         1 UNK         0.0600 
    212 H212       -6.8190  -21.1242  -50.7706 H         1 UNK         0.0600 
    213 H213       -8.0604  -20.8440  -51.9882 H         1 UNK         0.0600 
    214 H214       -7.3960  -19.4917  -51.0842 H         1 UNK         0.0600 
    215 H215       -6.0139  -20.5330  -55.1676 H         1 UNK         0.3000 
    216 H216       -4.7426  -23.0507  -55.4211 H         1 UNK         0.0600 
    217 H217       -6.4199  -21.4614  -57.4373 H         1 UNK         0.0600 
    218 H218       -5.3410  -22.7942  -57.8328 H         1 UNK         0.0600 
    219 H219       -4.6820  -21.3038  -57.1780 H         1 UNK         0.0600 
    220 H220       -8.1640  -22.1805  -55.2056 H         1 UNK         0.3000 
    221 H221       -9.2835  -24.6797  -56.0347 H         1 UNK         0.0600 
    222 H222      -10.4236  -22.4699  -54.2370 H         1 UNK         0.0600 
    223 H223      -10.5825  -22.5640  -55.9916 H         1 UNK         0.0600 
    224 H224      -11.3549  -23.7685  -54.9735 H         1 UNK         0.0600 
    225 H225       -7.9894  -23.5341  -52.9605 H         1 UNK         0.3000 
    226 H226       -8.8795  -25.9139  -51.4465 H         1 UNK         0.0600 
    227 H227       -8.9199  -23.6326  -50.3884 H         1 UNK         0.0600 
    228 H228       -7.8298  -24.7238  -49.5475 H         1 UNK         0.0600 
    229 H229       -7.1768  -23.4989  -50.6253 H         1 UNK         0.0600 
    230 H230       -6.3512  -25.0484  -53.5196 H         1 UNK         0.3000 
    231 H231       -4.3076  -25.6753  -54.0319 H         1 UNK         0.0600 
    232 H232       -4.8302  -28.2588  -52.4672 H         1 UNK         0.0600 
    233 H233       -3.5958  -28.0085  -53.6934 H         1 UNK         0.0600 
    234 H234       -5.2923  -27.9754  -54.1451 H         1 UNK         0.0600 
    235 H235       -4.5946  -23.9168  -51.9044 H         1 UNK         0.3000 
    236 H236       -3.0661  -24.6493  -49.5905 H         1 UNK         0.0600 
    237 H237       -4.0092  -21.9281  -50.6229 H         1 UNK         0.0600 
    238 H238       -4.8698  -22.9746  -49.4991 H         1 UNK         0.0600 
    239 H239       -3.3553  -22.2285  -49.0238 H         1 UNK         0.0600 
    240 H240       -2.3194  -22.4981  -52.3864 H         1 UNK         0.3000 
    241 H241        0.4191  -23.2442  -52.3845 H         1 UNK         0.0600 
    242 H242       -1.2446  -22.2478  -55.6444 H         1 UNK         0.3800 
    243 H243       -1.8464  -23.2065  -54.3239 H         1 UNK         0.3800 
    244 H244        0.0587  -21.2558  -50.5010 H         1 UNK         0.0800 
    245 H245        0.3347  -20.2675  -51.8903 H         1 UNK         0.0800 
    246 H246        4.0790  -20.2039  -52.0782 H         1 UNK         0.0800 
    247 H247        2.5845  -19.7896  -52.8786 H         1 UNK         0.0800 
@<TRIPOS>BOND
     1    1    2 1    
     2    1  127 1    
     3    1  128 1    
     4    1  129 1    
     5    2    3 2    
     6    2    4 am   BACKBONE|DICT|INTERRES
     7    4    5 1    
     8    4  130 1    
     9    5    6 1    
    10    5   65 1    
    11    5  131 1    
    12    6    7 1    
    13    6  132 1    
    14    6  133 1    
    15    7    8 1    
    16    8    9 1    
    17    8  134 1    
    18    8  135 1    
    19    9   10 ar   
    20    9   14 ar   
    21   10   11 ar   
    22   10  136 1    
    23   11   12 ar   
    24   11  126 1    
    25   12   13 ar   
    26   12  137 1    
    27   13   14 ar   
    28   13   15 1    
    29   14  138 1    
    30   15   16 1    
    31   15  139 1    
    32   15  140 1    
    33   16   17 1    
    34   17   18 1    
    35   17  141 1    
    36   17  142 1    
    37   18   19 1    
    38   18   67 1    
    39   18  143 1    
    40   19   20 am   BACKBONE|DICT|INTERRES
    41   19  144 1    
    42   20   21 2    
    43   20   22 1    
    44   22   23 1    
    45   22   24 1    
    46   22  145 1    
    47   23  146 1    
    48   23  147 1    
    49   23  148 1    
    50   24   25 am   BACKBONE|DICT|INTERRES
    51   24  149 1    
    52   25   26 2    
    53   25   27 1    
    54   27   28 1    
    55   27   29 1    
    56   27  150 1    
    57   28  151 1    
    58   28  152 1    
    59   28  153 1    
    60   29   30 am   BACKBONE|DICT|INTERRES
    61   29  154 1    
    62   30   31 2    
    63   30   32 1    
    64   32   33 1    
    65   32   34 1    
    66   32  155 1    
    67   33  156 1    
    68   33  157 1    
    69   33  158 1    
    70   34   35 am   BACKBONE|DICT|INTERRES
    71   34  159 1    
    72   35   36 2    
    73   35   37 1    
    74   37   38 1    
    75   37   39 1    
    76   37  160 1    
    77   38  161 1    
    78   38  162 1    
    79   38  163 1    
    80   39   40 am   BACKBONE|DICT|INTERRES
    81   39  164 1    
    82   40   41 2    
    83   40   42 1    
    84   42   43 1    
    85   42   44 1    
    86   42  165 1    
    87   43  166 1    
    88   43  167 1    
    89   43  168 1    
    90   44   45 am   BACKBONE|DICT|INTERRES
    91   44  169 1    
    92   45   46 2    
    93   45   47 1    
    94   47   48 1    
    95   47   49 1    
    96   47  170 1    
    97   48  171 1    
    98   48  172 1    
    99   48  173 1    
   100   49   50 am   BACKBONE|DICT|INTERRES
   101   49  174 1    
   102   50   51 2    
   103   50   52 1    
   104   52   53 1    
   105   52   54 1    
   106   52  175 1    
   107   53  176 1    
   108   53  177 1    
   109   53  178 1    
   110   54   55 am   BACKBONE|DICT|INTERRES
   111   54  179 1    
   112   55   56 2    
   113   55   57 1    
   114   57   58 1    
   115   57   59 1    
   116   57  180 1    
   117   58  181 1    
   118   58  182 1    
   119   58  183 1    
   120   59   60 am   BACKBONE|DICT|INTERRES
   121   59  184 1    
   122   60   61 2    
   123   60   62 1    
   124   62   63 1    
   125   62   64 1    
   126   62  185 1    
   127   63  186 1    
   128   63  187 1    
   129   63  188 1    
   130   64   65 am   BACKBONE|DICT|INTERRES
   131   64  189 1    
   132   65   66 2    
   133   67   68 2    
   134   67   69 am   BACKBONE|DICT|INTERRES
   135   69   70 1    
   136   69  190 1    
   137   70   71 1    
   138   70   72 1    
   139   70  191 1    
   140   71  192 1    
   141   71  193 1    
   142   71  194 1    
   143   72   73 2    
   144   72   74 am   BACKBONE|DICT|INTERRES
   145   74   75 1    
   146   74  195 1    
   147   75   76 1    
   148   75   77 1    
   149   75  196 1    
   150   76  197 1    
   151   76  198 1    
   152   76  199 1    
   153   77   78 2    
   154   77   79 am   BACKBONE|DICT|INTERRES
   155   79   80 1    
   156   79  200 1    
   157   80   81 1    
   158   80   82 1    
   159   80  201 1    
   160   81  202 1    
   161   81  203 1    
   162   81  204 1    
   163   82   83 2    
   164   82   84 am   BACKBONE|DICT|INTERRES
   165   84   85 1    
   166   84  205 1    
   167   85   86 1    
   168   85   87 1    
   169   85  206 1    
   170   86  207 1    
   171   86  208 1    
   172   86  209 1    
   173   87   88 2    
   174   87   89 am   BACKBONE|DICT|INTERRES
   175   89   90 1    
   176   89  210 1    
   177   90   91 1    
   178   90   92 1    
   179   90  211 1    
   180   91  212 1    
   181   91  213 1    
   182   91  214 1    
   183   92   93 2    
   184   92   94 am   BACKBONE|DICT|INTERRES
   185   94   95 1    
   186   94  215 1    
   187   95   96 1    
   188   95   97 1    
   189   95  216 1    
   190   96  217 1    
   191   96  218 1    
   192   96  219 1    
   193   97   98 2    
   194   97   99 am   BACKBONE|DICT|INTERRES
   195   99  100 1    
   196   99  220 1    
   197  100  101 1    
   198  100  102 1    
   199  100  221 1    
   200  101  222 1    
   201  101  223 1    
   202  101  224 1    
   203  102  103 2    
   204  102  104 am   BACKBONE|DICT|INTERRES
   205  104  105 1    
   206  104  225 1    
   207  105  106 1    
   208  105  107 1    
   209  105  226 1    
   210  106  227 1    
   211  106  228 1    
   212  106  229 1    
   213  107  108 2    
   214  107  109 am   BACKBONE|DICT|INTERRES
   215  109  110 1    
   216  109  230 1    
   217  110  111 1    
   218  110  112 1    
   219  110  231 1    
   220  111  232 1    
   221  111  233 1    
   222  111  234 1    
   223  112  113 2    
   224  112  114 am   BACKBONE|DICT|INTERRES
   225  114  115 1    
   226  114  235 1    
   227  115  116 1    
   228  115  117 1    
   229  115  236 1    
   230  116  237 1    
   231  116  238 1    
   232  116  239 1    
   233  117  118 2    
   234  117  119 am   BACKBONE|DICT|INTERRES
   235  119  120 1    
   236  119  240 1    
   237  120  121 1    
   238  120  124 1    
   239  120  241 1    
   240  121  122 am   BACKBONE|DICT|INTERRES
   241  121  123 2    
   242  122  242 1    
   243  122  243 1    
   244  124  125 1    
   245  124  244 1    
   246  124  245 1    
   247  125  126 1    
   248  126  246 1    
   249  126  247 1    
@<TRIPOS>SUBSTRUCTURE
     1 UNK         1 GROUP             0       ****    0 ROOT    
