@<TRIPOS>MOLECULE
3R540
247   249    1
SMALL
USER_CHARGES


@<TRIPOS>ATOM
      1 CA         -4.3069   -9.6108  -48.5593 C.3       0 UNK        -0.1800 
      2 C          -3.7160  -11.0008  -48.3736 C.2       0 UNK         0.5000 
      3 O          -4.4602  -11.9539  -48.1424 O.2       0 UNK        -0.5000 
      4 N          -2.3832  -11.1123  -48.4580 N.am      1 UNK        -0.5000 
      5 CA         -1.5581  -12.3260  -48.3460 C.3       1 UNK         0.1400 
      6 C6         -1.8848  -13.4187  -49.3991 C.3       23 UNK        -0.0398 
      7 S7         -1.4435  -12.9149  -51.0961 S.3       23 UNK        -0.2404 
      8 C8         -1.3686  -14.5313  -51.9577 C.3       23 UNK        -0.0205 
      9 C9         -0.2948  -15.5178  -51.4828 C.ar      23 UNK        -0.0193 
     10 C10        -0.4041  -16.8601  -51.8665 C.ar      23 UNK        -0.1150 
     11 C11         0.5344  -17.8077  -51.4444 C.ar      23 UNK        -0.0193 
     12 C12         1.5947  -17.4068  -50.6285 C.ar      23 UNK        -0.1150 
     13 C13         1.7055  -16.0774  -50.2140 C.ar      23 UNK        -0.0193 
     14 C14         0.7810  -15.1347  -50.6705 C.ar      23 UNK        -0.1150 
     15 C15         2.7790  -15.6697  -49.2150 C.3       23 UNK        -0.0205 
     16 S16         2.5392  -16.4604  -47.5856 S.3       23 UNK        -0.2404 
     17 C17         0.7881  -16.0878  -47.2030 C.3       23 UNK        -0.0398 
     18 CA         -0.1845  -17.2417  -47.5589 C.3       11 UNK         0.1400 
     19 N           0.2838  -18.5615  -47.1154 N.am      11 UNK        -0.5000 
     20 C          -0.0981  -19.7108  -47.6873 C.2       10 UNK         0.5000 
     21 O          -0.8985  -19.7736  -48.6199 O.2       10 UNK        -0.5000 
     22 CA          0.4677  -21.0038  -47.0769 C.3       10 UNK         0.1400 
     23 CB          1.9084  -21.2439  -47.5516 C.3       10 UNK        -0.1800 
     24 N           0.4201  -21.0410  -45.6117 N.am      10 UNK        -0.5000 
     25 C          -0.6959  -20.9543  -44.8718 C.2       9 UNK         0.5000 
     26 O          -1.8025  -20.7043  -45.3483 O.2       9 UNK        -0.5000 
     27 CA         -0.5621  -21.1526  -43.3475 C.3       9 UNK         0.1400 
     28 CB         -1.7992  -21.8463  -42.7397 C.3       9 UNK        -0.1800 
     29 N           0.6749  -21.8210  -42.9251 N.am      9 UNK        -0.5000 
     30 C           1.0584  -23.0843  -43.1757 C.2       8 UNK         0.5000 
     31 O           0.4118  -23.8716  -43.8665 O.2       8 UNK        -0.5000 
     32 CA          2.4020  -23.5503  -42.5717 C.3       8 UNK         0.1400 
     33 CB          3.4850  -23.5988  -43.6614 C.3       8 UNK        -0.1800 
     34 N           2.8813  -22.7047  -41.4757 N.am      8 UNK        -0.5000 
     35 C           2.3286  -22.6269  -40.2564 C.2       7 UNK         0.5000 
     36 O           1.4086  -23.3530  -39.8788 O.2       7 UNK        -0.5000 
     37 CA          2.8712  -21.5338  -39.3077 C.3       7 UNK         0.1400 
     38 CB          3.8300  -22.1484  -38.2764 C.3       7 UNK        -0.1800 
     39 N           3.5487  -20.4132  -39.9768 N.am      7 UNK        -0.5000 
     40 C           2.9976  -19.6039  -40.8923 C.2       6 UNK         0.5000 
     41 O           1.8390  -19.7343  -41.2969 O.2       6 UNK        -0.5000 
     42 CA          3.9100  -18.5142  -41.4919 C.3       6 UNK         0.1400 
     43 CB          5.1570  -19.1332  -42.1490 C.3       6 UNK        -0.1800 
     44 N           3.1903  -17.7546  -42.5120 N.am      6 UNK        -0.5000 
     45 C           2.3965  -16.7046  -42.2781 C.2       5 UNK         0.5000 
     46 O           2.2966  -16.1351  -41.1886 O.2       5 UNK        -0.5000 
     47 CA          1.5331  -16.2536  -43.4692 C.3       5 UNK         0.1400 
     48 CB          0.0862  -16.7441  -43.3051 C.3       5 UNK        -0.1800 
     49 N           1.5327  -14.8048  -43.6628 N.am      5 UNK        -0.5000 
     50 C           2.6028  -14.0882  -44.0371 C.2       4 UNK         0.5000 
     51 O           3.7192  -14.5804  -44.2072 O.2       4 UNK        -0.5000 
     52 CA          2.4049  -12.5829  -44.3057 C.3       4 UNK         0.1400 
     53 CB          2.8001  -12.2386  -45.7526 C.3       4 UNK        -0.1800 
     54 N           1.0254  -12.1439  -44.0868 N.am      4 UNK        -0.5000 
     55 C           0.5693  -11.5735  -42.9628 C.2       3 UNK         0.5000 
     56 O           1.2725  -11.3613  -41.9744 O.2       3 UNK        -0.5000 
     57 CA         -0.9189  -11.1633  -42.9259 C.3       3 UNK         0.1400 
     58 CB         -1.0646   -9.6559  -43.1853 C.3       3 UNK        -0.1800 
     59 N          -1.7571  -11.8865  -43.8839 N.am      3 UNK        -0.5000 
     60 C          -2.0421  -13.1934  -43.8192 C.2       2 UNK         0.5000 
     61 O          -1.6627  -13.9274  -42.9075 O.2       2 UNK        -0.5000 
     62 CA         -2.8411  -13.7938  -44.9919 C.3       2 UNK         0.1400 
     63 CB         -4.3363  -13.8630  -44.6513 C.3       2 UNK        -0.1800 
     64 N          -2.6721  -13.1011  -46.2749 N.am      2 UNK        -0.5000 
     65 C          -1.5128  -12.9203  -46.9207 C.2       1 UNK         0.5000 
     66 O          -0.4202  -13.1921  -46.4236 O.2       1 UNK        -0.5000 
     67 C          -1.6273  -16.9527  -47.0910 C.2       11 UNK         0.5000 
     68 O          -2.2855  -16.0855  -47.6584 O.2       11 UNK        -0.5000 
     69 N          -2.1256  -17.7266  -46.1165 N.am      12 UNK        -0.5000 
     70 CA         -3.5282  -17.7627  -45.6980 C.3       12 UNK         0.1400 
     71 CB         -3.5901  -17.9709  -44.1747 C.3       12 UNK        -0.1800 
     72 C          -4.3238  -18.8356  -46.4785 C.2       12 UNK         0.5000 
     73 O          -5.3619  -19.2945  -46.0019 O.2       12 UNK        -0.5000 
     74 N          -3.8127  -19.2211  -47.6584 N.am      13 UNK        -0.5000 
     75 CA         -4.3447  -20.1447  -48.6643 C.3       13 UNK         0.1400 
     76 CB         -5.7973  -19.7946  -49.0460 C.3       13 UNK        -0.1800 
     77 C          -4.2042  -21.6383  -48.3272 C.2       13 UNK         0.5000 
     78 O          -4.2875  -22.4489  -49.2517 O.2       13 UNK        -0.5000 
     79 N          -3.9975  -21.9825  -47.0477 N.am      14 UNK        -0.5000 
     80 CA         -3.8832  -23.3364  -46.4895 C.3       14 UNK         0.1400 
     81 CB         -2.5309  -23.9675  -46.8738 C.3       14 UNK        -0.1800 
     82 C          -5.0823  -24.2337  -46.8628 C.2       14 UNK         0.5000 
     83 O          -4.8974  -25.3237  -47.4050 O.2       14 UNK        -0.5000 
     84 N          -6.2999  -23.7215  -46.6239 N.am      15 UNK        -0.5000 
     85 CA         -7.5877  -24.3224  -47.0065 C.3       15 UNK         0.1400 
     86 CB         -7.8520  -25.6181  -46.2107 C.3       15 UNK        -0.1800 
     87 C          -7.7206  -24.5107  -48.5357 C.2       15 UNK         0.5000 
     88 O          -8.2530  -25.5194  -48.9999 O.2       15 UNK        -0.5000 
     89 N          -7.1964  -23.5240  -49.2761 N.am      16 UNK        -0.5000 
     90 CA         -7.0888  -23.4062  -50.7342 C.3       16 UNK         0.1400 
     91 CB         -8.4549  -23.5679  -51.4300 C.3       16 UNK        -0.1800 
     92 C          -6.0027  -24.2886  -51.3826 C.2       16 UNK         0.5000 
     93 O          -5.7571  -24.1323  -52.5795 O.2       16 UNK        -0.5000 
     94 N          -5.3400  -25.1636  -50.6122 N.am      17 UNK        -0.5000 
     95 CA         -4.3152  -26.0826  -51.1112 C.3       17 UNK         0.1400 
     96 CB         -3.9912  -27.1312  -50.0373 C.3       17 UNK        -0.1800 
     97 C          -3.0316  -25.3717  -51.5749 C.2       17 UNK         0.5000 
     98 O          -2.4325  -25.7980  -52.5629 O.2       17 UNK        -0.5000 
     99 N          -2.6409  -24.2971  -50.8758 N.am      18 UNK        -0.5000 
    100 CA        -1.4906  -23.4735  -51.2464 C.3       18 UNK         0.1400 
    101 CB        -0.8741  -22.8277  -50.0008 C.3       18 UNK        -0.1800 
    102 C         -1.8761  -22.4108  -52.2838 C.2       18 UNK         0.5000 
    103 O         -1.0751  -22.1230  -53.1708 O.2       18 UNK        -0.5000 
    104 N         -3.1056  -21.8791  -52.2042 N.am      19 UNK        -0.5000 
    105 CA        -3.6420  -20.9276  -53.1843 C.3       19 UNK         0.1400 
    106 CB        -5.0015  -20.3941  -52.7189 C.3       19 UNK        -0.1800 
    107 C         -3.7447  -21.5210  -54.6015 C.2       19 UNK         0.5000 
    108 O         -3.4647  -20.8188  -55.5727 O.2       19 UNK        -0.5000 
    109 N         -4.0772  -22.8165  -54.6905 N.am      20 UNK        -0.5000 
    110 CA        -4.0772  -23.5949  -55.9300 C.3       20 UNK         0.1400 
    111 CB        -4.6841  -24.9785  -55.6520 C.3       20 UNK        -0.1800 
    112 C         -2.6820  -23.7385  -56.5739 C.2       20 UNK         0.5000 
    113 O         -2.5986  -23.8792  -57.7947 O.2       20 UNK        -0.5000 
    114 N         -1.6195  -23.6956  -55.7574 N.am      21 UNK        -0.5000 
    115 CA        -0.2309  -23.7170  -56.2128 C.3       21 UNK         0.1400 
    116 CB         0.6609  -24.3480  -55.1311 C.3       21 UNK        -0.1800 
    117 C          0.2597  -22.3068  -56.5852 C.2       21 UNK         0.5000 
    118 O          0.8894  -22.1461  -57.6319 O.2       21 UNK        -0.5000 
    119 N         -0.0325  -21.3163  -55.7309 N.am      22 UNK        -0.5000 
    120 CA         0.3499  -19.9075  -55.9305 C.3       22 UNK         0.1400 
    121 C         -0.4089  -19.1964  -57.0865 C.2       22 UNK         0.5000 
    122 N         -1.6631  -19.5313  -57.3605 N.am      22 UNK        -0.7600 
    123 O          0.1534  -18.3289  -57.7493 O.2       22 UNK        -0.5000 
    124 C124        0.2435  -19.0758  -54.6275 C.3       23 UNK        -0.0398 
    125 S125        1.3359  -19.7010  -53.3062 S.3       23 UNK        -0.2404 
    126 C126        0.3814  -19.2748  -51.8173 C.3       23 UNK        -0.0205 
    127 H127       -3.5363   -8.8634  -48.7498 H         1 UNK         0.0600 
    128 H128       -4.8553   -9.3140  -47.6653 H         1 UNK         0.0600 
    129 H129       -4.9987   -9.6078  -49.4016 H         1 UNK         0.0600 
    130 H130       -1.8519  -10.2704  -48.6313 H         1 UNK         0.3000 
    131 H131       -0.5387  -11.9896  -48.5439 H         1 UNK         0.0600 
    132 H132       -2.9364  -13.7059  -49.3689 H         1 UNK         0.0800 
    133 H133       -1.3253  -14.3246  -49.1755 H         1 UNK         0.0800 
    134 H134       -1.2083  -14.3416  -53.0197 H         1 UNK         0.0800 
    135 H135       -2.3496  -15.0020  -51.8750 H         1 UNK         0.0800 
    136 H136       -1.2322  -17.1724  -52.4871 H         1 UNK         0.1150 
    137 H137        2.3058  -18.1391  -50.2723 H         1 UNK         0.1150 
    138 H138        0.8869  -14.1079  -50.3537 H         1 UNK         0.1150 
    139 H139        3.7588  -15.9475  -49.6054 H         1 UNK         0.0800 
    140 H140        2.7960  -14.5869  -49.0812 H         1 UNK         0.0800 
    141 H141        0.5048  -15.1850  -47.7426 H         1 UNK         0.0800 
    142 H142        0.7148  -15.8316  -46.1486 H         1 UNK         0.0800 
    143 H143       -0.2502  -17.2719  -48.6462 H         1 UNK         0.0600 
    144 H144        0.9624  -18.5829  -46.3695 H         1 UNK         0.3000 
    145 H145       -0.1469  -21.8276  -47.4397 H         1 UNK         0.0600 
    146 H146        2.2779  -22.2126  -47.2143 H         1 UNK         0.0600 
    147 H147        1.9665  -21.2370  -48.6411 H         1 UNK         0.0600 
    148 H148        2.5897  -20.4766  -47.1820 H         1 UNK         0.0600 
    149 H149        1.2848  -21.2470  -45.1353 H         1 UNK         0.3000 
    150 H150       -0.5148  -20.1502  -42.9216 H         1 UNK         0.0600 
    151 H151       -2.7014  -21.2558  -42.9029 H         1 UNK         0.0600 
    152 H152       -1.6891  -21.9754  -41.6630 H         1 UNK         0.0600 
    153 H153       -1.9710  -22.8285  -43.1808 H         1 UNK         0.0600 
    154 H154        1.2716  -21.2485  -42.3339 H         1 UNK         0.3000 
    155 H155        2.2550  -24.5614  -42.1865 H         1 UNK         0.0600 
    156 H156        3.6868  -22.6096  -44.0741 H         1 UNK         0.0600 
    157 H157        3.1811  -24.2432  -44.4876 H         1 UNK         0.0600 
    158 H158        4.4212  -23.9971  -43.2697 H         1 UNK         0.0600 
    159 H159        3.6463  -22.0820  -41.6874 H         1 UNK         0.3000 
    160 H160        2.0129  -21.1224  -38.7727 H         1 UNK         0.0600 
    161 H161        4.7267  -22.5491  -38.7507 H         1 UNK         0.0600 
    162 H162        3.3518  -22.9660  -37.7350 H         1 UNK         0.0600 
    163 H163        4.1410  -21.4106  -37.5366 H         1 UNK         0.0600 
    164 H164        4.5072  -20.2517  -39.7028 H         1 UNK         0.3000 
    165 H165        4.2256  -17.8471  -40.6871 H         1 UNK         0.0600 
    166 H166        5.7733  -18.3662  -42.6188 H         1 UNK         0.0600 
    167 H167        5.7863  -19.6400  -41.4168 H         1 UNK         0.0600 
    168 H168        4.8910  -19.8619  -42.9160 H         1 UNK         0.0600 
    169 H169        3.1896  -18.1615  -43.4350 H         1 UNK         0.3000 
    170 H170        1.9410  -16.7031  -44.3765 H         1 UNK         0.0600 
    171 H171       -0.3640  -16.3616  -42.3882 H         1 UNK         0.0600 
    172 H172       -0.5408  -16.4268  -44.1371 H         1 UNK         0.0600 
    173 H173        0.0462  -17.8323  -43.2592 H         1 UNK         0.0600 
    174 H174        0.6613  -14.3224  -43.4913 H         1 UNK         0.3000 
    175 H175        3.0785  -12.0431  -43.6371 H         1 UNK         0.0600 
    176 H176        2.2205  -12.8116  -46.4772 H         1 UNK         0.0600 
    177 H177        2.6492  -11.1797  -45.9629 H         1 UNK         0.0600 
    178 H178        3.8532  -12.4572  -45.9337 H         1 UNK         0.0600 
    179 H179        0.3803  -12.3294  -44.8494 H         1 UNK         0.3000 
    180 H180       -1.2918  -11.3759  -41.9217 H         1 UNK         0.0600 
    181 H181       -2.1022   -9.3363  -43.0861 H         1 UNK         0.0600 
    182 H182       -0.7227   -9.3852  -44.1851 H         1 UNK         0.0600 
    183 H183       -0.4785   -9.0772  -42.4701 H         1 UNK         0.0600 
    184 H184       -2.0997  -11.3634  -44.6762 H         1 UNK         0.3000 
    185 H185       -2.4786  -14.8138  -45.1266 H         1 UNK         0.0600 
    186 H186       -4.8947  -14.3790  -45.4326 H         1 UNK         0.0600 
    187 H187       -4.5015  -14.4082  -43.7210 H         1 UNK         0.0600 
    188 H188       -4.7667  -12.8679  -44.5326 H         1 UNK         0.0600 
    189 H189       -3.5188  -12.8281  -46.7674 H         1 UNK         0.3000 
    190 H190       -1.5550  -18.4860  -45.7696 H         1 UNK         0.3000 
    191 H191       -4.0013  -16.8036  -45.9172 H         1 UNK         0.0600 
    192 H192       -4.6187  -17.9318  -43.8144 H         1 UNK         0.0600 
    193 H193       -3.0365  -17.1928  -43.6488 H         1 UNK         0.0600 
    194 H194       -3.1761  -18.9348  -43.8801 H         1 UNK         0.0600 
    195 H195       -2.9059  -18.8444  -47.9001 H         1 UNK         0.3000 
    196 H196       -3.7264  -19.9850  -49.5490 H         1 UNK         0.0600 
    197 H197       -6.4927  -19.9689  -48.2251 H         1 UNK         0.0600 
    198 H198       -5.8853  -18.7504  -49.3460 H         1 UNK         0.0600 
    199 H199       -6.1416  -20.4002  -49.8824 H         1 UNK         0.0600 
    200 H200       -3.8916  -21.2294  -46.3799 H         1 UNK         0.3000 
    201 H201       -3.8994  -23.2276  -45.4042 H         1 UNK         0.0600 
    202 H202       -2.4551  -24.1359  -47.9471 H         1 UNK         0.0600 
    203 H203       -2.3973  -24.9320  -46.3828 H         1 UNK         0.0600 
    204 H204       -1.6994  -23.3354  -46.5675 H         1 UNK         0.0600 
    205 H205       -6.3516  -22.8100  -46.1897 H         1 UNK         0.3000 
    206 H206       -8.3577  -23.6032  -46.7238 H         1 UNK         0.0600 
    207 H207       -7.7560  -25.4484  -45.1384 H         1 UNK         0.0600 
    208 H208       -8.8624  -25.9869  -46.3906 H         1 UNK         0.0600 
    209 H209       -7.1611  -26.4149  -46.4876 H         1 UNK         0.0600 
    210 H210       -6.7258  -22.7890  -48.7687 H         1 UNK         0.3000 
    211 H211       -6.7676  -22.3809  -50.9075 H         1 UNK         0.0600 
    212 H212       -8.3870  -23.2981  -52.4846 H         1 UNK         0.0600 
    213 H213       -9.2081  -22.9222  -50.9789 H         1 UNK         0.0600 
    214 H214       -8.8177  -24.5948  -51.3843 H         1 UNK         0.0600 
    215 H215       -5.5464  -25.2034  -49.6221 H         1 UNK         0.3000 
    216 H216       -4.7332  -26.6050  -51.9744 H         1 UNK         0.0600 
    217 H217       -3.5019  -26.6835  -49.1719 H         1 UNK         0.0600 
    218 H218       -3.3193  -27.8946  -50.4312 H         1 UNK         0.0600 
    219 H219       -4.8926  -27.6369  -49.6905 H         1 UNK         0.0600 
    220 H220       -3.2235  -23.9622  -50.1151 H         1 UNK         0.3000 
    221 H221       -0.7220  -24.1058  -51.6964 H         1 UNK         0.0600 
    222 H222       -0.5119  -23.5836  -49.3044 H         1 UNK         0.0600 
    223 H223       -1.5914  -22.1993  -49.4765 H         1 UNK         0.0600 
    224 H224       -0.0232  -22.1999  -50.2675 H         1 UNK         0.0600 
    225 H225       -3.7117  -22.1680  -51.4481 H         1 UNK         0.3000 
    226 H226       -2.9516  -20.0832  -53.2359 H         1 UNK         0.0600 
    227 H227       -5.7272  -21.1961  -52.5906 H         1 UNK         0.0600 
    228 H228       -4.9063  -19.8553  -51.7783 H         1 UNK         0.0600 
    229 H229       -5.4147  -19.6945  -53.4467 H         1 UNK         0.0600 
    230 H230       -4.3614  -23.3077  -53.8494 H         1 UNK         0.3000 
    231 H231       -4.7176  -23.0785  -56.6480 H         1 UNK         0.0600 
    232 H232       -4.1107  -25.5243  -54.9015 H         1 UNK         0.0600 
    233 H233       -4.7067  -25.5869  -56.5571 H         1 UNK         0.0600 
    234 H234       -5.7098  -24.8938  -55.2926 H         1 UNK         0.0600 
    235 H235       -1.7683  -23.5334  -54.7708 H         1 UNK         0.3000 
    236 H236       -0.1568  -24.3443  -57.1039 H         1 UNK         0.0600 
    237 H237        0.3206  -25.3520  -54.8767 H         1 UNK         0.0600 
    238 H238        1.6909  -24.4316  -55.4796 H         1 UNK         0.0600 
    239 H239        0.6755  -23.7585  -54.2146 H         1 UNK         0.0600 
    240 H240       -0.5006  -21.5401  -54.8566 H         1 UNK         0.3000 
    241 H241        1.4027  -19.9069  -56.2205 H         1 UNK         0.0600 
    242 H242       -2.1419  -19.0690  -58.1164 H         1 UNK         0.3800 
    243 H243       -2.1793  -20.1746  -56.7650 H         1 UNK         0.3800 
    244 H244       -0.7897  -19.0689  -54.2774 H         1 UNK         0.0800 
    245 H245        0.5145  -18.0340  -54.8089 H         1 UNK         0.0800 
    246 H246       -0.6701  -19.5307  -51.9527 H         1 UNK         0.0800 
    247 H247        0.7318  -19.8959  -50.9919 H         1 UNK         0.0800 
@<TRIPOS>BOND
     1    1    2 1    
     2    1  127 1    
     3    1  128 1    
     4    1  129 1    
     5    2    3 2    
     6    2    4 am   BACKBONE|DICT|INTERRES
     7    4    5 1    
     8    4  130 1    
     9    5    6 1    
    10    5   65 1    
    11    5  131 1    
    12    6    7 1    
    13    6  132 1    
    14    6  133 1    
    15    7    8 1    
    16    8    9 1    
    17    8  134 1    
    18    8  135 1    
    19    9   10 ar   
    20    9   14 ar   
    21   10   11 ar   
    22   10  136 1    
    23   11   12 ar   
    24   11  126 1    
    25   12   13 ar   
    26   12  137 1    
    27   13   14 ar   
    28   13   15 1    
    29   14  138 1    
    30   15   16 1    
    31   15  139 1    
    32   15  140 1    
    33   16   17 1    
    34   17   18 1    
    35   17  141 1    
    36   17  142 1    
    37   18   19 1    
    38   18   67 1    
    39   18  143 1    
    40   19   20 am   BACKBONE|DICT|INTERRES
    41   19  144 1    
    42   20   21 2    
    43   20   22 1    
    44   22   23 1    
    45   22   24 1    
    46   22  145 1    
    47   23  146 1    
    48   23  147 1    
    49   23  148 1    
    50   24   25 am   BACKBONE|DICT|INTERRES
    51   24  149 1    
    52   25   26 2    
    53   25   27 1    
    54   27   28 1    
    55   27   29 1    
    56   27  150 1    
    57   28  151 1    
    58   28  152 1    
    59   28  153 1    
    60   29   30 am   BACKBONE|DICT|INTERRES
    61   29  154 1    
    62   30   31 2    
    63   30   32 1    
    64   32   33 1    
    65   32   34 1    
    66   32  155 1    
    67   33  156 1    
    68   33  157 1    
    69   33  158 1    
    70   34   35 am   BACKBONE|DICT|INTERRES
    71   34  159 1    
    72   35   36 2    
    73   35   37 1    
    74   37   38 1    
    75   37   39 1    
    76   37  160 1    
    77   38  161 1    
    78   38  162 1    
    79   38  163 1    
    80   39   40 am   BACKBONE|DICT|INTERRES
    81   39  164 1    
    82   40   41 2    
    83   40   42 1    
    84   42   43 1    
    85   42   44 1    
    86   42  165 1    
    87   43  166 1    
    88   43  167 1    
    89   43  168 1    
    90   44   45 am   BACKBONE|DICT|INTERRES
    91   44  169 1    
    92   45   46 2    
    93   45   47 1    
    94   47   48 1    
    95   47   49 1    
    96   47  170 1    
    97   48  171 1    
    98   48  172 1    
    99   48  173 1    
   100   49   50 am   BACKBONE|DICT|INTERRES
   101   49  174 1    
   102   50   51 2    
   103   50   52 1    
   104   52   53 1    
   105   52   54 1    
   106   52  175 1    
   107   53  176 1    
   108   53  177 1    
   109   53  178 1    
   110   54   55 am   BACKBONE|DICT|INTERRES
   111   54  179 1    
   112   55   56 2    
   113   55   57 1    
   114   57   58 1    
   115   57   59 1    
   116   57  180 1    
   117   58  181 1    
   118   58  182 1    
   119   58  183 1    
   120   59   60 am   BACKBONE|DICT|INTERRES
   121   59  184 1    
   122   60   61 2    
   123   60   62 1    
   124   62   63 1    
   125   62   64 1    
   126   62  185 1    
   127   63  186 1    
   128   63  187 1    
   129   63  188 1    
   130   64   65 am   BACKBONE|DICT|INTERRES
   131   64  189 1    
   132   65   66 2    
   133   67   68 2    
   134   67   69 am   BACKBONE|DICT|INTERRES
   135   69   70 1    
   136   69  190 1    
   137   70   71 1    
   138   70   72 1    
   139   70  191 1    
   140   71  192 1    
   141   71  193 1    
   142   71  194 1    
   143   72   73 2    
   144   72   74 am   BACKBONE|DICT|INTERRES
   145   74   75 1    
   146   74  195 1    
   147   75   76 1    
   148   75   77 1    
   149   75  196 1    
   150   76  197 1    
   151   76  198 1    
   152   76  199 1    
   153   77   78 2    
   154   77   79 am   BACKBONE|DICT|INTERRES
   155   79   80 1    
   156   79  200 1    
   157   80   81 1    
   158   80   82 1    
   159   80  201 1    
   160   81  202 1    
   161   81  203 1    
   162   81  204 1    
   163   82   83 2    
   164   82   84 am   BACKBONE|DICT|INTERRES
   165   84   85 1    
   166   84  205 1    
   167   85   86 1    
   168   85   87 1    
   169   85  206 1    
   170   86  207 1    
   171   86  208 1    
   172   86  209 1    
   173   87   88 2    
   174   87   89 am   BACKBONE|DICT|INTERRES
   175   89   90 1    
   176   89  210 1    
   177   90   91 1    
   178   90   92 1    
   179   90  211 1    
   180   91  212 1    
   181   91  213 1    
   182   91  214 1    
   183   92   93 2    
   184   92   94 am   BACKBONE|DICT|INTERRES
   185   94   95 1    
   186   94  215 1    
   187   95   96 1    
   188   95   97 1    
   189   95  216 1    
   190   96  217 1    
   191   96  218 1    
   192   96  219 1    
   193   97   98 2    
   194   97   99 am   BACKBONE|DICT|INTERRES
   195   99  100 1    
   196   99  220 1    
   197  100  101 1    
   198  100  102 1    
   199  100  221 1    
   200  101  222 1    
   201  101  223 1    
   202  101  224 1    
   203  102  103 2    
   204  102  104 am   BACKBONE|DICT|INTERRES
   205  104  105 1    
   206  104  225 1    
   207  105  106 1    
   208  105  107 1    
   209  105  226 1    
   210  106  227 1    
   211  106  228 1    
   212  106  229 1    
   213  107  108 2    
   214  107  109 am   BACKBONE|DICT|INTERRES
   215  109  110 1    
   216  109  230 1    
   217  110  111 1    
   218  110  112 1    
   219  110  231 1    
   220  111  232 1    
   221  111  233 1    
   222  111  234 1    
   223  112  113 2    
   224  112  114 am   BACKBONE|DICT|INTERRES
   225  114  115 1    
   226  114  235 1    
   227  115  116 1    
   228  115  117 1    
   229  115  236 1    
   230  116  237 1    
   231  116  238 1    
   232  116  239 1    
   233  117  118 2    
   234  117  119 am   BACKBONE|DICT|INTERRES
   235  119  120 1    
   236  119  240 1    
   237  120  121 1    
   238  120  124 1    
   239  120  241 1    
   240  121  122 am   BACKBONE|DICT|INTERRES
   241  121  123 2    
   242  122  242 1    
   243  122  243 1    
   244  124  125 1    
   245  124  244 1    
   246  124  245 1    
   247  125  126 1    
   248  126  246 1    
   249  126  247 1    
@<TRIPOS>SUBSTRUCTURE
     1 UNK         1 GROUP             0       ****    0 ROOT    
