@<TRIPOS>MOLECULE
3R540
247   249    1
SMALL
USER_CHARGES


@<TRIPOS>ATOM
      1 CA         -0.6044  -10.3734  -48.8052 C.3       0 UNK        -0.1800 
      2 C           0.8994  -10.5906  -48.8904 C.2       0 UNK         0.5000 
      3 O           1.6335   -9.6800  -49.2736 O.2       0 UNK        -0.5000 
      4 N           1.3664  -11.7863  -48.5133 N.am      1 UNK        -0.5000 
      5 CA          2.7675  -12.2316  -48.5587 C.3       1 UNK         0.1400 
      6 C6          2.8581  -13.7784  -48.6363 C.3       23 UNK        -0.0398 
      7 S7          2.1016  -14.4983  -50.1330 S.3       23 UNK        -0.2404 
      8 C8          0.3946  -14.8396  -49.5881 C.3       23 UNK        -0.0205 
      9 C9         -0.2006  -16.0516  -50.2927 C.ar      23 UNK        -0.0193 
     10 C10        -0.3192  -16.0738  -51.6866 C.ar      23 UNK        -0.1150 
     11 C11        -0.8735  -17.1806  -52.3355 C.ar      23 UNK        -0.0193 
     12 C12        -1.3252  -18.2661  -51.5806 C.ar      23 UNK        -0.1150 
     13 C13        -1.2363  -18.2460  -50.1866 C.ar      23 UNK        -0.0193 
     14 C14        -0.6640  -17.1419  -49.5481 C.ar      23 UNK        -0.1150 
     15 C15        -1.8078  -19.3920  -49.3700 C.3       23 UNK        -0.0205 
     16 S16        -0.5786  -20.6856  -49.0334 S.3       23 UNK        -0.2404 
     17 C17        -1.6169  -21.7946  -48.0305 C.3       23 UNK        -0.0398 
     18 CA         -0.8232  -22.9267  -47.3370 C.3       11 UNK         0.1400 
     19 N           0.0889  -22.4503  -46.2930 N.am      11 UNK        -0.5000 
     20 C           0.9562  -23.2276  -45.6263 C.2       10 UNK         0.5000 
     21 O           1.1517  -24.4144  -45.8894 O.2       10 UNK        -0.5000 
     22 CA          1.6866  -22.5955  -44.4266 C.3       10 UNK         0.1400 
     23 CB          2.9139  -21.7927  -44.8827 C.3       10 UNK        -0.1800 
     24 N           0.8091  -21.7515  -43.6131 N.am      10 UNK        -0.5000 
     25 C          -0.2506  -22.2014  -42.9253 C.2       9 UNK         0.5000 
     26 O          -0.5682  -23.3893  -42.8633 O.2       9 UNK        -0.5000 
     27 CA         -1.1324  -21.1474  -42.2284 C.3       9 UNK         0.1400 
     28 CB         -0.5305  -20.7266  -40.8797 C.3       9 UNK        -0.1800 
     29 N          -1.3630  -19.9657  -43.0611 N.am      9 UNK        -0.5000 
     30 C          -2.0329  -19.9836  -44.2225 C.2       8 UNK         0.5000 
     31 O          -2.5785  -20.9874  -44.6804 O.2       8 UNK        -0.5000 
     32 CA         -2.0529  -18.6800  -45.0408 C.3       8 UNK         0.1400 
     33 CB         -3.1463  -17.7298  -44.5328 C.3       8 UNK        -0.1800 
     34 N          -0.7595  -17.9941  -45.0539 N.am      8 UNK        -0.5000 
     35 C           0.3718  -18.5200  -45.5456 C.2       7 UNK         0.5000 
     36 O           0.4291  -19.6255  -46.0775 O.2       7 UNK        -0.5000 
     37 CA          1.6677  -17.7134  -45.3523 C.3       7 UNK         0.1400 
     38 CB          1.7768  -16.5792  -46.3772 C.3       7 UNK        -0.1800 
     39 N           1.7856  -17.1704  -44.0005 N.am      7 UNK        -0.5000 
     40 C           1.8855  -17.9193  -42.8935 C.2       6 UNK         0.5000 
     41 O           1.9565  -19.1478  -42.9019 O.2       6 UNK        -0.5000 
     42 CA          1.8433  -17.1715  -41.5513 C.3       6 UNK         0.1400 
     43 CB          3.2311  -16.6280  -41.1800 C.3       6 UNK        -0.1800 
     44 N           0.8699  -16.0792  -41.5750 N.am      6 UNK        -0.5000 
     45 C          -0.4589  -16.2578  -41.5921 C.2       5 UNK         0.5000 
     46 O          -0.9993  -17.3633  -41.5488 O.2       5 UNK        -0.5000 
     47 CA         -1.3259  -14.9907  -41.7161 C.3       5 UNK         0.1400 
     48 CB         -1.5281  -14.3356  -40.3418 C.3       5 UNK        -0.1800 
     49 N          -0.7627  -14.0084  -42.6449 N.am      5 UNK        -0.5000 
     50 C          -0.6632  -14.1933  -43.9686 C.2       4 UNK         0.5000 
     51 O          -1.0645  -15.2004  -44.5482 O.2       4 UNK        -0.5000 
     52 CA          0.0464  -13.0944  -44.7802 C.3       4 UNK         0.1400 
     53 CB         -0.9530  -12.0269  -45.2470 C.3       4 UNK        -0.1800 
     54 N           1.1496  -12.4446  -44.0704 N.am      4 UNK        -0.5000 
     55 C           2.2413  -13.0637  -43.6017 C.2       3 UNK         0.5000 
     56 O           2.3982  -14.2856  -43.6407 O.2       3 UNK        -0.5000 
     57 CA          3.3466  -12.1463  -43.0437 C.3       3 UNK         0.1400 
     58 CB          4.4975  -12.9316  -42.3909 C.3       3 UNK        -0.1800 
     59 N           3.8863  -11.3313  -44.1292 N.am      3 UNK        -0.5000 
     60 C           3.3594  -10.1883  -44.5828 C.2       2 UNK         0.5000 
     61 O           2.4113   -9.6155  -44.0440 O.2       2 UNK        -0.5000 
     62 CA          3.9319   -9.6382  -45.9029 C.3       2 UNK         0.1400 
     63 CB          5.4729   -9.5592  -45.9039 C.3       2 UNK        -0.1800 
     64 N           3.4210  -10.3803  -47.0621 N.am      2 UNK        -0.5000 
     65 C           3.5909  -11.6754  -47.3685 C.2       1 UNK         0.5000 
     66 O           4.3373  -12.4259  -46.7370 O.2       1 UNK        -0.5000 
     67 C          -1.7939  -23.9863  -46.7836 C.2       11 UNK         0.5000 
     68 O          -1.8967  -25.0618  -47.3698 O.2       11 UNK        -0.5000 
     69 N          -2.4534  -23.6913  -45.6537 N.am      12 UNK        -0.5000 
     70 CA         -3.4038  -24.5881  -44.9912 C.3       12 UNK         0.1400 
     71 CB         -4.0407  -23.8750  -43.7896 C.3       12 UNK        -0.1800 
     72 C          -2.7783  -25.9296  -44.5662 C.2       12 UNK         0.5000 
     73 O          -3.3973  -26.9750  -44.7657 O.2       12 UNK        -0.5000 
     74 N          -1.5408  -25.8860  -44.0525 N.am      13 UNK        -0.5000 
     75 CA         -0.7352  -27.0612  -43.7091 C.3       13 UNK         0.1400 
     76 CB          0.5311  -26.6058  -42.9685 C.3       13 UNK        -0.1800 
     77 C          -0.3671  -27.9336  -44.9280 C.2       13 UNK         0.5000 
     78 O          -0.2354  -29.1495  -44.7847 O.2       13 UNK        -0.5000 
     79 N          -0.2361  -27.3065  -46.1039 N.am      14 UNK        -0.5000 
     80 CA          0.0106  -27.9579  -47.3918 C.3       14 UNK         0.1400 
     81 CB          0.8451  -27.0061  -48.2661 C.3       14 UNK        -0.1800 
     82 C          -1.2881  -28.3735  -48.1185 C.2       14 UNK         0.5000 
     83 O          -1.2043  -28.9300  -49.2142 O.2       14 UNK        -0.5000 
     84 N          -2.4543  -28.0886  -47.5171 N.am      15 UNK        -0.5000 
     85 CA         -3.8110  -28.2863  -48.0427 C.3       15 UNK         0.1400 
     86 CB         -4.1113  -29.7827  -48.2706 C.3       15 UNK        -0.1800 
     87 C          -4.1337  -27.4066  -49.2727 C.2       15 UNK         0.5000 
     88 O          -4.9773  -27.7756  -50.0923 O.2       15 UNK        -0.5000 
     89 N          -3.4738  -26.2476  -49.3653 N.am      16 UNK        -0.5000 
     90 CA         -3.7227  -25.1878  -50.3376 C.3       16 UNK         0.1400 
     91 CB         -2.3615  -24.6399  -50.8017 C.3       16 UNK        -0.1800 
     92 C          -4.5807  -24.0789  -49.6975 C.2       16 UNK         0.5000 
     93 O          -4.8316  -24.1044  -48.4895 O.2       16 UNK        -0.5000 
     94 N          -5.0061  -23.1083  -50.5118 N.am      17 UNK        -0.5000 
     95 CA         -5.7769  -21.9450  -50.0836 C.3       17 UNK         0.1400 
     96 CB         -7.2789  -22.2328  -50.2429 C.3       17 UNK        -0.1800 
     97 C          -5.3610  -20.7296  -50.9189 C.2       17 UNK         0.5000 
     98 O          -4.9990  -20.8853  -52.0887 O.2       17 UNK        -0.5000 
     99 N          -5.4359  -19.5403  -50.3087 N.am      18 UNK        -0.5000 
    100 CA        -5.1609  -18.2560  -50.9541 C.3       18 UNK         0.1400 
    101 CB        -5.1562  -17.1475  -49.8913 C.3       18 UNK        -0.1800 
    102 C         -6.1712  -17.9475  -52.0738 C.2       18 UNK         0.5000 
    103 O         -7.3122  -18.4138  -52.0217 O.2       18 UNK        -0.5000 
    104 N         -5.7121  -17.2010  -53.0851 N.am      19 UNK        -0.5000 
    105 CA        -6.3625  -16.8885  -54.3651 C.3       19 UNK         0.1400 
    106 CB        -7.7248  -16.1934  -54.1783 C.3       19 UNK        -0.1800 
    107 C         -6.4662  -18.1048  -55.3067 C.2       19 UNK         0.5000 
    108 O         -6.1390  -17.9786  -56.4864 O.2       19 UNK        -0.5000 
    109 N         -6.8782  -19.2616  -54.7722 N.am      20 UNK        -0.5000 
    110 CA        -6.9862  -20.5368  -55.4795 C.3       20 UNK         0.1400 
    111 CB        -7.7141  -21.5540  -54.5867 C.3       20 UNK        -0.1800 
    112 C         -5.6171  -21.0765  -55.9286 C.2       20 UNK         0.5000 
    113 O         -5.4443  -21.3977  -57.1052 O.2       20 UNK        -0.5000 
    114 N         -4.6568  -21.1326  -54.9946 N.am      21 UNK        -0.5000 
    115 CA        -3.2863  -21.5862  -55.2500 C.3       21 UNK         0.1400 
    116 CB        -2.6254  -21.9562  -53.9148 C.3       21 UNK        -0.1800 
    117 C         -2.4274  -20.5561  -56.0089 C.2       21 UNK         0.5000 
    118 O         -1.3688  -20.9179  -56.5239 O.2       21 UNK        -0.5000 
    119 N         -2.8843  -19.2990  -56.0594 N.am      22 UNK        -0.5000 
    120 CA        -2.2059  -18.1828  -56.7368 C.3       22 UNK         0.1400 
    121 C         -2.3375  -18.1951  -58.2888 C.2       22 UNK         0.5000 
    122 N         -3.1772  -19.0355  -58.8825 N.am      22 UNK        -0.7600 
    123 O         -1.6576  -17.4308  -58.9680 O.2       22 UNK        -0.5000 
    124 C124       -2.6269  -16.8024  -56.1630 C.3       23 UNK        -0.0398 
    125 S125       -2.6813  -16.6892  -54.3392 S.3       23 UNK        -0.2404 
    126 C126       -1.0076  -17.1993  -53.8486 C.3       23 UNK        -0.0205 
    127 H127       -1.1284  -11.2775  -48.4942 H         1 UNK         0.0600 
    128 H128       -0.9952  -10.0729  -49.7773 H         1 UNK         0.0600 
    129 H129       -0.8295   -9.5849  -48.0871 H         1 UNK         0.0600 
    130 H130        0.7101  -12.4756  -48.1818 H         1 UNK         0.3000 
    131 H131        3.2268  -11.8286  -49.4637 H         1 UNK         0.0600 
    132 H132        3.9025  -14.0957  -48.6462 H         1 UNK         0.0800 
    133 H133        2.4201  -14.2286  -47.7467 H         1 UNK         0.0800 
    134 H134        0.3684  -14.9853  -48.5083 H         1 UNK         0.0800 
    135 H135       -0.2270  -13.9681  -49.7973 H         1 UNK         0.0800 
    136 H136        0.0226  -15.2274  -52.2657 H         1 UNK         0.1150 
    137 H137       -1.7695  -19.1164  -52.0781 H         1 UNK         0.1150 
    138 H138       -0.5967  -17.1284  -48.4692 H         1 UNK         0.1150 
    139 H139       -2.2041  -19.0081  -48.4299 H         1 UNK         0.0800 
    140 H140       -2.6494  -19.8383  -49.8992 H         1 UNK         0.0800 
    141 H141       -2.3759  -22.2075  -48.6971 H         1 UNK         0.0800 
    142 H142       -2.1551  -21.2022  -47.2902 H         1 UNK         0.0800 
    143 H143       -0.2119  -23.4204  -48.0956 H         1 UNK         0.0600 
    144 H144        0.0510  -21.4577  -46.0719 H         1 UNK         0.3000 
    145 H145        2.0387  -23.4104  -43.7906 H         1 UNK         0.0600 
    146 H146        3.4604  -21.3897  -44.0299 H         1 UNK         0.0600 
    147 H147        3.6041  -22.4237  -45.4439 H         1 UNK         0.0600 
    148 H148        2.6375  -20.9583  -45.5264 H         1 UNK         0.0600 
    149 H149        1.0332  -20.7617  -43.5760 H         1 UNK         0.3000 
    150 H150       -2.1029  -21.6073  -42.0320 H         1 UNK         0.0600 
    151 H151       -0.3899  -21.5910  -40.2297 H         1 UNK         0.0600 
    152 H152       -1.1851  -20.0289  -40.3570 H         1 UNK         0.0600 
    153 H153        0.4402  -20.2464  -41.0004 H         1 UNK         0.0600 
    154 H154       -0.9805  -19.0876  -42.7281 H         1 UNK         0.3000 
    155 H155       -2.2933  -18.9460  -46.0708 H         1 UNK         0.0600 
    156 H156       -2.9424  -17.3859  -43.5187 H         1 UNK         0.0600 
    157 H157       -3.2326  -16.8517  -45.1730 H         1 UNK         0.0600 
    158 H158       -4.1194  -18.2223  -44.5242 H         1 UNK         0.0600 
    159 H159       -0.7441  -17.0494  -44.6783 H         1 UNK         0.3000 
    160 H160        2.5086  -18.3916  -45.5114 H         1 UNK         0.0600 
    161 H161        2.7129  -16.0347  -46.2529 H         1 UNK         0.0600 
    162 H162        0.9572  -15.8687  -46.2790 H         1 UNK         0.0600 
    163 H163        1.7575  -16.9697  -47.3955 H         1 UNK         0.0600 
    164 H164        1.7860  -16.1596  -43.9041 H         1 UNK         0.3000 
    165 H165        1.5411  -17.8825  -40.7794 H         1 UNK         0.0600 
    166 H166        3.2079  -16.1012  -40.2260 H         1 UNK         0.0600 
    167 H167        3.9517  -17.4411  -41.0853 H         1 UNK         0.0600 
    168 H168        3.6139  -15.9414  -41.9350 H         1 UNK         0.0600 
    169 H169        1.2384  -15.1456  -41.6830 H         1 UNK         0.3000 
    170 H170       -2.3041  -15.2941  -42.0952 H         1 UNK         0.0600 
    171 H171       -0.5862  -13.9845  -39.9184 H         1 UNK         0.0600 
    172 H172       -2.2054  -13.4839  -40.4070 H         1 UNK         0.0600 
    173 H173       -1.9634  -15.0420  -39.6336 H         1 UNK         0.0600 
    174 H174       -0.4044  -13.1519  -42.2489 H         1 UNK         0.3000 
    175 H175        0.4706  -13.5683  -45.6672 H         1 UNK         0.0600 
    176 H176       -0.4687  -11.2816  -45.8778 H         1 UNK         0.0600 
    177 H177       -1.4075  -11.5058  -44.4035 H         1 UNK         0.0600 
    178 H178       -1.7589  -12.4739  -45.8308 H         1 UNK         0.0600 
    179 H179        1.1206  -11.4340  -44.0113 H         1 UNK         0.3000 
    180 H180        2.9010  -11.5030  -42.2821 H         1 UNK         0.0600 
    181 H181        4.9783  -13.6088  -43.0981 H         1 UNK         0.0600 
    182 H182        4.1354  -13.5295  -41.5539 H         1 UNK         0.0600 
    183 H183        5.2611  -12.2583  -42.0011 H         1 UNK         0.0600 
    184 H184        4.5595  -11.7898  -44.7326 H         1 UNK         0.3000 
    185 H185        3.5562   -8.6190  -46.0062 H         1 UNK         0.0600 
    186 H186        5.9461  -10.5389  -45.8407 H         1 UNK         0.0600 
    187 H187        5.8366   -9.0754  -46.8103 H         1 UNK         0.0600 
    188 H188        5.8303   -8.9710  -45.0578 H         1 UNK         0.0600 
    189 H189        2.7902   -9.8615  -47.6656 H         1 UNK         0.3000 
    190 H190       -2.3365  -22.7704  -45.2377 H         1 UNK         0.3000 
    191 H191       -4.1947  -24.8092  -45.7111 H         1 UNK         0.0600 
    192 H192       -4.5559  -22.9656  -44.0994 H         1 UNK         0.0600 
    193 H193       -4.7758  -24.5150  -43.3003 H         1 UNK         0.0600 
    194 H194       -3.2959  -23.5997  -43.0430 H         1 UNK         0.0600 
    195 H195       -1.1212  -24.9779  -43.8724 H         1 UNK         0.3000 
    196 H196       -1.3236  -27.6800  -43.0287 H         1 UNK         0.0600 
    197 H197        1.1406  -27.4605  -42.6725 H         1 UNK         0.0600 
    198 H198        0.2808  -26.0548  -42.0618 H         1 UNK         0.0600 
    199 H199        1.1502  -25.9599  -43.5916 H         1 UNK         0.0600 
    200 H200       -0.3585  -26.3013  -46.1332 H         1 UNK         0.3000 
    201 H201        0.5956  -28.8655  -47.2306 H         1 UNK         0.0600 
    202 H202        1.7704  -26.7207  -47.7653 H         1 UNK         0.0600 
    203 H203        0.2997  -26.0924  -48.5033 H         1 UNK         0.0600 
    204 H204        1.1197  -27.4778  -49.2102 H         1 UNK         0.0600 
    205 H205       -2.4116  -27.6153  -46.6229 H         1 UNK         0.3000 
    206 H206       -4.4811  -27.9404  -47.2546 H         1 UNK         0.0600 
    207 H207       -3.8757  -30.3715  -47.3841 H         1 UNK         0.0600 
    208 H208       -5.1678  -29.9396  -48.4907 H         1 UNK         0.0600 
    209 H209       -3.5419  -30.1897  -49.1064 H         1 UNK         0.0600 
    210 H210       -2.8568  -25.9849  -48.5986 H         1 UNK         0.3000 
    211 H211       -4.2600  -25.5803  -51.2031 H         1 UNK         0.0600 
    212 H212       -1.7716  -24.2579  -49.9696 H         1 UNK         0.0600 
    213 H213       -2.4770  -23.8270  -51.5165 H         1 UNK         0.0600 
    214 H214       -1.7748  -25.4182  -51.2903 H         1 UNK         0.0600 
    215 H215       -4.7328  -23.0956  -51.4857 H         1 UNK         0.3000 
    216 H216       -5.5629  -21.7220  -49.0359 H         1 UNK         0.0600 
    217 H217       -7.8774  -21.3681  -49.9534 H         1 UNK         0.0600 
    218 H218       -7.5882  -23.0680  -49.6143 H         1 UNK         0.0600 
    219 H219       -7.5335  -22.4783  -51.2745 H         1 UNK         0.0600 
    220 H220       -5.7932  -19.4957  -49.3659 H         1 UNK         0.3000 
    221 H221       -4.1667  -18.3131  -51.4002 H         1 UNK         0.0600 
    222 H222       -6.1256  -17.0574  -49.3996 H         1 UNK         0.0600 
    223 H223       -4.4048  -17.3391  -49.1249 H         1 UNK         0.0600 
    224 H224       -4.9219  -16.1798  -50.3368 H         1 UNK         0.0600 
    225 H225       -4.7497  -16.8912  -53.0342 H         1 UNK         0.3000 
    226 H226       -5.7046  -16.1701  -54.8564 H         1 UNK         0.0600 
    227 H227       -7.6387  -15.3267  -53.5231 H         1 UNK         0.0600 
    228 H228       -8.1108  -15.8407  -55.1354 H         1 UNK         0.0600 
    229 H229       -8.4757  -16.8614  -53.7562 H         1 UNK         0.0600 
    230 H230       -7.1250  -19.2573  -53.7874 H         1 UNK         0.3000 
    231 H231       -7.5915  -20.3747  -56.3738 H         1 UNK         0.0600 
    232 H232       -7.1776  -21.7302  -53.6540 H         1 UNK         0.0600 
    233 H233       -7.8180  -22.5145  -55.0929 H         1 UNK         0.0600 
    234 H234       -8.7171  -21.2094  -54.3343 H         1 UNK         0.0600 
    235 H235       -4.8764  -20.8803  -54.0344 H         1 UNK         0.3000 
    236 H236       -3.3306  -22.4879  -55.8645 H         1 UNK         0.0600 
    237 H237       -3.2066  -22.7182  -53.3977 H         1 UNK         0.0600 
    238 H238       -1.6229  -22.3576  -54.0678 H         1 UNK         0.0600 
    239 H239       -2.5377  -21.0926  -53.2552 H         1 UNK         0.0600 
    240 H240       -3.7704  -19.0898  -55.6257 H         1 UNK         0.3000 
    241 H241       -1.1374  -18.2941  -56.5453 H         1 UNK         0.0600 
    242 H242       -3.7503  -19.6604  -58.3355 H         1 UNK         0.3800 
    243 H243       -3.2515  -19.0371  -59.8876 H         1 UNK         0.3800 
    244 H244       -1.9555  -16.0236  -56.5287 H         1 UNK         0.0800 
    245 H245       -3.6203  -16.5359  -56.5279 H         1 UNK         0.0800 
    246 H246       -0.2721  -16.5379  -54.3089 H         1 UNK         0.0800 
    247 H247       -0.8001  -18.2055  -54.2147 H         1 UNK         0.0800 
@<TRIPOS>BOND
     1    1    2 1    
     2    1  127 1    
     3    1  128 1    
     4    1  129 1    
     5    2    3 2    
     6    2    4 am   BACKBONE|DICT|INTERRES
     7    4    5 1    
     8    4  130 1    
     9    5    6 1    
    10    5   65 1    
    11    5  131 1    
    12    6    7 1    
    13    6  132 1    
    14    6  133 1    
    15    7    8 1    
    16    8    9 1    
    17    8  134 1    
    18    8  135 1    
    19    9   10 ar   
    20    9   14 ar   
    21   10   11 ar   
    22   10  136 1    
    23   11   12 ar   
    24   11  126 1    
    25   12   13 ar   
    26   12  137 1    
    27   13   14 ar   
    28   13   15 1    
    29   14  138 1    
    30   15   16 1    
    31   15  139 1    
    32   15  140 1    
    33   16   17 1    
    34   17   18 1    
    35   17  141 1    
    36   17  142 1    
    37   18   19 1    
    38   18   67 1    
    39   18  143 1    
    40   19   20 am   BACKBONE|DICT|INTERRES
    41   19  144 1    
    42   20   21 2    
    43   20   22 1    
    44   22   23 1    
    45   22   24 1    
    46   22  145 1    
    47   23  146 1    
    48   23  147 1    
    49   23  148 1    
    50   24   25 am   BACKBONE|DICT|INTERRES
    51   24  149 1    
    52   25   26 2    
    53   25   27 1    
    54   27   28 1    
    55   27   29 1    
    56   27  150 1    
    57   28  151 1    
    58   28  152 1    
    59   28  153 1    
    60   29   30 am   BACKBONE|DICT|INTERRES
    61   29  154 1    
    62   30   31 2    
    63   30   32 1    
    64   32   33 1    
    65   32   34 1    
    66   32  155 1    
    67   33  156 1    
    68   33  157 1    
    69   33  158 1    
    70   34   35 am   BACKBONE|DICT|INTERRES
    71   34  159 1    
    72   35   36 2    
    73   35   37 1    
    74   37   38 1    
    75   37   39 1    
    76   37  160 1    
    77   38  161 1    
    78   38  162 1    
    79   38  163 1    
    80   39   40 am   BACKBONE|DICT|INTERRES
    81   39  164 1    
    82   40   41 2    
    83   40   42 1    
    84   42   43 1    
    85   42   44 1    
    86   42  165 1    
    87   43  166 1    
    88   43  167 1    
    89   43  168 1    
    90   44   45 am   BACKBONE|DICT|INTERRES
    91   44  169 1    
    92   45   46 2    
    93   45   47 1    
    94   47   48 1    
    95   47   49 1    
    96   47  170 1    
    97   48  171 1    
    98   48  172 1    
    99   48  173 1    
   100   49   50 am   BACKBONE|DICT|INTERRES
   101   49  174 1    
   102   50   51 2    
   103   50   52 1    
   104   52   53 1    
   105   52   54 1    
   106   52  175 1    
   107   53  176 1    
   108   53  177 1    
   109   53  178 1    
   110   54   55 am   BACKBONE|DICT|INTERRES
   111   54  179 1    
   112   55   56 2    
   113   55   57 1    
   114   57   58 1    
   115   57   59 1    
   116   57  180 1    
   117   58  181 1    
   118   58  182 1    
   119   58  183 1    
   120   59   60 am   BACKBONE|DICT|INTERRES
   121   59  184 1    
   122   60   61 2    
   123   60   62 1    
   124   62   63 1    
   125   62   64 1    
   126   62  185 1    
   127   63  186 1    
   128   63  187 1    
   129   63  188 1    
   130   64   65 am   BACKBONE|DICT|INTERRES
   131   64  189 1    
   132   65   66 2    
   133   67   68 2    
   134   67   69 am   BACKBONE|DICT|INTERRES
   135   69   70 1    
   136   69  190 1    
   137   70   71 1    
   138   70   72 1    
   139   70  191 1    
   140   71  192 1    
   141   71  193 1    
   142   71  194 1    
   143   72   73 2    
   144   72   74 am   BACKBONE|DICT|INTERRES
   145   74   75 1    
   146   74  195 1    
   147   75   76 1    
   148   75   77 1    
   149   75  196 1    
   150   76  197 1    
   151   76  198 1    
   152   76  199 1    
   153   77   78 2    
   154   77   79 am   BACKBONE|DICT|INTERRES
   155   79   80 1    
   156   79  200 1    
   157   80   81 1    
   158   80   82 1    
   159   80  201 1    
   160   81  202 1    
   161   81  203 1    
   162   81  204 1    
   163   82   83 2    
   164   82   84 am   BACKBONE|DICT|INTERRES
   165   84   85 1    
   166   84  205 1    
   167   85   86 1    
   168   85   87 1    
   169   85  206 1    
   170   86  207 1    
   171   86  208 1    
   172   86  209 1    
   173   87   88 2    
   174   87   89 am   BACKBONE|DICT|INTERRES
   175   89   90 1    
   176   89  210 1    
   177   90   91 1    
   178   90   92 1    
   179   90  211 1    
   180   91  212 1    
   181   91  213 1    
   182   91  214 1    
   183   92   93 2    
   184   92   94 am   BACKBONE|DICT|INTERRES
   185   94   95 1    
   186   94  215 1    
   187   95   96 1    
   188   95   97 1    
   189   95  216 1    
   190   96  217 1    
   191   96  218 1    
   192   96  219 1    
   193   97   98 2    
   194   97   99 am   BACKBONE|DICT|INTERRES
   195   99  100 1    
   196   99  220 1    
   197  100  101 1    
   198  100  102 1    
   199  100  221 1    
   200  101  222 1    
   201  101  223 1    
   202  101  224 1    
   203  102  103 2    
   204  102  104 am   BACKBONE|DICT|INTERRES
   205  104  105 1    
   206  104  225 1    
   207  105  106 1    
   208  105  107 1    
   209  105  226 1    
   210  106  227 1    
   211  106  228 1    
   212  106  229 1    
   213  107  108 2    
   214  107  109 am   BACKBONE|DICT|INTERRES
   215  109  110 1    
   216  109  230 1    
   217  110  111 1    
   218  110  112 1    
   219  110  231 1    
   220  111  232 1    
   221  111  233 1    
   222  111  234 1    
   223  112  113 2    
   224  112  114 am   BACKBONE|DICT|INTERRES
   225  114  115 1    
   226  114  235 1    
   227  115  116 1    
   228  115  117 1    
   229  115  236 1    
   230  116  237 1    
   231  116  238 1    
   232  116  239 1    
   233  117  118 2    
   234  117  119 am   BACKBONE|DICT|INTERRES
   235  119  120 1    
   236  119  240 1    
   237  120  121 1    
   238  120  124 1    
   239  120  241 1    
   240  121  122 am   BACKBONE|DICT|INTERRES
   241  121  123 2    
   242  122  242 1    
   243  122  243 1    
   244  124  125 1    
   245  124  244 1    
   246  124  245 1    
   247  125  126 1    
   248  126  246 1    
   249  126  247 1    
@<TRIPOS>SUBSTRUCTURE
     1 UNK         1 GROUP             0       ****    0 ROOT    
