@<TRIPOS>MOLECULE
3R540
247   249    1
SMALL
USER_CHARGES


@<TRIPOS>ATOM
      1 CA          0.8532   -8.4823  -44.6842 C.3       0 UNK        -0.1800 
      2 C           0.9321   -8.9844  -46.1182 C.2       0 UNK         0.5000 
      3 O           1.6616   -8.4149  -46.9302 O.2       0 UNK        -0.5000 
      4 N           0.2054  -10.0629  -46.4319 N.am      1 UNK        -0.5000 
      5 CA          0.1235  -10.7162  -47.7459 C.3       1 UNK         0.1400 
      6 C6         -1.2265  -11.4666  -47.9199 C.3       23 UNK        -0.0398 
      7 S7         -1.6191  -12.6389  -46.5689 S.3       23 UNK        -0.2404 
      8 C8         -2.5795  -13.9174  -47.4480 C.3       23 UNK        -0.0205 
      9 C9         -1.7564  -14.6944  -48.4690 C.ar      23 UNK        -0.0193 
     10 C10        -2.1890  -14.7996  -49.7944 C.ar      23 UNK        -0.1150 
     11 C11        -1.4385  -15.5173  -50.7308 C.ar      23 UNK        -0.0193 
     12 C12        -0.2446  -16.1284  -50.3360 C.ar      23 UNK        -0.1150 
     13 C13         0.1920  -16.0443  -49.0101 C.ar      23 UNK        -0.0193 
     14 C14        -0.5701  -15.3250  -48.0862 C.ar      23 UNK        -0.1150 
     15 C15         1.4850  -16.7197  -48.5645 C.3       23 UNK        -0.0205 
     16 S16         1.5474  -18.5019  -48.9589 S.3       23 UNK        -0.2404 
     17 C17        -0.0842  -19.0716  -48.3774 C.3       23 UNK        -0.0398 
     18 CA         -0.0889  -20.5664  -47.9818 C.3       11 UNK         0.1400 
     19 N           0.6052  -20.8182  -46.7142 N.am      11 UNK        -0.5000 
     20 C           0.9064  -22.0359  -46.2415 C.2       10 UNK         0.5000 
     21 O           0.6935  -23.0778  -46.8602 O.2       10 UNK        -0.5000 
     22 CA          1.5044  -22.1125  -44.8242 C.3       10 UNK         0.1400 
     23 CB          3.0179  -21.8507  -44.8456 C.3       10 UNK        -0.1800 
     24 N           0.8509  -21.1958  -43.8887 N.am      10 UNK        -0.5000 
     25 C          -0.4232  -21.3102  -43.4855 C.2       9 UNK         0.5000 
     26 O          -1.1631  -22.2371  -43.8148 O.2       9 UNK        -0.5000 
     27 CA         -0.9798  -20.1836  -42.5946 C.3       9 UNK         0.1400 
     28 CB         -0.6105  -20.4205  -41.1228 C.3       9 UNK        -0.1800 
     29 N          -0.5313  -18.8532  -43.0089 N.am      9 UNK        -0.5000 
     30 C          -0.8199  -18.2887  -44.1898 C.2       8 UNK         0.5000 
     31 O          -1.5382  -18.8141  -45.0384 O.2       8 UNK        -0.5000 
     32 CA         -0.1403  -16.9467  -44.5128 C.3       8 UNK         0.1400 
     33 CB         -0.8817  -15.7664  -43.8703 C.3       8 UNK        -0.1800 
     34 N           1.2712  -16.9192  -44.1319 N.am      8 UNK        -0.5000 
     35 C           2.2035  -17.7323  -44.6483 C.2       7 UNK         0.5000 
     36 O           1.9751  -18.5580  -45.5301 O.2       7 UNK        -0.5000 
     37 CA          3.6086  -17.6554  -44.0313 C.3       7 UNK         0.1400 
     38 CB          4.4028  -16.4696  -44.6015 C.3       7 UNK        -0.1800 
     39 N           3.5454  -17.5662  -42.5724 N.am      7 UNK        -0.5000 
     40 C           3.1531  -18.5710  -41.7752 C.2       6 UNK         0.5000 
     41 O           2.8584  -19.6933  -42.1860 O.2       6 UNK        -0.5000 
     42 CA          3.0303  -18.2566  -40.2725 C.3       6 UNK         0.1400 
     43 CB          4.3921  -18.4000  -39.5770 C.3       6 UNK        -0.1800 
     44 N           2.4960  -16.9176  -40.0194 N.am      6 UNK        -0.5000 
     45 C           1.2484  -16.5277  -40.3191 C.2       5 UNK         0.5000 
     46 O           0.3962  -17.2753  -40.7954 O.2       5 UNK        -0.5000 
     47 CA          0.9146  -15.0394  -40.1003 C.3       5 UNK         0.1400 
     48 CB          0.4051  -14.8048  -38.6707 C.3       5 UNK        -0.1800 
     49 N           2.0508  -14.1517  -40.3651 N.am      5 UNK        -0.5000 
     50 C           2.6548  -14.0284  -41.5541 C.2       4 UNK         0.5000 
     51 O           2.3073  -14.6460  -42.5638 O.2       4 UNK        -0.5000 
     52 CA          3.9051  -13.1321  -41.5881 C.3       4 UNK         0.1400 
     53 CB          5.1250  -13.9146  -41.0748 C.3       4 UNK        -0.1800 
     54 N           4.2053  -12.6404  -42.9319 N.am      4 UNK        -0.5000 
     55 C           3.4832  -11.7242  -43.5917 C.2       3 UNK         0.5000 
     56 O           2.4828  -11.1717  -43.1343 O.2       3 UNK        -0.5000 
     57 CA          3.9683  -11.3748  -45.0042 C.3       3 UNK         0.1400 
     58 CB          5.2895  -10.5830  -44.9431 C.3       3 UNK        -0.1800 
     59 N           4.1241  -12.6083  -45.7773 N.am      3 UNK        -0.5000 
     60 C           4.1228  -12.7844  -47.1068 C.2       2 UNK         0.5000 
     61 O           4.2865  -13.9070  -47.5841 O.2       2 UNK        -0.5000 
     62 CA          3.8946  -11.5779  -48.0548 C.3       2 UNK         0.1400 
     63 CB          4.1665  -11.9225  -49.5350 C.3       2 UNK        -0.1800 
     64 N           2.5617  -10.9823  -47.9116 N.am      2 UNK        -0.5000 
     65 C           1.3717  -11.5820  -48.0557 C.2       1 UNK         0.5000 
     66 O           1.2441  -12.7509  -48.4127 O.2       1 UNK        -0.5000 
     67 C          -1.5348  -21.1033  -47.9695 C.2       11 UNK         0.5000 
     68 O          -1.9736  -21.6583  -48.9739 O.2       11 UNK        -0.5000 
     69 N          -2.2455  -20.9324  -46.8465 N.am      12 UNK        -0.5000 
     70 CA         -3.6405  -21.3397  -46.6641 C.3       12 UNK         0.1400 
     71 CB         -4.2292  -20.5710  -45.4711 C.3       12 UNK        -0.1800 
     72 C          -3.8476  -22.8557  -46.4749 C.2       12 UNK         0.5000 
     73 O          -4.9940  -23.3068  -46.5298 O.2       12 UNK        -0.5000 
     74 N          -2.7668  -23.6150  -46.2484 N.am      13 UNK        -0.5000 
     75 CA         -2.7765  -25.0602  -46.0108 C.3       13 UNK         0.1400 
     76 CB         -1.3351  -25.5440  -45.7985 C.3       13 UNK        -0.1800 
     77 C          -3.4498  -25.8599  -47.1440 C.2       13 UNK         0.5000 
     78 O          -3.2822  -25.5226  -48.3185 O.2       13 UNK        -0.5000 
     79 N          -4.2038  -26.9008  -46.7605 N.am      14 UNK        -0.5000 
     80 CA         -4.9825  -27.7907  -47.6326 C.3       14 UNK         0.1400 
     81 CB         -4.0433  -28.6786  -48.4763 C.3       14 UNK        -0.1800 
     82 C          -6.0226  -27.0316  -48.4856 C.2       14 UNK         0.5000 
     83 O          -6.1530  -27.2969  -49.6816 O.2       14 UNK        -0.5000 
     84 N          -6.7148  -26.0695  -47.8540 N.am      15 UNK        -0.5000 
     85 CA         -7.6776  -25.1376  -48.4566 C.3       15 UNK         0.1400 
     86 CB         -8.9489  -25.8826  -48.9158 C.3       15 UNK        -0.1800 
     87 C          -7.0314  -24.2991  -49.5780 C.2       15 UNK         0.5000 
     88 O          -7.5487  -24.2409  -50.6941 O.2       15 UNK        -0.5000 
     89 N          -5.8694  -23.7144  -49.2595 N.am      16 UNK        -0.5000 
     90 CA         -4.9638  -22.9903  -50.1539 C.3       16 UNK         0.1400 
     91 CB         -5.5727  -21.6362  -50.5707 C.3       16 UNK        -0.1800 
     92 C          -4.5041  -23.8487  -51.3482 C.2       16 UNK         0.5000 
     93 O          -4.5846  -23.4055  -52.4958 O.2       16 UNK        -0.5000 
     94 N          -4.0630  -25.0793  -51.0500 N.am      17 UNK        -0.5000 
     95 CA         -3.6772  -26.1368  -51.9915 C.3       17 UNK         0.1400 
     96 CB         -2.3462  -25.7784  -52.6844 C.3       17 UNK        -0.1800 
     97 C          -4.8037  -26.4773  -52.9920 C.2       17 UNK         0.5000 
     98 O          -4.5531  -26.5795  -54.1930 O.2       17 UNK        -0.5000 
     99 N          -6.0313  -26.6107  -52.4692 N.am      18 UNK        -0.5000 
    100 CA        -7.2971  -26.7452  -53.1970 C.3       18 UNK         0.1400 
    101 CB        -7.3704  -28.1003  -53.9314 C.3       18 UNK        -0.1800 
    102 C         -7.5720  -25.5321  -54.1138 C.2       18 UNK         0.5000 
    103 O         -7.8806  -25.6997  -55.2954 O.2       18 UNK        -0.5000 
    104 N         -7.4462  -24.3314  -53.5298 N.am      19 UNK        -0.5000 
    105 CA        -7.6210  -23.0073  -54.1330 C.3       19 UNK         0.1400 
    106 CB        -9.1103  -22.7569  -54.4483 C.3       19 UNK        -0.1800 
    107 C         -6.6928  -22.7598  -55.3417 C.2       19 UNK         0.5000 
    108 O         -7.1582  -22.3308  -56.4002 O.2       19 UNK        -0.5000 
    109 N         -5.3964  -23.0429  -55.1631 N.am      20 UNK        -0.5000 
    110 CA        -4.3724  -22.9303  -56.2039 C.3       20 UNK         0.1400 
    111 CB        -4.1127  -24.3173  -56.8132 C.3       20 UNK        -0.1800 
    112 C         -3.0560  -22.3002  -55.7154 C.2       20 UNK         0.5000 
    113 O         -2.2592  -21.8903  -56.5613 O.2       20 UNK        -0.5000 
    114 N         -2.8282  -22.2100  -54.3943 N.am      21 UNK        -0.5000 
    115 CA        -1.5754  -21.7226  -53.7960 C.3       21 UNK         0.1400 
    116 CB        -1.6369  -21.8716  -52.2685 C.3       21 UNK        -0.1800 
    117 C         -1.2071  -20.2733  -54.1694 C.2       21 UNK         0.5000 
    118 O         -0.0212  -19.9559  -54.2702 O.2       21 UNK        -0.5000 
    119 N         -2.2272  -19.4370  -54.3891 N.am      22 UNK        -0.5000 
    120 CA        -2.0936  -18.0486  -54.8580 C.3       22 UNK         0.1400 
    121 C         -2.0875  -17.9091  -56.4104 C.2       22 UNK         0.5000 
    122 N         -2.1273  -18.9854  -57.1882 N.am      22 UNK        -0.7600 
    123 O         -2.0297  -16.7965  -56.9270 O.2       22 UNK        -0.5000 
    124 C124       -3.1483  -17.1205  -54.2003 C.3       23 UNK        -0.0398 
    125 S125       -2.9962  -17.0849  -52.3813 S.3       23 UNK        -0.2404 
    126 C126       -1.9160  -15.6368  -52.1683 C.3       23 UNK        -0.0205 
    127 H127        0.2230   -9.1220  -44.0657 H         1 UNK         0.0600 
    128 H128        0.4434   -7.4727  -44.6613 H         1 UNK         0.0600 
    129 H129        1.8485   -8.4589  -44.2402 H         1 UNK         0.0600 
    130 H130       -0.3443  -10.5111  -45.7117 H         1 UNK         0.3000 
    131 H131        0.1301   -9.9282  -48.5022 H         1 UNK         0.0600 
    132 H132       -2.0367  -10.7377  -47.9602 H         1 UNK         0.0800 
    133 H133       -1.2543  -11.9799  -48.8823 H         1 UNK         0.0800 
    134 H134       -2.9757  -14.6213  -46.7150 H         1 UNK         0.0800 
    135 H135       -3.4428  -13.4463  -47.9205 H         1 UNK         0.0800 
    136 H136       -3.1120  -14.3271  -50.0998 H         1 UNK         0.1150 
    137 H137        0.3385  -16.6843  -51.0567 H         1 UNK         0.1150 
    138 H138       -0.2263  -15.2225  -47.0685 H         1 UNK         0.1150 
    139 H139        2.3277  -16.2184  -49.0424 H         1 UNK         0.0800 
    140 H140        1.6303  -16.5981  -47.4905 H         1 UNK         0.0800 
    141 H141       -0.7882  -18.8799  -49.1902 H         1 UNK         0.0800 
    142 H142       -0.4119  -18.4559  -47.5386 H         1 UNK         0.0800 
    143 H143        0.4402  -21.1227  -48.7590 H         1 UNK         0.0600 
    144 H144        0.8887  -20.0009  -46.1799 H         1 UNK         0.3000 
    145 H145        1.3475  -23.1285  -44.4558 H         1 UNK         0.0600 
    146 H146        3.5251  -22.5566  -45.5044 H         1 UNK         0.0600 
    147 H147        3.2521  -20.8474  -45.1999 H         1 UNK         0.0600 
    148 H148        3.4513  -21.9638  -43.8518 H         1 UNK         0.0600 
    149 H149        1.4110  -20.4282  -43.5355 H         1 UNK         0.3000 
    150 H150       -2.0683  -20.2054  -42.6766 H         1 UNK         0.0600 
    151 H151       -0.9525  -21.4001  -40.7869 H         1 UNK         0.0600 
    152 H152       -1.0732  -19.6751  -40.4758 H         1 UNK         0.0600 
    153 H153        0.4674  -20.3768  -40.9658 H         1 UNK         0.0600 
    154 H154        0.0178  -18.3275  -42.3340 H         1 UNK         0.3000 
    155 H155       -0.1854  -16.8280  -45.5943 H         1 UNK         0.0600 
    156 H156       -0.4258  -14.8159  -44.1490 H         1 UNK         0.0600 
    157 H157       -0.8806  -15.8336  -42.7827 H         1 UNK         0.0600 
    158 H158       -1.9217  -15.7363  -44.1974 H         1 UNK         0.0600 
    159 H159        1.5510  -16.2338  -43.4365 H         1 UNK         0.3000 
    160 H160        4.1401  -18.5727  -44.2938 H         1 UNK         0.0600 
    161 H161        3.9182  -15.5163  -44.3957 H         1 UNK         0.0600 
    162 H162        4.5004  -16.5549  -45.6847 H         1 UNK         0.0600 
    163 H163        5.4098  -16.4322  -44.1860 H         1 UNK         0.0600 
    164 H164        3.7095  -16.6582  -42.1653 H         1 UNK         0.3000 
    165 H165        2.3441  -18.9847  -39.8347 H         1 UNK         0.0600 
    166 H166        4.3020  -18.2548  -38.5003 H         1 UNK         0.0600 
    167 H167        4.8078  -19.3960  -39.7357 H         1 UNK         0.0600 
    168 H168        5.1170  -17.6775  -39.9542 H         1 UNK         0.0600 
    169 H169        3.1293  -16.2401  -39.6221 H         1 UNK         0.3000 
    170 H170        0.1154  -14.7742  -40.7951 H         1 UNK         0.0600 
    171 H171       -0.4552  -15.4398  -38.4544 H         1 UNK         0.0600 
    172 H172        1.1718  -15.0262  -37.9272 H         1 UNK         0.0600 
    173 H173        0.0877  -13.7715  -38.5296 H         1 UNK         0.0600 
    174 H174        2.3990  -13.6211  -39.5794 H         1 UNK         0.3000 
    175 H175        3.7356  -12.2726  -40.9361 H         1 UNK         0.0600 
    176 H176        6.0161  -13.2867  -41.0568 H         1 UNK         0.0600 
    177 H177        4.9660  -14.2735  -40.0571 H         1 UNK         0.0600 
    178 H178        5.3403  -14.7828  -41.6994 H         1 UNK         0.0600 
    179 H179        5.0279  -13.0250  -43.3707 H         1 UNK         0.3000 
    180 H180        3.2008  -10.7439  -45.4469 H         1 UNK         0.0600 
    181 H181        6.1109  -11.1961  -44.5708 H         1 UNK         0.0600 
    182 H182        5.1957   -9.7248  -44.2761 H         1 UNK         0.0600 
    183 H183        5.5862  -10.1926  -45.9142 H         1 UNK         0.0600 
    184 H184        4.1861  -13.4406  -45.2106 H         1 UNK         0.3000 
    185 H185        4.6120  -10.8066  -47.7826 H         1 UNK         0.0600 
    186 H186        5.1855  -12.2877  -49.6683 H         1 UNK         0.0600 
    187 H187        3.4924  -12.6950  -49.9065 H         1 UNK         0.0600 
    188 H188        4.0511  -11.0450  -50.1710 H         1 UNK         0.0600 
    189 H189        2.5401  -10.0097  -47.6184 H         1 UNK         0.3000 
    190 H190       -1.8324  -20.4004  -46.0851 H         1 UNK         0.3000 
    191 H191       -4.1981  -21.0505  -47.5571 H         1 UNK         0.0600 
    192 H192       -4.1758  -19.4939  -45.6308 H         1 UNK         0.0600 
    193 H193       -5.2794  -20.8226  -45.3180 H         1 UNK         0.0600 
    194 H194       -3.6974  -20.8002  -44.5470 H         1 UNK         0.0600 
    195 H195       -1.8649  -23.1602  -46.2215 H         1 UNK         0.3000 
    196 H196       -3.3345  -25.2261  -45.0873 H         1 UNK         0.0600 
    197 H197       -1.3107  -26.6044  -45.5448 H         1 UNK         0.0600 
    198 H198       -0.8510  -25.0025  -44.9852 H         1 UNK         0.0600 
    199 H199       -0.7326  -25.4082  -46.6975 H         1 UNK         0.0600 
    200 H200       -4.2796  -27.0955  -45.7716 H         1 UNK         0.3000 
    201 H201       -5.5537  -28.4487  -46.9762 H         1 UNK         0.0600 
    202 H202       -3.3531  -29.2341  -47.8416 H         1 UNK         0.0600 
    203 H203       -3.4514  -28.0923  -49.1790 H         1 UNK         0.0600 
    204 H204       -4.6093  -29.4093  -49.0551 H         1 UNK         0.0600 
    205 H205       -6.5037  -25.9043  -46.8797 H         1 UNK         0.3000 
    206 H206       -7.9680  -24.4357  -47.6735 H         1 UNK         0.0600 
    207 H207       -9.3909  -26.4490  -48.0964 H         1 UNK         0.0600 
    208 H208       -9.7044  -25.1801  -49.2696 H         1 UNK         0.0600 
    209 H209       -8.7438  -26.5771  -49.7310 H         1 UNK         0.0600 
    210 H210       -5.5373  -23.8204  -48.3049 H         1 UNK         0.3000 
    211 H211       -4.0698  -22.7908  -49.5704 H         1 UNK         0.0600 
    212 H212       -6.4798  -21.7633  -51.1610 H         1 UNK         0.0600 
    213 H213       -4.8689  -21.0577  -51.1698 H         1 UNK         0.0600 
    214 H214       -5.8239  -21.0345  -49.6974 H         1 UNK         0.0600 
    215 H215       -3.9855  -25.3242  -50.0652 H         1 UNK         0.3000 
    216 H216       -3.5118  -27.0350  -51.3959 H         1 UNK         0.0600 
    217 H217       -1.9819  -26.6134  -53.2837 H         1 UNK         0.0600 
    218 H218       -1.5727  -25.5415  -51.9540 H         1 UNK         0.0600 
    219 H219       -2.4535  -24.9224  -53.3508 H         1 UNK         0.0600 
    220 H220       -6.1163  -26.5725  -51.4563 H         1 UNK         0.3000 
    221 H221       -8.0826  -26.7400  -52.4398 H         1 UNK         0.0600 
    222 H222       -6.6397  -28.1677  -54.7377 H         1 UNK         0.0600 
    223 H223       -7.1916  -28.9288  -53.2461 H         1 UNK         0.0600 
    224 H224       -8.3566  -28.2504  -54.3720 H         1 UNK         0.0600 
    225 H225       -7.2321  -24.3195  -52.5348 H         1 UNK         0.3000 
    226 H226       -7.3228  -22.2859  -53.3717 H         1 UNK         0.0600 
    227 H227       -9.7283  -22.8967  -53.5613 H         1 UNK         0.0600 
    228 H228       -9.2703  -21.7358  -54.7963 H         1 UNK         0.0600 
    229 H229       -9.4791  -23.4294  -55.2234 H         1 UNK         0.0600 
    230 H230       -5.0985  -23.3752  -54.2482 H         1 UNK         0.3000 
    231 H231       -4.7319  -22.2759  -57.0006 H         1 UNK         0.0600 
    232 H232       -3.6667  -24.9948  -56.0854 H         1 UNK         0.0600 
    233 H233       -3.4283  -24.2511  -57.6598 H         1 UNK         0.0600 
    234 H234       -5.0355  -24.7719  -57.1742 H         1 UNK         0.0600 
    235 H235       -3.5201  -22.5703  -53.7428 H         1 UNK         0.3000 
    236 H236       -0.7706  -22.3624  -54.1635 H         1 UNK         0.0600 
    237 H237       -1.7364  -22.9154  -51.9742 H         1 UNK         0.0600 
    238 H238       -0.7279  -21.4942  -51.7980 H         1 UNK         0.0600 
    239 H239       -2.4755  -21.3190  -51.8440 H         1 UNK         0.0600 
    240 H240       -3.1673  -19.7895  -54.2895 H         1 UNK         0.3000 
    241 H241       -1.1158  -17.6765  -54.5470 H         1 UNK         0.0600 
    242 H242       -2.1149  -18.8663  -58.1888 H         1 UNK         0.3800 
    243 H243       -2.1368  -19.9231  -56.8011 H         1 UNK         0.3800 
    244 H244       -3.0633  -16.0995  -54.5766 H         1 UNK         0.0800 
    245 H245       -4.1558  -17.4524  -54.4554 H         1 UNK         0.0800 
    246 H246       -2.4536  -14.7342  -52.4631 H         1 UNK         0.0800 
    247 H247       -1.0577  -15.7185  -52.8371 H         1 UNK         0.0800 
@<TRIPOS>BOND
     1    1    2 1    
     2    1  127 1    
     3    1  128 1    
     4    1  129 1    
     5    2    3 2    
     6    2    4 am   BACKBONE|DICT|INTERRES
     7    4    5 1    
     8    4  130 1    
     9    5    6 1    
    10    5   65 1    
    11    5  131 1    
    12    6    7 1    
    13    6  132 1    
    14    6  133 1    
    15    7    8 1    
    16    8    9 1    
    17    8  134 1    
    18    8  135 1    
    19    9   10 ar   
    20    9   14 ar   
    21   10   11 ar   
    22   10  136 1    
    23   11   12 ar   
    24   11  126 1    
    25   12   13 ar   
    26   12  137 1    
    27   13   14 ar   
    28   13   15 1    
    29   14  138 1    
    30   15   16 1    
    31   15  139 1    
    32   15  140 1    
    33   16   17 1    
    34   17   18 1    
    35   17  141 1    
    36   17  142 1    
    37   18   19 1    
    38   18   67 1    
    39   18  143 1    
    40   19   20 am   BACKBONE|DICT|INTERRES
    41   19  144 1    
    42   20   21 2    
    43   20   22 1    
    44   22   23 1    
    45   22   24 1    
    46   22  145 1    
    47   23  146 1    
    48   23  147 1    
    49   23  148 1    
    50   24   25 am   BACKBONE|DICT|INTERRES
    51   24  149 1    
    52   25   26 2    
    53   25   27 1    
    54   27   28 1    
    55   27   29 1    
    56   27  150 1    
    57   28  151 1    
    58   28  152 1    
    59   28  153 1    
    60   29   30 am   BACKBONE|DICT|INTERRES
    61   29  154 1    
    62   30   31 2    
    63   30   32 1    
    64   32   33 1    
    65   32   34 1    
    66   32  155 1    
    67   33  156 1    
    68   33  157 1    
    69   33  158 1    
    70   34   35 am   BACKBONE|DICT|INTERRES
    71   34  159 1    
    72   35   36 2    
    73   35   37 1    
    74   37   38 1    
    75   37   39 1    
    76   37  160 1    
    77   38  161 1    
    78   38  162 1    
    79   38  163 1    
    80   39   40 am   BACKBONE|DICT|INTERRES
    81   39  164 1    
    82   40   41 2    
    83   40   42 1    
    84   42   43 1    
    85   42   44 1    
    86   42  165 1    
    87   43  166 1    
    88   43  167 1    
    89   43  168 1    
    90   44   45 am   BACKBONE|DICT|INTERRES
    91   44  169 1    
    92   45   46 2    
    93   45   47 1    
    94   47   48 1    
    95   47   49 1    
    96   47  170 1    
    97   48  171 1    
    98   48  172 1    
    99   48  173 1    
   100   49   50 am   BACKBONE|DICT|INTERRES
   101   49  174 1    
   102   50   51 2    
   103   50   52 1    
   104   52   53 1    
   105   52   54 1    
   106   52  175 1    
   107   53  176 1    
   108   53  177 1    
   109   53  178 1    
   110   54   55 am   BACKBONE|DICT|INTERRES
   111   54  179 1    
   112   55   56 2    
   113   55   57 1    
   114   57   58 1    
   115   57   59 1    
   116   57  180 1    
   117   58  181 1    
   118   58  182 1    
   119   58  183 1    
   120   59   60 am   BACKBONE|DICT|INTERRES
   121   59  184 1    
   122   60   61 2    
   123   60   62 1    
   124   62   63 1    
   125   62   64 1    
   126   62  185 1    
   127   63  186 1    
   128   63  187 1    
   129   63  188 1    
   130   64   65 am   BACKBONE|DICT|INTERRES
   131   64  189 1    
   132   65   66 2    
   133   67   68 2    
   134   67   69 am   BACKBONE|DICT|INTERRES
   135   69   70 1    
   136   69  190 1    
   137   70   71 1    
   138   70   72 1    
   139   70  191 1    
   140   71  192 1    
   141   71  193 1    
   142   71  194 1    
   143   72   73 2    
   144   72   74 am   BACKBONE|DICT|INTERRES
   145   74   75 1    
   146   74  195 1    
   147   75   76 1    
   148   75   77 1    
   149   75  196 1    
   150   76  197 1    
   151   76  198 1    
   152   76  199 1    
   153   77   78 2    
   154   77   79 am   BACKBONE|DICT|INTERRES
   155   79   80 1    
   156   79  200 1    
   157   80   81 1    
   158   80   82 1    
   159   80  201 1    
   160   81  202 1    
   161   81  203 1    
   162   81  204 1    
   163   82   83 2    
   164   82   84 am   BACKBONE|DICT|INTERRES
   165   84   85 1    
   166   84  205 1    
   167   85   86 1    
   168   85   87 1    
   169   85  206 1    
   170   86  207 1    
   171   86  208 1    
   172   86  209 1    
   173   87   88 2    
   174   87   89 am   BACKBONE|DICT|INTERRES
   175   89   90 1    
   176   89  210 1    
   177   90   91 1    
   178   90   92 1    
   179   90  211 1    
   180   91  212 1    
   181   91  213 1    
   182   91  214 1    
   183   92   93 2    
   184   92   94 am   BACKBONE|DICT|INTERRES
   185   94   95 1    
   186   94  215 1    
   187   95   96 1    
   188   95   97 1    
   189   95  216 1    
   190   96  217 1    
   191   96  218 1    
   192   96  219 1    
   193   97   98 2    
   194   97   99 am   BACKBONE|DICT|INTERRES
   195   99  100 1    
   196   99  220 1    
   197  100  101 1    
   198  100  102 1    
   199  100  221 1    
   200  101  222 1    
   201  101  223 1    
   202  101  224 1    
   203  102  103 2    
   204  102  104 am   BACKBONE|DICT|INTERRES
   205  104  105 1    
   206  104  225 1    
   207  105  106 1    
   208  105  107 1    
   209  105  226 1    
   210  106  227 1    
   211  106  228 1    
   212  106  229 1    
   213  107  108 2    
   214  107  109 am   BACKBONE|DICT|INTERRES
   215  109  110 1    
   216  109  230 1    
   217  110  111 1    
   218  110  112 1    
   219  110  231 1    
   220  111  232 1    
   221  111  233 1    
   222  111  234 1    
   223  112  113 2    
   224  112  114 am   BACKBONE|DICT|INTERRES
   225  114  115 1    
   226  114  235 1    
   227  115  116 1    
   228  115  117 1    
   229  115  236 1    
   230  116  237 1    
   231  116  238 1    
   232  116  239 1    
   233  117  118 2    
   234  117  119 am   BACKBONE|DICT|INTERRES
   235  119  120 1    
   236  119  240 1    
   237  120  121 1    
   238  120  124 1    
   239  120  241 1    
   240  121  122 am   BACKBONE|DICT|INTERRES
   241  121  123 2    
   242  122  242 1    
   243  122  243 1    
   244  124  125 1    
   245  124  244 1    
   246  124  245 1    
   247  125  126 1    
   248  126  246 1    
   249  126  247 1    
@<TRIPOS>SUBSTRUCTURE
     1 UNK         1 GROUP             0       ****    0 ROOT    
