@<TRIPOS>MOLECULE
3R540
247   249    1
SMALL
USER_CHARGES


@<TRIPOS>ATOM
      1 CA         -6.4350  -19.8935  -45.4687 C.3       0 UNK        -0.1800 
      2 C          -5.2102  -19.0923  -45.0519 C.2       0 UNK         0.5000 
      3 O          -4.8592  -19.0865  -43.8728 O.2       0 UNK        -0.5000 
      4 N          -4.5783  -18.4133  -46.0179 N.am      1 UNK        -0.5000 
      5 CA         -3.4544  -17.4841  -45.8546 C.3       1 UNK         0.1400 
      6 C6         -2.1751  -18.1091  -45.2424 C.3       23 UNK        -0.0398 
      7 S7         -1.4108  -19.3271  -46.3602 S.3       23 UNK        -0.2404 
      8 C8         -0.0138  -18.3435  -46.9863 C.3       23 UNK        -0.0205 
      9 C9          0.5876  -18.9564  -48.2382 C.ar      23 UNK        -0.0193 
     10 C10        -0.0278  -18.7575  -49.4741 C.ar      23 UNK        -0.1150 
     11 C11         0.4955  -19.3412  -50.6305 C.ar      23 UNK        -0.0193 
     12 C12         1.6459  -20.1281  -50.5426 C.ar      23 UNK        -0.1150 
     13 C13         2.2788  -20.3345  -49.3133 C.ar      23 UNK        -0.0193 
     14 C14         1.7517  -19.7233  -48.1671 C.ar      23 UNK        -0.1150 
     15 C15         3.5240  -21.2212  -49.2751 C.3       23 UNK        -0.0205 
     16 S16         3.8684  -22.0277  -47.6747 S.3       23 UNK        -0.2404 
     17 C17         2.2752  -22.8495  -47.3183 C.3       23 UNK        -0.0398 
     18 CA          2.4316  -24.0573  -46.3696 C.3       11 UNK         0.1400 
     19 N           3.1119  -23.6901  -45.1241 N.am      11 UNK        -0.5000 
     20 C           3.8284  -24.5472  -44.3868 C.2       10 UNK         0.5000 
     21 O           3.8640  -25.7621  -44.5858 O.2       10 UNK        -0.5000 
     22 CA          4.6701  -23.9398  -43.2548 C.3       10 UNK         0.1400 
     23 CB          5.8690  -23.1613  -43.8217 C.3       10 UNK        -0.1800 
     24 N           3.8682  -23.0501  -42.4218 N.am      10 UNK        -0.5000 
     25 C           3.2083  -23.4372  -41.3225 C.2       9 UNK         0.5000 
     26 O           3.2336  -24.5852  -40.8767 O.2       9 UNK        -0.5000 
     27 CA          2.3851  -22.3635  -40.5846 C.3       9 UNK         0.1400 
     28 CB          3.1866  -21.7883  -39.4068 C.3       9 UNK        -0.1800 
     29 N           1.9528  -21.2604  -41.4432 N.am      9 UNK        -0.5000 
     30 C           1.0624  -21.3722  -42.4371 C.2       8 UNK         0.5000 
     31 O           0.5171  -22.4265  -42.7584 O.2       8 UNK        -0.5000 
     32 CA          0.7571  -20.0909  -43.2278 C.3       8 UNK         0.1400 
     33 CB         -0.3002  -19.2678  -42.4803 C.3       8 UNK        -0.1800 
     34 N           1.9332  -19.2542  -43.4838 N.am      8 UNK        -0.5000 
     35 C           3.0452  -19.6472  -44.1243 C.2       7 UNK         0.5000 
     36 O           3.2380  -20.8075  -44.4926 O.2       7 UNK        -0.5000 
     37 CA          4.1259  -18.5824  -44.3964 C.3       7 UNK         0.1400 
     38 CB          4.2742  -18.3279  -45.9043 C.3       7 UNK        -0.1800 
     39 N           3.8440  -17.3059  -43.7360 N.am      7 UNK        -0.5000 
     40 C           4.2916  -16.9618  -42.5199 C.2       6 UNK         0.5000 
     41 O           4.9960  -17.6923  -41.8225 O.2       6 UNK        -0.5000 
     42 CA          3.8808  -15.5747  -41.9811 C.3       6 UNK         0.1400 
     43 CB          4.9763  -14.5392  -42.2770 C.3       6 UNK        -0.1800 
     44 N           2.6094  -15.0878  -42.5209 N.am      6 UNK        -0.5000 
     45 C           1.4172  -15.6525  -42.2882 C.2       5 UNK         0.5000 
     46 O           1.2619  -16.6120  -41.5345 O.2       5 UNK        -0.5000 
     47 CA          0.1999  -15.0854  -43.0468 C.3       5 UNK         0.1400 
     48 CB         -0.6103  -14.1482  -42.1394 C.3       5 UNK        -0.1800 
     49 N           0.5080  -14.3834  -44.2976 N.am      5 UNK        -0.5000 
     50 C           1.1554  -14.8913  -45.3573 C.2       4 UNK         0.5000 
     51 O           1.6992  -15.9964  -45.3542 O.2       4 UNK        -0.5000 
     52 CA          1.2031  -13.9947  -46.6156 C.3       4 UNK         0.1400 
     53 CB          1.5948  -14.7659  -47.8946 C.3       4 UNK        -0.1800 
     54 N          -0.0365  -13.2270  -46.8166 N.am      4 UNK        -0.5000 
     55 C          -1.2621  -13.7336  -47.0146 C.2       3 UNK         0.5000 
     56 O          -1.5043  -14.9394  -47.1203 O.2       3 UNK        -0.5000 
     57 CA         -2.4185  -12.7240  -47.1002 C.3       3 UNK         0.1400 
     58 CB         -2.5557  -12.1685  -48.5254 C.3       3 UNK        -0.1800 
     59 N          -3.6331  -13.4449  -46.7449 N.am      3 UNK        -0.5000 
     60 C          -4.4830  -13.1337  -45.7603 C.2       2 UNK         0.5000 
     61 O          -4.4999  -12.0463  -45.1831 O.2       2 UNK        -0.5000 
     62 CA         -5.4539  -14.2512  -45.3194 C.3       2 UNK         0.1400 
     63 CB         -6.8527  -14.0345  -45.9168 C.3       2 UNK        -0.1800 
     64 N          -4.9738  -15.5860  -45.6909 N.am      2 UNK        -0.5000 
     65 C          -3.9184  -16.2013  -45.1365 C.2       1 UNK         0.5000 
     66 O          -3.3271  -15.7815  -44.1402 O.2       1 UNK        -0.5000 
     67 C           1.0611  -24.7143  -46.1204 C.2       11 UNK         0.5000 
     68 O           0.6851  -25.6165  -46.8691 O.2       11 UNK        -0.5000 
     69 N           0.3373  -24.2414  -45.0928 N.am      12 UNK        -0.5000 
     70 CA         -0.9991  -24.6771  -44.6627 C.3       12 UNK         0.1400 
     71 CB         -0.9501  -26.1283  -44.1405 C.3       12 UNK        -0.1800 
     72 C          -2.1301  -24.4631  -45.6971 C.2       12 UNK         0.5000 
     73 O          -3.2176  -25.0152  -45.5201 O.2       12 UNK        -0.5000 
     74 N          -1.8839  -23.6626  -46.7415 N.am      13 UNK        -0.5000 
     75 CA         -2.8057  -23.3854  -47.8392 C.3       13 UNK         0.1400 
     76 CB         -2.8837  -24.6153  -48.7691 C.3       13 UNK        -0.1800 
     77 C          -2.2887  -22.1627  -48.6178 C.2       13 UNK         0.5000 
     78 O          -1.0765  -22.0841  -48.8153 O.2       13 UNK        -0.5000 
     79 N          -3.1414  -21.2403  -49.0885 N.am      14 UNK        -0.5000 
     80 CA         -4.5896  -21.1237  -48.9074 C.3       14 UNK         0.1400 
     81 CB         -5.3391  -22.2434  -49.6592 C.3       14 UNK        -0.1800 
     82 C          -5.0623  -19.7420  -49.3951 C.2       14 UNK         0.5000 
     83 O          -4.2863  -18.9959  -49.9978 O.2       14 UNK        -0.5000 
     84 N          -6.3441  -19.4420  -49.1301 N.am      15 UNK        -0.5000 
     85 CA         -7.0982  -18.2647  -49.5812 C.3       15 UNK         0.1400 
     86 CB         -7.3670  -18.3777  -51.0994 C.3       15 UNK        -0.1800 
     87 C          -6.4357  -16.9315  -49.1700 C.2       15 UNK         0.5000 
     88 O          -5.8073  -16.8640  -48.1123 O.2       15 UNK        -0.5000 
     89 N          -6.5458  -15.9034  -50.0181 N.am      16 UNK        -0.5000 
     90 CA         -5.8059  -14.6446  -49.9141 C.3       16 UNK         0.1400 
     91 CB         -6.7196  -13.4870  -50.3529 C.3       16 UNK        -0.1800 
     92 C          -4.5020  -14.7279  -50.7333 C.2       16 UNK         0.5000 
     93 O          -4.1869  -13.8092  -51.4905 O.2       16 UNK        -0.5000 
     94 N          -3.7883  -15.8538  -50.5832 N.am      17 UNK        -0.5000 
     95 CA         -2.5660  -16.2358  -51.2927 C.3       17 UNK         0.1400 
     96 CB         -1.3834  -15.3283  -50.8942 C.3       17 UNK        -0.1800 
     97 C          -2.7628  -16.3653  -52.8178 C.2       17 UNK         0.5000 
     98 O          -1.8783  -16.0002  -53.5946 O.2       17 UNK        -0.5000 
     99 N          -3.9247  -16.8976  -53.2182 N.am      18 UNK        -0.5000 
    100 CA        -4.2515  -17.2289  -54.6011 C.3       18 UNK         0.1400 
    101 CB        -5.7795  -17.3091  -54.7533 C.3       18 UNK        -0.1800 
    102 C         -3.5881  -18.5657  -54.9615 C.2       18 UNK         0.5000 
    103 O         -3.9775  -19.5941  -54.4076 O.2       18 UNK        -0.5000 
    104 N         -2.6009  -18.5369  -55.8668 N.am      19 UNK        -0.5000 
    105 CA        -1.7427  -19.6746  -56.2251 C.3       19 UNK         0.1400 
    106 CB        -0.7448  -19.2323  -57.3052 C.3       19 UNK        -0.1800 
    107 C         -2.4932  -20.9453  -56.6735 C.2       19 UNK         0.5000 
    108 O         -2.0285  -22.0533  -56.4010 O.2       19 UNK        -0.5000 
    109 N         -3.6595  -20.7608  -57.3072 N.am      20 UNK        -0.5000 
    110 CA        -4.5774  -21.8286  -57.7064 C.3       20 UNK         0.1400 
    111 CB        -5.6773  -21.2323  -58.5981 C.3       20 UNK        -0.1800 
    112 C         -5.2007  -22.5862  -56.5156 C.2       20 UNK         0.5000 
    113 O         -5.5292  -23.7642  -56.6623 O.2       20 UNK        -0.5000 
    114 N         -5.3452  -21.9125  -55.3658 N.am      21 UNK        -0.5000 
    115 CA        -5.7779  -22.5152  -54.1073 C.3       21 UNK         0.1400 
    116 CB        -6.5051  -21.4659  -53.2485 C.3       21 UNK        -0.1800 
    117 C         -4.5804  -23.1088  -53.3476 C.2       21 UNK         0.5000 
    118 O         -4.7074  -24.1975  -52.7861 O.2       21 UNK        -0.5000 
    119 N         -3.4503  -22.3858  -53.3367 N.am      22 UNK        -0.5000 
    120 CA        -2.2008  -22.7942  -52.6699 C.3       22 UNK         0.1400 
    121 C         -1.5782  -24.0950  -53.2500 C.2       22 UNK         0.5000 
    122 N         -1.5743  -24.2773  -54.5655 N.am      22 UNK        -0.7600 
    123 O         -1.0941  -24.9406  -52.5034 O.2       22 UNK        -0.5000 
    124 C124       -1.1269  -21.6760  -52.6560 C.3       23 UNK        -0.0398 
    125 S125       -1.7399  -20.0620  -52.0774 S.3       23 UNK        -0.2404 
    126 C126       -0.1875  -19.1240  -51.9693 C.3       23 UNK        -0.0205 
    127 H127       -6.8896  -19.4862  -46.3710 H         1 UNK         0.0600 
    128 H128       -7.1872  -19.8712  -44.6799 H         1 UNK         0.0600 
    129 H129       -6.1625  -20.9329  -45.6507 H         1 UNK         0.0600 
    130 H130       -4.9918  -18.3843  -46.9417 H         1 UNK         0.3000 
    131 H131       -3.1938  -17.1603  -46.8641 H         1 UNK         0.0600 
    132 H132       -1.4366  -17.3358  -45.0249 H         1 UNK         0.0800 
    133 H133       -2.3960  -18.5915  -44.2921 H         1 UNK         0.0800 
    134 H134       -0.3503  -17.3312  -47.2092 H         1 UNK         0.0800 
    135 H135        0.7392  -18.2588  -46.2024 H         1 UNK         0.0800 
    136 H136       -0.9286  -18.1660  -49.5241 H         1 UNK         0.1150 
    137 H137        2.0463  -20.5887  -51.4348 H         1 UNK         0.1150 
    138 H138        2.2254  -19.8641  -47.2077 H         1 UNK         0.1150 
    139 H139        3.4408  -22.0030  -50.0318 H         1 UNK         0.0800 
    140 H140        4.3880  -20.6153  -49.5497 H         1 UNK         0.0800 
    141 H141        1.5966  -22.1167  -46.8793 H         1 UNK         0.0800 
    142 H142        1.8226  -23.1616  -48.2618 H         1 UNK         0.0800 
    143 H143        3.0486  -24.7949  -46.8883 H         1 UNK         0.0600 
    144 H144        3.1588  -22.6966  -44.9135 H         1 UNK         0.3000 
    145 H145        5.0649  -24.7593  -42.6501 H         1 UNK         0.0600 
    146 H146        6.5006  -22.7756  -43.0213 H         1 UNK         0.0600 
    147 H147        5.5548  -22.3161  -44.4355 H         1 UNK         0.0600 
    148 H148        6.4910  -23.8047  -44.4453 H         1 UNK         0.0600 
    149 H149        3.7456  -22.1035  -42.7563 H         1 UNK         0.3000 
    150 H150        1.4927  -22.8512  -40.1866 H         1 UNK         0.0600 
    151 H151        3.5055  -22.5796  -38.7270 H         1 UNK         0.0600 
    152 H152        2.5876  -21.0859  -38.8268 H         1 UNK         0.0600 
    153 H153        4.0823  -21.2665  -39.7466 H         1 UNK         0.0600 
    154 H154        2.3596  -20.3542  -41.2624 H         1 UNK         0.3000 
    155 H155        0.3517  -20.3855  -44.1971 H         1 UNK         0.0600 
    156 H156        0.0112  -19.0418  -41.4597 H         1 UNK         0.0600 
    157 H157       -1.2456  -19.8085  -42.4216 H         1 UNK         0.0600 
    158 H158       -0.4910  -18.3201  -42.9791 H         1 UNK         0.0600 
    159 H159        1.8764  -18.2930  -43.1781 H         1 UNK         0.3000 
    160 H160        5.0728  -18.9868  -44.0329 H         1 UNK         0.0600 
    161 H161        3.3607  -17.9193  -46.3370 H         1 UNK         0.0600 
    162 H162        4.5106  -19.2494  -46.4375 H         1 UNK         0.0600 
    163 H163        5.0810  -17.6234  -46.1059 H         1 UNK         0.0600 
    164 H164        3.2322  -16.6705  -44.2400 H         1 UNK         0.3000 
    165 H165        3.7759  -15.6615  -40.8976 H         1 UNK         0.0600 
    166 H166        4.7368  -13.5728  -41.8330 H         1 UNK         0.0600 
    167 H167        5.9352  -14.8561  -41.8644 H         1 UNK         0.0600 
    168 H168        5.1126  -14.3931  -43.3493 H         1 UNK         0.0600 
    169 H169        2.6523  -14.3050  -43.1563 H         1 UNK         0.3000 
    170 H170       -0.4365  -15.9327  -43.3056 H         1 UNK         0.0600 
    171 H171       -0.8837  -14.6450  -41.2075 H         1 UNK         0.0600 
    172 H172       -0.0466  -13.2509  -41.8815 H         1 UNK         0.0600 
    173 H173       -1.5378  -13.8385  -42.6221 H         1 UNK         0.0600 
    174 H174        0.1100  -13.4611  -44.3925 H         1 UNK         0.3000 
    175 H175        1.9891  -13.2623  -46.4270 H         1 UNK         0.0600 
    176 H176        0.8758  -15.5464  -48.1408 H         1 UNK         0.0600 
    177 H177        1.6634  -14.0962  -48.7516 H         1 UNK         0.0600 
    178 H178        2.5672  -15.2464  -47.7805 H         1 UNK         0.0600 
    179 H179        0.0632  -12.2228  -46.7573 H         1 UNK         0.3000 
    180 H180       -2.2331  -11.9069  -46.4000 H         1 UNK         0.0600 
    181 H181       -3.4335  -11.5287  -48.6178 H         1 UNK         0.0600 
    182 H182       -2.6439  -12.9671  -49.2614 H         1 UNK         0.0600 
    183 H183       -1.6852  -11.5703  -48.7965 H         1 UNK         0.0600 
    184 H184       -3.6423  -14.3991  -47.0786 H         1 UNK         0.3000 
    185 H185       -5.5356  -14.2063  -44.2314 H         1 UNK         0.0600 
    186 H186       -7.5545  -14.7865  -45.5557 H         1 UNK         0.0600 
    187 H187       -7.2500  -13.0584  -45.6356 H         1 UNK         0.0600 
    188 H188       -6.8434  -14.0832  -47.0051 H         1 UNK         0.0600 
    189 H189       -5.4052  -16.0180  -46.5053 H         1 UNK         0.3000 
    190 H190        0.7419  -23.5169  -44.5092 H         1 UNK         0.3000 
    191 H191       -1.2623  -24.0417  -43.8170 H         1 UNK         0.0600 
    192 H192       -1.8916  -26.4082  -43.6667 H         1 UNK         0.0600 
    193 H193       -0.1654  -26.2510  -43.3938 H         1 UNK         0.0600 
    194 H194       -0.7647  -26.8420  -44.9435 H         1 UNK         0.0600 
    195 H195       -0.9810  -23.2162  -46.8313 H         1 UNK         0.3000 
    196 H196       -3.7851  -23.1767  -47.4101 H         1 UNK         0.0600 
    197 H197       -3.4417  -24.4015  -49.6806 H         1 UNK         0.0600 
    198 H198       -1.8893  -24.9425  -49.0761 H         1 UNK         0.0600 
    199 H199       -3.3741  -25.4558  -48.2784 H         1 UNK         0.0600 
    200 H200       -2.7584  -20.4629  -49.6145 H         1 UNK         0.3000 
    201 H201       -4.8177  -21.1744  -47.8418 H         1 UNK         0.0600 
    202 H202       -5.3131  -23.1886  -49.1218 H         1 UNK         0.0600 
    203 H203       -4.9111  -22.4029  -50.6463 H         1 UNK         0.0600 
    204 H204       -6.3956  -22.0145  -49.8010 H         1 UNK         0.0600 
    205 H205       -6.8913  -20.1172  -48.6160 H         1 UNK         0.3000 
    206 H206       -8.0592  -18.2962  -49.0663 H         1 UNK         0.0600 
    207 H207       -7.8126  -19.3420  -51.3443 H         1 UNK         0.0600 
    208 H208       -8.0644  -17.6142  -51.4455 H         1 UNK         0.0600 
    209 H209       -6.4489  -18.2854  -51.6803 H         1 UNK         0.0600 
    210 H210       -7.0702  -16.0389  -50.8704 H         1 UNK         0.3000 
    211 H211       -5.5128  -14.4613  -48.8795 H         1 UNK         0.0600 
    212 H212       -7.0201  -13.5838  -51.3969 H         1 UNK         0.0600 
    213 H213       -6.2154  -12.5262  -50.2413 H         1 UNK         0.0600 
    214 H214       -7.6239  -13.4489  -49.7452 H         1 UNK         0.0600 
    215 H215       -4.1523  -16.5640  -49.9599 H         1 UNK         0.3000 
    216 H216       -2.3415  -17.2428  -50.9469 H         1 UNK         0.0600 
    217 H217       -1.2496  -15.3112  -49.8131 H         1 UNK         0.0600 
    218 H218       -1.5266  -14.3021  -51.2326 H         1 UNK         0.0600 
    219 H219       -0.4488  -15.6872  -51.3261 H         1 UNK         0.0600 
    220 H220       -4.5594  -17.2374  -52.5115 H         1 UNK         0.3000 
    221 H221       -3.8812  -16.4432  -55.2630 H         1 UNK         0.0600 
    222 H222       -6.0553  -17.5335  -55.7843 H         1 UNK         0.0600 
    223 H223       -6.2128  -18.0871  -54.1236 H         1 UNK         0.0600 
    224 H224       -6.2518  -16.3630  -54.4886 H         1 UNK         0.0600 
    225 H225       -2.3407  -17.6457  -56.2641 H         1 UNK         0.3000 
    226 H226       -1.1754  -19.9359  -55.3308 H         1 UNK         0.0600 
    227 H227       -0.1237  -18.4075  -56.9552 H         1 UNK         0.0600 
    228 H228       -0.0741  -20.0488  -57.5765 H         1 UNK         0.0600 
    229 H229       -1.2535  -18.9090  -58.2142 H         1 UNK         0.0600 
    230 H230       -3.9624  -19.8136  -57.4793 H         1 UNK         0.3000 
    231 H231       -4.0125  -22.5529  -58.2969 H         1 UNK         0.0600 
    232 H232       -6.3668  -22.0061  -58.9381 H         1 UNK         0.0600 
    233 H233       -5.2544  -20.7627  -59.4864 H         1 UNK         0.0600 
    234 H234       -6.2629  -20.4813  -58.0661 H         1 UNK         0.0600 
    235 H235       -4.9883  -20.9644  -55.2997 H         1 UNK         0.3000 
    236 H236       -6.4844  -23.3215  -54.3156 H         1 UNK         0.0600 
    237 H237       -5.8361  -20.6721  -52.9147 H         1 UNK         0.0600 
    238 H238       -7.3250  -21.0035  -53.7980 H         1 UNK         0.0600 
    239 H239       -6.9309  -21.9258  -52.3564 H         1 UNK         0.0600 
    240 H240       -3.4531  -21.4676  -53.7672 H         1 UNK         0.3000 
    241 H241       -2.4607  -23.0036  -51.6308 H         1 UNK         0.0600 
    242 H242       -1.1759  -25.1194  -54.9484 H         1 UNK         0.3800 
    243 H243       -1.9062  -23.5490  -55.1924 H         1 UNK         0.3800 
    244 H244       -0.7068  -21.5382  -53.6531 H         1 UNK         0.0800 
    245 H245       -0.2976  -21.9719  -52.0106 H         1 UNK         0.0800 
    246 H246        0.4692  -19.3993  -52.7958 H         1 UNK         0.0800 
    247 H247       -0.3941  -18.0628  -52.0971 H         1 UNK         0.0800 
@<TRIPOS>BOND
     1    1    2 1    
     2    1  127 1    
     3    1  128 1    
     4    1  129 1    
     5    2    3 2    
     6    2    4 am   BACKBONE|DICT|INTERRES
     7    4    5 1    
     8    4  130 1    
     9    5    6 1    
    10    5   65 1    
    11    5  131 1    
    12    6    7 1    
    13    6  132 1    
    14    6  133 1    
    15    7    8 1    
    16    8    9 1    
    17    8  134 1    
    18    8  135 1    
    19    9   10 ar   
    20    9   14 ar   
    21   10   11 ar   
    22   10  136 1    
    23   11   12 ar   
    24   11  126 1    
    25   12   13 ar   
    26   12  137 1    
    27   13   14 ar   
    28   13   15 1    
    29   14  138 1    
    30   15   16 1    
    31   15  139 1    
    32   15  140 1    
    33   16   17 1    
    34   17   18 1    
    35   17  141 1    
    36   17  142 1    
    37   18   19 1    
    38   18   67 1    
    39   18  143 1    
    40   19   20 am   BACKBONE|DICT|INTERRES
    41   19  144 1    
    42   20   21 2    
    43   20   22 1    
    44   22   23 1    
    45   22   24 1    
    46   22  145 1    
    47   23  146 1    
    48   23  147 1    
    49   23  148 1    
    50   24   25 am   BACKBONE|DICT|INTERRES
    51   24  149 1    
    52   25   26 2    
    53   25   27 1    
    54   27   28 1    
    55   27   29 1    
    56   27  150 1    
    57   28  151 1    
    58   28  152 1    
    59   28  153 1    
    60   29   30 am   BACKBONE|DICT|INTERRES
    61   29  154 1    
    62   30   31 2    
    63   30   32 1    
    64   32   33 1    
    65   32   34 1    
    66   32  155 1    
    67   33  156 1    
    68   33  157 1    
    69   33  158 1    
    70   34   35 am   BACKBONE|DICT|INTERRES
    71   34  159 1    
    72   35   36 2    
    73   35   37 1    
    74   37   38 1    
    75   37   39 1    
    76   37  160 1    
    77   38  161 1    
    78   38  162 1    
    79   38  163 1    
    80   39   40 am   BACKBONE|DICT|INTERRES
    81   39  164 1    
    82   40   41 2    
    83   40   42 1    
    84   42   43 1    
    85   42   44 1    
    86   42  165 1    
    87   43  166 1    
    88   43  167 1    
    89   43  168 1    
    90   44   45 am   BACKBONE|DICT|INTERRES
    91   44  169 1    
    92   45   46 2    
    93   45   47 1    
    94   47   48 1    
    95   47   49 1    
    96   47  170 1    
    97   48  171 1    
    98   48  172 1    
    99   48  173 1    
   100   49   50 am   BACKBONE|DICT|INTERRES
   101   49  174 1    
   102   50   51 2    
   103   50   52 1    
   104   52   53 1    
   105   52   54 1    
   106   52  175 1    
   107   53  176 1    
   108   53  177 1    
   109   53  178 1    
   110   54   55 am   BACKBONE|DICT|INTERRES
   111   54  179 1    
   112   55   56 2    
   113   55   57 1    
   114   57   58 1    
   115   57   59 1    
   116   57  180 1    
   117   58  181 1    
   118   58  182 1    
   119   58  183 1    
   120   59   60 am   BACKBONE|DICT|INTERRES
   121   59  184 1    
   122   60   61 2    
   123   60   62 1    
   124   62   63 1    
   125   62   64 1    
   126   62  185 1    
   127   63  186 1    
   128   63  187 1    
   129   63  188 1    
   130   64   65 am   BACKBONE|DICT|INTERRES
   131   64  189 1    
   132   65   66 2    
   133   67   68 2    
   134   67   69 am   BACKBONE|DICT|INTERRES
   135   69   70 1    
   136   69  190 1    
   137   70   71 1    
   138   70   72 1    
   139   70  191 1    
   140   71  192 1    
   141   71  193 1    
   142   71  194 1    
   143   72   73 2    
   144   72   74 am   BACKBONE|DICT|INTERRES
   145   74   75 1    
   146   74  195 1    
   147   75   76 1    
   148   75   77 1    
   149   75  196 1    
   150   76  197 1    
   151   76  198 1    
   152   76  199 1    
   153   77   78 2    
   154   77   79 am   BACKBONE|DICT|INTERRES
   155   79   80 1    
   156   79  200 1    
   157   80   81 1    
   158   80   82 1    
   159   80  201 1    
   160   81  202 1    
   161   81  203 1    
   162   81  204 1    
   163   82   83 2    
   164   82   84 am   BACKBONE|DICT|INTERRES
   165   84   85 1    
   166   84  205 1    
   167   85   86 1    
   168   85   87 1    
   169   85  206 1    
   170   86  207 1    
   171   86  208 1    
   172   86  209 1    
   173   87   88 2    
   174   87   89 am   BACKBONE|DICT|INTERRES
   175   89   90 1    
   176   89  210 1    
   177   90   91 1    
   178   90   92 1    
   179   90  211 1    
   180   91  212 1    
   181   91  213 1    
   182   91  214 1    
   183   92   93 2    
   184   92   94 am   BACKBONE|DICT|INTERRES
   185   94   95 1    
   186   94  215 1    
   187   95   96 1    
   188   95   97 1    
   189   95  216 1    
   190   96  217 1    
   191   96  218 1    
   192   96  219 1    
   193   97   98 2    
   194   97   99 am   BACKBONE|DICT|INTERRES
   195   99  100 1    
   196   99  220 1    
   197  100  101 1    
   198  100  102 1    
   199  100  221 1    
   200  101  222 1    
   201  101  223 1    
   202  101  224 1    
   203  102  103 2    
   204  102  104 am   BACKBONE|DICT|INTERRES
   205  104  105 1    
   206  104  225 1    
   207  105  106 1    
   208  105  107 1    
   209  105  226 1    
   210  106  227 1    
   211  106  228 1    
   212  106  229 1    
   213  107  108 2    
   214  107  109 am   BACKBONE|DICT|INTERRES
   215  109  110 1    
   216  109  230 1    
   217  110  111 1    
   218  110  112 1    
   219  110  231 1    
   220  111  232 1    
   221  111  233 1    
   222  111  234 1    
   223  112  113 2    
   224  112  114 am   BACKBONE|DICT|INTERRES
   225  114  115 1    
   226  114  235 1    
   227  115  116 1    
   228  115  117 1    
   229  115  236 1    
   230  116  237 1    
   231  116  238 1    
   232  116  239 1    
   233  117  118 2    
   234  117  119 am   BACKBONE|DICT|INTERRES
   235  119  120 1    
   236  119  240 1    
   237  120  121 1    
   238  120  124 1    
   239  120  241 1    
   240  121  122 am   BACKBONE|DICT|INTERRES
   241  121  123 2    
   242  122  242 1    
   243  122  243 1    
   244  124  125 1    
   245  124  244 1    
   246  124  245 1    
   247  125  126 1    
   248  126  246 1    
   249  126  247 1    
@<TRIPOS>SUBSTRUCTURE
     1 UNK         1 GROUP             0       ****    0 ROOT    
