@<TRIPOS>MOLECULE
3R540
247   249    1
SMALL
USER_CHARGES


@<TRIPOS>ATOM
      1 CA          7.2561  -14.6796  -47.5428 C.3       0 UNK        -0.1800 
      2 C           5.7935  -14.5988  -47.9560 C.2       0 UNK         0.5000 
      3 O           5.4702  -13.8630  -48.8869 O.2       0 UNK        -0.5000 
      4 N           4.9268  -15.3355  -47.2456 N.am      1 UNK        -0.5000 
      5 CA          3.4697  -15.5103  -47.3885 C.3       1 UNK         0.1400 
      6 C6          3.0295  -16.3806  -48.5955 C.3       23 UNK        -0.0398 
      7 S7          3.0889  -15.5977  -50.2503 S.3       23 UNK        -0.2404 
      8 C8          1.3195  -15.2943  -50.6066 C.3       23 UNK        -0.0205 
      9 C9          0.4361  -16.5413  -50.5707 C.ar      23 UNK        -0.0193 
     10 C10        -0.8937  -16.4293  -50.1540 C.ar      23 UNK        -0.1150 
     11 C11        -1.7229  -17.5566  -50.0743 C.ar      23 UNK        -0.0193 
     12 C12        -1.1890  -18.8120  -50.3813 C.ar      23 UNK        -0.1150 
     13 C13         0.1420  -18.9418  -50.7868 C.ar      23 UNK        -0.0193 
     14 C14         0.9326  -17.8006  -50.9210 C.ar      23 UNK        -0.1150 
     15 C15         0.7524  -20.3165  -51.0183 C.3       23 UNK        -0.0205 
     16 S16         2.1548  -20.6527  -49.8924 S.3       23 UNK        -0.2404 
     17 C17         1.4297  -20.3588  -48.2374 C.3       23 UNK        -0.0398 
     18 CA          0.9572  -21.6475  -47.5272 C.3       11 UNK         0.1400 
     19 N           0.6575  -21.4091  -46.1140 N.am      11 UNK        -0.5000 
     20 C           0.3769  -22.3689  -45.2210 C.2       10 UNK         0.5000 
     21 O           0.4057  -23.5727  -45.4760 O.2       10 UNK        -0.5000 
     22 CA         -0.0611  -21.9059  -43.8209 C.3       10 UNK         0.1400 
     23 CB          1.1578  -21.5346  -42.9640 C.3       10 UNK        -0.1800 
     24 N          -1.0006  -20.7838  -43.8686 N.am      10 UNK        -0.5000 
     25 C          -2.2200  -20.8426  -44.4244 C.2       9 UNK         0.5000 
     26 O          -2.6975  -21.8668  -44.9108 O.2       9 UNK        -0.5000 
     27 CA         -3.0290  -19.5350  -44.4881 C.3       9 UNK         0.1400 
     28 CB         -3.7192  -19.2572  -43.1449 C.3       9 UNK        -0.1800 
     29 N          -2.2218  -18.3788  -44.8793 N.am      9 UNK        -0.5000 
     30 C          -1.5879  -18.2542  -46.0545 C.2       8 UNK         0.5000 
     31 O          -1.6270  -19.1037  -46.9440 O.2       8 UNK        -0.5000 
     32 CA         -0.7151  -16.9986  -46.2401 C.3       8 UNK         0.1400 
     33 CB         -1.5766  -15.7498  -46.4874 C.3       8 UNK        -0.1800 
     34 N           0.1584  -16.7700  -45.0893 N.am      8 UNK        -0.5000 
     35 C           1.1119  -17.6166  -44.6765 C.2       7 UNK         0.5000 
     36 O           1.4188  -18.6491  -45.2737 O.2       7 UNK        -0.5000 
     37 CA          1.7963  -17.2807  -43.3406 C.3       7 UNK         0.1400 
     38 CB          2.9344  -16.2656  -43.5323 C.3       7 UNK        -0.1800 
     39 N           0.8375  -16.7750  -42.3566 N.am      7 UNK        -0.5000 
     40 C          -0.0870  -17.5347  -41.7502 C.2       6 UNK         0.5000 
     41 O          -0.2064  -18.7437  -41.9418 O.2       6 UNK        -0.5000 
     42 CA         -1.0645  -16.8243  -40.7955 C.3       6 UNK         0.1400 
     43 CB         -0.4536  -16.7022  -39.3917 C.3       6 UNK        -0.1800 
     44 N          -1.4552  -15.4972  -41.2685 N.am      6 UNK        -0.5000 
     45 C          -2.1711  -15.2628  -42.3775 C.2       5 UNK         0.5000 
     46 O          -2.6343  -16.1508  -43.0912 O.2       5 UNK        -0.5000 
     47 CA         -2.3502  -13.7875  -42.7854 C.3       5 UNK         0.1400 
     48 CB         -3.6331  -13.2094  -42.1704 C.3       5 UNK        -0.1800 
     49 N          -1.2085  -12.9445  -42.4137 N.am      5 UNK        -0.5000 
     50 C           0.0369  -13.1164  -42.8747 C.2       4 UNK         0.5000 
     51 O           0.3546  -14.0037  -43.6690 O.2       4 UNK        -0.5000 
     52 CA          1.1171  -12.2028  -42.2891 C.3       4 UNK         0.1400 
     53 CB          1.6808  -12.8144  -40.9918 C.3       4 UNK        -0.1800 
     54 N           2.1822  -12.0355  -43.2717 N.am      4 UNK        -0.5000 
     55 C           3.1030  -11.0643  -43.2489 C.2       3 UNK         0.5000 
     56 O           3.1577  -10.1978  -42.3748 O.2       3 UNK        -0.5000 
     57 CA          4.1433  -11.0456  -44.3858 C.3       3 UNK         0.1400 
     58 CB          5.4070  -11.8127  -43.9655 C.3       3 UNK        -0.1800 
     59 N           3.6616  -11.5976  -45.6519 N.am      3 UNK        -0.5000 
     60 C           2.6856  -11.0843  -46.4145 C.2       2 UNK         0.5000 
     61 O           2.0506  -10.0712  -46.1194 O.2       2 UNK        -0.5000 
     62 CA          2.3783  -11.8122  -47.7397 C.3       2 UNK         0.1400 
     63 CB          2.8180  -10.9623  -48.9418 C.3       2 UNK        -0.1800 
     64 N           3.0244  -13.1220  -47.8379 N.am      2 UNK        -0.5000 
     65 C           2.6185  -14.2328  -47.2167 C.2       1 UNK         0.5000 
     66 O           1.6271  -14.2667  -46.4937 O.2       1 UNK        -0.5000 
     67 C          -0.2361  -22.3018  -48.2520 C.2       11 UNK         0.5000 
     68 O          -0.0471  -23.3107  -48.9301 O.2       11 UNK        -0.5000 
     69 N          -1.4436  -21.7476  -48.0690 N.am      12 UNK        -0.5000 
     70 CA         -2.6864  -22.2750  -48.6343 C.3       12 UNK         0.1400 
     71 CB         -3.8476  -21.3238  -48.3153 C.3       12 UNK        -0.1800 
     72 C          -3.0041  -23.7047  -48.1598 C.2       12 UNK         0.5000 
     73 O          -3.4001  -24.5360  -48.9768 O.2       12 UNK        -0.5000 
     74 N          -2.7871  -23.9757  -46.8654 N.am      13 UNK        -0.5000 
     75 CA         -2.9239  -25.2986  -46.2581 C.3       13 UNK         0.1400 
     76 CB         -2.8079  -25.1850  -44.7306 C.3       13 UNK        -0.1800 
     77 C          -1.9072  -26.3106  -46.8149 C.2       13 UNK         0.5000 
     78 O          -2.3007  -27.4181  -47.1814 O.2       13 UNK        -0.5000 
     79 N          -0.6325  -25.9042  -46.9127 N.am      14 UNK        -0.5000 
     80 CA          0.4568  -26.7043  -47.4817 C.3       14 UNK         0.1400 
     81 CB          1.7956  -25.9868  -47.2529 C.3       14 UNK        -0.1800 
     82 C           0.2572  -27.0194  -48.9767 C.2       14 UNK         0.5000 
     83 O           0.5658  -28.1286  -49.4135 O.2       14 UNK        -0.5000 
     84 N          -0.2919  -26.0520  -49.7215 N.am      15 UNK        -0.5000 
     85 CA         -0.6722  -26.1787  -51.1280 C.3       15 UNK         0.1400 
     86 CB         -0.8029  -24.7701  -51.7291 C.3       15 UNK        -0.1800 
     87 C          -1.9761  -26.9722  -51.3495 C.2       15 UNK         0.5000 
     88 O          -2.3246  -27.2244  -52.5020 O.2       15 UNK        -0.5000 
     89 N          -2.6957  -27.3188  -50.2706 N.am      16 UNK        -0.5000 
     90 CA         -4.0034  -27.9855  -50.2576 C.3       16 UNK         0.1400 
     91 CB         -3.8752  -29.4465  -50.7360 C.3       16 UNK        -0.1800 
     92 C          -5.0776  -27.1844  -51.0258 C.2       16 UNK         0.5000 
     93 O          -5.8587  -27.7557  -51.7881 O.2       16 UNK        -0.5000 
     94 N          -5.0578  -25.8592  -50.8241 N.am      17 UNK        -0.5000 
     95 CA         -5.8934  -24.8235  -51.4386 C.3       17 UNK         0.1400 
     96 CB         -7.3910  -25.0689  -51.1628 C.3       17 UNK        -0.1800 
     97 C          -5.6120  -24.5570  -52.9332 C.2       17 UNK         0.5000 
     98 O          -6.2693  -23.6909  -53.5130 O.2       17 UNK        -0.5000 
     99 N          -4.6253  -25.2367  -53.5366 N.am      18 UNK        -0.5000 
    100 CA        -4.1778  -25.0094  -54.9136 C.3       18 UNK         0.1400 
    101 CB        -3.6287  -26.3237  -55.4966 C.3       18 UNK        -0.1800 
    102 C         -3.1567  -23.8544  -54.9656 C.2       18 UNK         0.5000 
    103 O         -2.0027  -24.0533  -55.3497 O.2       18 UNK        -0.5000 
    104 N         -3.6014  -22.6680  -54.5435 N.am      19 UNK        -0.5000 
    105 CA        -2.8248  -21.4360  -54.4657 C.3       19 UNK         0.1400 
    106 CB        -2.1159  -21.3585  -53.0962 C.3       19 UNK        -0.1800 
    107 C         -3.7503  -20.2398  -54.7552 C.2       19 UNK         0.5000 
    108 O         -4.7188  -20.3830  -55.5065 O.2       19 UNK        -0.5000 
    109 N         -3.4363  -19.0793  -54.1673 N.am      20 UNK        -0.5000 
    110 CA        -4.2412  -17.8591  -54.2180 C.3       20 UNK         0.1400 
    111 CB        -3.3964  -16.7050  -53.6549 C.3       20 UNK        -0.1800 
    112 C         -5.5750  -17.9965  -53.4533 C.2       20 UNK         0.5000 
    113 O         -5.7483  -18.9277  -52.6621 O.2       20 UNK        -0.5000 
    114 N         -6.4857  -17.0393  -53.6831 N.am      21 UNK        -0.5000 
    115 CA        -7.8516  -16.9898  -53.1397 C.3       21 UNK         0.1400 
    116 CB        -8.5624  -15.7496  -53.7039 C.3       21 UNK        -0.1800 
    117 C         -7.9555  -17.0136  -51.5992 C.2       21 UNK         0.5000 
    118 O         -9.0013  -17.3909  -51.0690 O.2       21 UNK        -0.5000 
    119 N         -6.8702  -16.6369  -50.9148 N.am      22 UNK        -0.5000 
    120 CA        -6.6593  -16.8197  -49.4716 C.3       22 UNK         0.1400 
    121 C         -6.5344  -18.3012  -49.0011 C.2       22 UNK         0.5000 
    122 N         -6.3430  -19.2764  -49.8819 N.am      22 UNK        -0.7600 
    123 O         -6.6283  -18.5710  -47.8072 O.2       22 UNK        -0.5000 
    124 C124       -5.4843  -15.9486  -48.9458 C.3       23 UNK        -0.0398 
    125 S125       -4.0072  -15.8973  -50.0248 S.3       23 UNK        -0.2404 
    126 C126       -3.1743  -17.4646  -49.6042 C.3       23 UNK        -0.0205 
    127 H127        7.6167  -13.6942  -47.2473 H         1 UNK         0.0600 
    128 H128        7.4065  -15.3616  -46.7056 H         1 UNK         0.0600 
    129 H129        7.8623  -15.0289  -48.3786 H         1 UNK         0.0600 
    130 H130        5.3177  -15.8780  -46.4881 H         1 UNK         0.3000 
    131 H131        3.2208  -16.1107  -46.5128 H         1 UNK         0.0600 
    132 H132        3.6509  -17.2759  -48.6376 H         1 UNK         0.0800 
    133 H133        2.0214  -16.7524  -48.4102 H         1 UNK         0.0800 
    134 H134        0.9516  -14.5546  -49.8936 H         1 UNK         0.0800 
    135 H135        1.2361  -14.8398  -51.5944 H         1 UNK         0.0800 
    136 H136       -1.2776  -15.4574  -49.8798 H         1 UNK         0.1150 
    137 H137       -1.8038  -19.6942  -50.2749 H         1 UNK         0.1150 
    138 H138        1.9581  -17.9112  -51.2425 H         1 UNK         0.1150 
    139 H139        0.0033  -21.1005  -50.9023 H         1 UNK         0.0800 
    140 H140        1.1038  -20.3805  -52.0488 H         1 UNK         0.0800 
    141 H141        0.6277  -19.6229  -48.2850 H         1 UNK         0.0800 
    142 H142        2.2112  -19.8883  -47.6394 H         1 UNK         0.0800 
    143 H143        1.7828  -22.3621  -47.5543 H         1 UNK         0.0600 
    144 H144        0.6404  -20.4403  -45.8113 H         1 UNK         0.3000 
    145 H145       -0.5696  -22.7439  -43.3398 H         1 UNK         0.0600 
    146 H146        0.8631  -21.3016  -41.9407 H         1 UNK         0.0600 
    147 H147        1.8686  -22.3606  -42.9166 H         1 UNK         0.0600 
    148 H148        1.6852  -20.6693  -43.3660 H         1 UNK         0.0600 
    149 H149       -0.6987  -19.9193  -43.4295 H         1 UNK         0.3000 
    150 H150       -3.8046  -19.6636  -45.2458 H         1 UNK         0.0600 
    151 H151       -4.3413  -20.1007  -42.8432 H         1 UNK         0.0600 
    152 H152       -4.3665  -18.3823  -43.2083 H         1 UNK         0.0600 
    153 H153       -2.9951  -19.0809  -42.3493 H         1 UNK         0.0600 
    154 H154       -2.1749  -17.6135  -44.2116 H         1 UNK         0.3000 
    155 H155       -0.0827  -17.1552  -47.1162 H         1 UNK         0.0600 
    156 H156       -0.9582  -14.8640  -46.6292 H         1 UNK         0.0600 
    157 H157       -2.2545  -15.5516  -45.6583 H         1 UNK         0.0600 
    158 H158       -2.1841  -15.8614  -47.3839 H         1 UNK         0.0600 
    159 H159        0.0224  -15.9071  -44.5742 H         1 UNK         0.3000 
    160 H160        2.2325  -18.2014  -42.9474 H         1 UNK         0.0600 
    161 H161        2.5854  -15.3396  -43.9888 H         1 UNK         0.0600 
    162 H162        3.7125  -16.6758  -44.1764 H         1 UNK         0.0600 
    163 H163        3.4031  -16.0134  -42.5810 H         1 UNK         0.0600 
    164 H164        0.8223  -15.7759  -42.2123 H         1 UNK         0.3000 
    165 H165       -1.9655  -17.4370  -40.7242 H         1 UNK         0.0600 
    166 H166        0.4393  -16.0755  -39.3927 H         1 UNK         0.0600 
    167 H167       -1.1658  -16.2715  -38.6877 H         1 UNK         0.0600 
    168 H168       -0.1674  -17.6811  -39.0046 H         1 UNK         0.0600 
    169 H169       -1.1213  -14.7069  -40.7379 H         1 UNK         0.3000 
    170 H170       -2.4475  -13.7569  -43.8726 H         1 UNK         0.0600 
    171 H171       -4.5024  -13.8067  -42.4491 H         1 UNK         0.0600 
    172 H172       -3.5845  -13.1887  -41.0809 H         1 UNK         0.0600 
    173 H173       -3.8143  -12.1925  -42.5188 H         1 UNK         0.0600 
    174 H174       -1.3921  -12.2035  -41.7523 H         1 UNK         0.3000 
    175 H175        0.6711  -11.2290  -42.0758 H         1 UNK         0.0600 
    176 H176        2.4184  -12.1588  -40.5289 H         1 UNK         0.0600 
    177 H177        0.8918  -12.9767  -40.2566 H         1 UNK         0.0600 
    178 H178        2.1610  -13.7761  -41.1779 H         1 UNK         0.0600 
    179 H179        2.1570  -12.6962  -44.0392 H         1 UNK         0.3000 
    180 H180        4.4176  -10.0033  -44.5611 H         1 UNK         0.0600 
    181 H181        5.1991  -12.8712  -43.8026 H         1 UNK         0.0600 
    182 H182        5.8169  -11.4122  -43.0373 H         1 UNK         0.0600 
    183 H183        6.1872  -11.7356  -44.7231 H         1 UNK         0.0600 
    184 H184        4.1248  -12.4281  -45.9880 H         1 UNK         0.3000 
    185 H185        1.2965  -11.9508  -47.7944 H         1 UNK         0.0600 
    186 H186        2.5523  -11.4451  -49.8826 H         1 UNK         0.0600 
    187 H187        2.3341   -9.9848  -48.9307 H         1 UNK         0.0600 
    188 H188        3.8962  -10.7970  -48.9428 H         1 UNK         0.0600 
    189 H189        3.8686  -13.1884  -48.4049 H         1 UNK         0.3000 
    190 H190       -1.5174  -20.8946  -47.5187 H         1 UNK         0.3000 
    191 H191       -2.5644  -22.3079  -49.7188 H         1 UNK         0.0600 
    192 H192       -3.6619  -20.3258  -48.7099 H         1 UNK         0.0600 
    193 H193       -4.7771  -21.6835  -48.7574 H         1 UNK         0.0600 
    194 H194       -4.0098  -21.2299  -47.2416 H         1 UNK         0.0600 
    195 H195       -2.5194  -23.2155  -46.2453 H         1 UNK         0.3000 
    196 H196       -3.9237  -25.6695  -46.4933 H         1 UNK         0.0600 
    197 H197       -2.9207  -26.1606  -44.2562 H         1 UNK         0.0600 
    198 H198       -3.5828  -24.5343  -44.3251 H         1 UNK         0.0600 
    199 H199       -1.8418  -24.7811  -44.4274 H         1 UNK         0.0600 
    200 H200       -0.3810  -24.9835  -46.5626 H         1 UNK         0.3000 
    201 H201        0.4852  -27.6549  -46.9454 H         1 UNK         0.0600 
    202 H202        1.9858  -25.8379  -46.1899 H         1 UNK         0.0600 
    203 H203        1.8158  -25.0093  -47.7358 H         1 UNK         0.0600 
    204 H204        2.6259  -26.5694  -47.6537 H         1 UNK         0.0600 
    205 H205       -0.4395  -25.1392  -49.2975 H         1 UNK         0.3000 
    206 H206        0.1245  -26.7042  -51.6581 H         1 UNK         0.0600 
    207 H207        0.1215  -24.2033  -51.6164 H         1 UNK         0.0600 
    208 H208       -1.0245  -24.8172  -52.7958 H         1 UNK         0.0600 
    209 H209       -1.6033  -24.2039  -51.2514 H         1 UNK         0.0600 
    210 H210       -2.3392  -27.0538  -49.3607 H         1 UNK         0.3000 
    211 H211       -4.3255  -28.0061  -49.2155 H         1 UNK         0.0600 
    212 H212       -3.6020  -29.5069  -51.7898 H         1 UNK         0.0600 
    213 H213       -4.8170  -29.9820  -50.6113 H         1 UNK         0.0600 
    214 H214       -3.1193  -29.9827  -50.1622 H         1 UNK         0.0600 
    215 H215       -4.3617  -25.4969  -50.1725 H         1 UNK         0.3000 
    216 H216       -5.6208  -23.9003  -50.9251 H         1 UNK         0.0600 
    217 H217       -7.5755  -25.2311  -50.1009 H         1 UNK         0.0600 
    218 H218       -7.7696  -25.9341  -51.7073 H         1 UNK         0.0600 
    219 H219       -7.9895  -24.2093  -51.4666 H         1 UNK         0.0600 
    220 H220       -4.0975  -25.9163  -53.0028 H         1 UNK         0.3000 
    221 H221       -5.0321  -24.7176  -55.5282 H         1 UNK         0.0600 
    222 H222       -2.7204  -26.6473  -54.9892 H         1 UNK         0.0600 
    223 H223       -4.3610  -27.1274  -55.4187 H         1 UNK         0.0600 
    224 H224       -3.3853  -26.2062  -56.5531 H         1 UNK         0.0600 
    225 H225       -4.5808  -22.5833  -54.2924 H         1 UNK         0.3000 
    226 H226       -2.0674  -21.4369  -55.2522 H         1 UNK         0.0600 
    227 H227       -1.4982  -22.2391  -52.9247 H         1 UNK         0.0600 
    228 H228       -1.4513  -20.4966  -53.0396 H         1 UNK         0.0600 
    229 H229       -2.8311  -21.2882  -52.2754 H         1 UNK         0.0600 
    230 H230       -2.6417  -19.0573  -53.5463 H         1 UNK         0.3000 
    231 H231       -4.4743  -17.6453  -55.2631 H         1 UNK         0.0600 
    232 H232       -3.9540  -15.7680  -53.6364 H         1 UNK         0.0600 
    233 H233       -2.5068  -16.5377  -54.2624 H         1 UNK         0.0600 
    234 H234       -3.0661  -16.9118  -52.6375 H         1 UNK         0.0600 
    235 H235       -6.2488  -16.3009  -54.3301 H         1 UNK         0.3000 
    236 H236       -8.3739  -17.8765  -53.5043 H         1 UNK         0.0600 
    237 H237       -9.5926  -15.6926  -53.3495 H         1 UNK         0.0600 
    238 H238       -8.0608  -14.8289  -53.4035 H         1 UNK         0.0600 
    239 H239       -8.5976  -15.7747  -54.7932 H         1 UNK         0.0600 
    240 H240       -6.0551  -16.3457  -51.4342 H         1 UNK         0.3000 
    241 H241       -7.5629  -16.4526  -48.9810 H         1 UNK         0.0600 
    242 H242       -6.2281  -19.0813  -50.8742 H         1 UNK         0.3800 
    243 H243       -6.2952  -20.2258  -49.5549 H         1 UNK         0.3800 
    244 H244       -5.8338  -14.9192  -48.8585 H         1 UNK         0.0800 
    245 H245       -5.1891  -16.2315  -47.9335 H         1 UNK         0.0800 
    246 H246       -3.2107  -17.6249  -48.5278 H         1 UNK         0.0800 
    247 H247       -3.7463  -18.2740  -50.0580 H         1 UNK         0.0800 
@<TRIPOS>BOND
     1    1    2 1    
     2    1  127 1    
     3    1  128 1    
     4    1  129 1    
     5    2    3 2    
     6    2    4 am   BACKBONE|DICT|INTERRES
     7    4    5 1    
     8    4  130 1    
     9    5    6 1    
    10    5   65 1    
    11    5  131 1    
    12    6    7 1    
    13    6  132 1    
    14    6  133 1    
    15    7    8 1    
    16    8    9 1    
    17    8  134 1    
    18    8  135 1    
    19    9   10 ar   
    20    9   14 ar   
    21   10   11 ar   
    22   10  136 1    
    23   11   12 ar   
    24   11  126 1    
    25   12   13 ar   
    26   12  137 1    
    27   13   14 ar   
    28   13   15 1    
    29   14  138 1    
    30   15   16 1    
    31   15  139 1    
    32   15  140 1    
    33   16   17 1    
    34   17   18 1    
    35   17  141 1    
    36   17  142 1    
    37   18   19 1    
    38   18   67 1    
    39   18  143 1    
    40   19   20 am   BACKBONE|DICT|INTERRES
    41   19  144 1    
    42   20   21 2    
    43   20   22 1    
    44   22   23 1    
    45   22   24 1    
    46   22  145 1    
    47   23  146 1    
    48   23  147 1    
    49   23  148 1    
    50   24   25 am   BACKBONE|DICT|INTERRES
    51   24  149 1    
    52   25   26 2    
    53   25   27 1    
    54   27   28 1    
    55   27   29 1    
    56   27  150 1    
    57   28  151 1    
    58   28  152 1    
    59   28  153 1    
    60   29   30 am   BACKBONE|DICT|INTERRES
    61   29  154 1    
    62   30   31 2    
    63   30   32 1    
    64   32   33 1    
    65   32   34 1    
    66   32  155 1    
    67   33  156 1    
    68   33  157 1    
    69   33  158 1    
    70   34   35 am   BACKBONE|DICT|INTERRES
    71   34  159 1    
    72   35   36 2    
    73   35   37 1    
    74   37   38 1    
    75   37   39 1    
    76   37  160 1    
    77   38  161 1    
    78   38  162 1    
    79   38  163 1    
    80   39   40 am   BACKBONE|DICT|INTERRES
    81   39  164 1    
    82   40   41 2    
    83   40   42 1    
    84   42   43 1    
    85   42   44 1    
    86   42  165 1    
    87   43  166 1    
    88   43  167 1    
    89   43  168 1    
    90   44   45 am   BACKBONE|DICT|INTERRES
    91   44  169 1    
    92   45   46 2    
    93   45   47 1    
    94   47   48 1    
    95   47   49 1    
    96   47  170 1    
    97   48  171 1    
    98   48  172 1    
    99   48  173 1    
   100   49   50 am   BACKBONE|DICT|INTERRES
   101   49  174 1    
   102   50   51 2    
   103   50   52 1    
   104   52   53 1    
   105   52   54 1    
   106   52  175 1    
   107   53  176 1    
   108   53  177 1    
   109   53  178 1    
   110   54   55 am   BACKBONE|DICT|INTERRES
   111   54  179 1    
   112   55   56 2    
   113   55   57 1    
   114   57   58 1    
   115   57   59 1    
   116   57  180 1    
   117   58  181 1    
   118   58  182 1    
   119   58  183 1    
   120   59   60 am   BACKBONE|DICT|INTERRES
   121   59  184 1    
   122   60   61 2    
   123   60   62 1    
   124   62   63 1    
   125   62   64 1    
   126   62  185 1    
   127   63  186 1    
   128   63  187 1    
   129   63  188 1    
   130   64   65 am   BACKBONE|DICT|INTERRES
   131   64  189 1    
   132   65   66 2    
   133   67   68 2    
   134   67   69 am   BACKBONE|DICT|INTERRES
   135   69   70 1    
   136   69  190 1    
   137   70   71 1    
   138   70   72 1    
   139   70  191 1    
   140   71  192 1    
   141   71  193 1    
   142   71  194 1    
   143   72   73 2    
   144   72   74 am   BACKBONE|DICT|INTERRES
   145   74   75 1    
   146   74  195 1    
   147   75   76 1    
   148   75   77 1    
   149   75  196 1    
   150   76  197 1    
   151   76  198 1    
   152   76  199 1    
   153   77   78 2    
   154   77   79 am   BACKBONE|DICT|INTERRES
   155   79   80 1    
   156   79  200 1    
   157   80   81 1    
   158   80   82 1    
   159   80  201 1    
   160   81  202 1    
   161   81  203 1    
   162   81  204 1    
   163   82   83 2    
   164   82   84 am   BACKBONE|DICT|INTERRES
   165   84   85 1    
   166   84  205 1    
   167   85   86 1    
   168   85   87 1    
   169   85  206 1    
   170   86  207 1    
   171   86  208 1    
   172   86  209 1    
   173   87   88 2    
   174   87   89 am   BACKBONE|DICT|INTERRES
   175   89   90 1    
   176   89  210 1    
   177   90   91 1    
   178   90   92 1    
   179   90  211 1    
   180   91  212 1    
   181   91  213 1    
   182   91  214 1    
   183   92   93 2    
   184   92   94 am   BACKBONE|DICT|INTERRES
   185   94   95 1    
   186   94  215 1    
   187   95   96 1    
   188   95   97 1    
   189   95  216 1    
   190   96  217 1    
   191   96  218 1    
   192   96  219 1    
   193   97   98 2    
   194   97   99 am   BACKBONE|DICT|INTERRES
   195   99  100 1    
   196   99  220 1    
   197  100  101 1    
   198  100  102 1    
   199  100  221 1    
   200  101  222 1    
   201  101  223 1    
   202  101  224 1    
   203  102  103 2    
   204  102  104 am   BACKBONE|DICT|INTERRES
   205  104  105 1    
   206  104  225 1    
   207  105  106 1    
   208  105  107 1    
   209  105  226 1    
   210  106  227 1    
   211  106  228 1    
   212  106  229 1    
   213  107  108 2    
   214  107  109 am   BACKBONE|DICT|INTERRES
   215  109  110 1    
   216  109  230 1    
   217  110  111 1    
   218  110  112 1    
   219  110  231 1    
   220  111  232 1    
   221  111  233 1    
   222  111  234 1    
   223  112  113 2    
   224  112  114 am   BACKBONE|DICT|INTERRES
   225  114  115 1    
   226  114  235 1    
   227  115  116 1    
   228  115  117 1    
   229  115  236 1    
   230  116  237 1    
   231  116  238 1    
   232  116  239 1    
   233  117  118 2    
   234  117  119 am   BACKBONE|DICT|INTERRES
   235  119  120 1    
   236  119  240 1    
   237  120  121 1    
   238  120  124 1    
   239  120  241 1    
   240  121  122 am   BACKBONE|DICT|INTERRES
   241  121  123 2    
   242  122  242 1    
   243  122  243 1    
   244  124  125 1    
   245  124  244 1    
   246  124  245 1    
   247  125  126 1    
   248  126  246 1    
   249  126  247 1    
@<TRIPOS>SUBSTRUCTURE
     1 UNK         1 GROUP             0       ****    0 ROOT    
