@<TRIPOS>MOLECULE
3R540
247   249    1
SMALL
USER_CHARGES


@<TRIPOS>ATOM
      1 CA          1.0528  -11.5291  -48.3557 C.3       0 UNK        -0.1800 
      2 C           1.0058  -13.0492  -48.3930 C.2       0 UNK         0.5000 
      3 O           0.4629  -13.6632  -47.4743 O.2       0 UNK        -0.5000 
      4 N           1.5826  -13.6551  -49.4402 N.am      1 UNK        -0.5000 
      5 CA          1.6612  -15.1004  -49.6899 C.3       1 UNK         0.1400 
      6 C6          0.2871  -15.7365  -50.0406 C.3       23 UNK        -0.0398 
      7 S7         -0.3147  -15.2236  -51.6892 S.3       23 UNK        -0.2404 
      8 C8          0.7710  -16.1448  -52.8359 C.3       23 UNK        -0.0205 
      9 C9          0.5826  -17.6499  -52.7327 C.ar      23 UNK        -0.0193 
     10 C10        -0.3641  -18.2972  -53.5286 C.ar      23 UNK        -0.1150 
     11 C11        -0.5760  -19.6742  -53.4080 C.ar      23 UNK        -0.0193 
     12 C12         0.1669  -20.4037  -52.4755 C.ar      23 UNK        -0.1150 
     13 C13         1.1158  -19.7646  -51.6714 C.ar      23 UNK        -0.0193 
     14 C14         1.3417  -18.3960  -51.8284 C.ar      23 UNK        -0.1150 
     15 C15         1.8695  -20.5309  -50.5969 C.3       23 UNK        -0.0205 
     16 S16         1.1467  -20.2266  -48.9515 S.3       23 UNK        -0.2404 
     17 C17        -0.4360  -21.1278  -49.0705 C.3       23 UNK        -0.0398 
     18 CA         -0.5960  -22.1682  -47.9414 C.3       11 UNK         0.1400 
     19 N          -0.6712  -21.5324  -46.6212 N.am      11 UNK        -0.5000 
     20 C          -0.7765  -22.1624  -45.4433 C.2       10 UNK         0.5000 
     21 O          -0.6996  -23.3866  -45.3201 O.2       10 UNK        -0.5000 
     22 CA         -1.1089  -21.2944  -44.2115 C.3       10 UNK         0.1400 
     23 CB          0.1345  -21.1217  -43.3348 C.3       10 UNK        -0.1800 
     24 N          -1.6987  -19.9754  -44.5048 N.am      10 UNK        -0.5000 
     25 C          -2.8430  -19.7902  -45.1862 C.2       9 UNK         0.5000 
     26 O          -3.4700  -20.7163  -45.7008 O.2       9 UNK        -0.5000 
     27 CA         -3.3895  -18.3652  -45.3650 C.3       9 UNK         0.1400 
     28 CB         -4.7208  -18.1969  -44.6123 C.3       9 UNK        -0.1800 
     29 N          -2.4685  -17.3088  -44.9431 N.am      9 UNK        -0.5000 
     30 C          -2.3583  -16.1238  -45.5655 C.2       8 UNK         0.5000 
     31 O          -2.8577  -15.8868  -46.6657 O.2       8 UNK        -0.5000 
     32 CA         -1.5758  -15.0110  -44.8295 C.3       8 UNK         0.1400 
     33 CB         -2.0720  -13.5925  -45.1761 C.3       8 UNK        -0.1800 
     34 N          -1.5306  -15.1999  -43.3761 N.am      8 UNK        -0.5000 
     35 C          -2.5655  -15.2913  -42.5266 C.2       7 UNK         0.5000 
     36 O          -3.7343  -15.0825  -42.8535 O.2       7 UNK        -0.5000 
     37 CA         -2.2570  -15.7162  -41.0743 C.3       7 UNK         0.1400 
     38 CB         -3.2701  -16.7621  -40.5647 C.3       7 UNK        -0.1800 
     39 N          -0.8873  -16.1913  -40.8365 N.am      7 UNK        -0.5000 
     40 C          -0.2555  -17.2464  -41.3791 C.2       6 UNK         0.5000 
     41 O          -0.7392  -17.9510  -42.2711 O.2       6 UNK        -0.5000 
     42 CA          1.1692  -17.5152  -40.8482 C.3       6 UNK         0.1400 
     43 CB          2.0531  -18.2713  -41.8498 C.3       6 UNK        -0.1800 
     44 N           1.8240  -16.2506  -40.5223 N.am      6 UNK        -0.5000 
     45 C           2.3186  -15.8992  -39.3289 C.2       5 UNK         0.5000 
     46 O           2.3381  -16.6446  -38.3490 O.2       5 UNK        -0.5000 
     47 CA          2.8666  -14.4614  -39.1953 C.3       5 UNK         0.1400 
     48 CB          4.3989  -14.4604  -39.3070 C.3       5 UNK        -0.1800 
     49 N           2.3219  -13.5276  -40.1852 N.am      5 UNK        -0.5000 
     50 C           1.0342  -13.1691  -40.2868 C.2       4 UNK         0.5000 
     51 O           0.1588  -13.5369  -39.5028 O.2       4 UNK        -0.5000 
     52 CA          0.6448  -12.3102  -41.5061 C.3       4 UNK         0.1400 
     53 CB          0.6192  -10.8221  -41.1282 C.3       4 UNK        -0.1800 
     54 N           1.5020  -12.4919  -42.6851 N.am      4 UNK        -0.5000 
     55 C           1.7000  -13.6486  -43.3323 C.2       3 UNK         0.5000 
     56 O           1.2484  -14.7276  -42.9414 O.2       3 UNK        -0.5000 
     57 CA          2.5261  -13.5635  -44.6278 C.3       3 UNK         0.1400 
     58 CB          4.0194  -13.3116  -44.3395 C.3       3 UNK        -0.1800 
     59 N           2.3176  -14.7231  -45.5015 N.am      3 UNK        -0.5000 
     60 C           2.7654  -15.9826  -45.3653 C.2       2 UNK         0.5000 
     61 O           3.5504  -16.3515  -44.4922 O.2       2 UNK        -0.5000 
     62 CA          2.2459  -17.0197  -46.3867 C.3       2 UNK         0.1400 
     63 CB          1.1816  -17.9231  -45.7422 C.3       2 UNK        -0.1800 
     64 N           1.6824  -16.4065  -47.5926 N.am      2 UNK        -0.5000 
     65 C           2.4147  -15.8216  -48.5514 C.2       1 UNK         0.5000 
     66 O           3.6467  -15.8076  -48.5517 O.2       1 UNK        -0.5000 
     67 C          -1.7850  -23.1131  -48.2337 C.2       11 UNK         0.5000 
     68 O          -1.6188  -24.0477  -49.0174 O.2       11 UNK        -0.5000 
     69 N          -2.9304  -22.9174  -47.5597 N.am      12 UNK        -0.5000 
     70 CA         -4.0816  -23.8248  -47.5702 C.3       12 UNK         0.1400 
     71 CB         -5.1890  -23.2401  -46.6806 C.3       12 UNK        -0.1800 
     72 C          -3.7456  -25.2543  -47.1015 C.2       12 UNK         0.5000 
     73 O          -4.3767  -26.2018  -47.5685 O.2       12 UNK        -0.5000 
     74 N          -2.7550  -25.3798  -46.2087 N.am      13 UNK        -0.5000 
     75 CA         -2.2184  -26.6499  -45.7315 C.3       13 UNK         0.1400 
     76 CB         -2.0908  -26.5990  -44.2006 C.3       13 UNK        -0.1800 
     77 C          -0.8549  -26.9435  -46.3770 C.2       13 UNK         0.5000 
     78 O          -0.6288  -28.0685  -46.8221 O.2       13 UNK        -0.5000 
     79 N           0.0317  -25.9372  -46.4114 N.am      14 UNK        -0.5000 
     80 CA          1.4304  -26.0884  -46.8203 C.3       14 UNK         0.1400 
     81 CB          2.2339  -24.8684  -46.3435 C.3       14 UNK        -0.1800 
     82 C           1.6330  -26.3199  -48.3296 C.2       14 UNK         0.5000 
     83 O           2.5694  -27.0280  -48.7024 O.2       14 UNK        -0.5000 
     84 N           0.7691  -25.7283  -49.1644 N.am      15 UNK        -0.5000 
     85 CA          0.8115  -25.8361  -50.6268 C.3       15 UNK         0.1400 
     86 CB          1.0367  -24.4332  -51.2159 C.3       15 UNK        -0.1800 
     87 C          -0.4702  -26.4660  -51.2032 C.2       15 UNK         0.5000 
     88 O          -0.5338  -26.6908  -52.4123 O.2       15 UNK        -0.5000 
     89 N          -1.4663  -26.7222  -50.3409 N.am      16 UNK        -0.5000 
     90 CA         -2.8184  -27.1973  -50.6516 C.3       16 UNK         0.1400 
     91 CB         -2.7814  -28.6299  -51.2242 C.3       16 UNK        -0.1800 
     92 C          -3.6230  -26.2133  -51.5319 C.2       16 UNK         0.5000 
     93 O          -4.4854  -26.6443  -52.2999 O.2       16 UNK        -0.5000 
     94 N          -3.3334  -24.9107  -51.4115 N.am      17 UNK        -0.5000 
     95 CA         -3.9422  -23.8445  -52.1989 C.3       17 UNK         0.1400 
     96 CB         -3.2214  -23.7116  -53.5500 C.3       17 UNK        -0.1800 
     97 C          -3.8881  -22.5522  -51.3777 C.2       17 UNK         0.5000 
     98 O          -2.8073  -21.9998  -51.1703 O.2       17 UNK        -0.5000 
     99 N          -5.0534  -22.1298  -50.8772 N.am      18 UNK        -0.5000 
    100 CA        -5.2477  -21.0449  -49.9165 C.3       18 UNK         0.1400 
    101 CB        -6.6676  -21.1799  -49.3347 C.3       18 UNK        -0.1800 
    102 C         -4.9878  -19.6331  -50.4840 C.2       18 UNK         0.5000 
    103 O         -5.9319  -18.8552  -50.6275 O.2       18 UNK        -0.5000 
    104 N         -3.7158  -19.3236  -50.7738 N.am      19 UNK        -0.5000 
    105 CA        -3.1595  -18.0020  -51.0978 C.3       19 UNK         0.1400 
    106 CB        -3.1391  -17.1173  -49.8336 C.3       19 UNK        -0.1800 
    107 C         -3.8551  -17.3239  -52.2966 C.2       19 UNK         0.5000 
    108 O         -3.4851  -17.5769  -53.4434 O.2       19 UNK        -0.5000 
    109 N         -4.8986  -16.5267  -52.0277 N.am      20 UNK        -0.5000 
    110 CA        -5.7881  -15.9085  -53.0181 C.3       20 UNK         0.1400 
    111 CB        -6.8214  -15.0436  -52.2808 C.3       20 UNK        -0.1800 
    112 C         -6.4939  -16.9147  -53.9558 C.2       20 UNK         0.5000 
    113 O         -6.9472  -16.5224  -55.0312 O.2       20 UNK        -0.5000 
    114 N         -6.5390  -18.1938  -53.5543 N.am      21 UNK        -0.5000 
    115 CA        -6.9654  -19.3332  -54.3675 C.3       21 UNK         0.1400 
    116 CB        -7.0028  -20.5867  -53.4814 C.3       21 UNK        -0.1800 
    117 C         -6.0845  -19.5951  -55.6097 C.2       21 UNK         0.5000 
    118 O         -6.5670  -20.2366  -56.5442 O.2       21 UNK        -0.5000 
    119 N         -4.8337  -19.1091  -55.6157 N.am      22 UNK        -0.5000 
    120 CA        -3.9255  -19.1729  -56.7744 C.3       22 UNK         0.1400 
    121 C         -3.2076  -17.8265  -57.0841 C.2       22 UNK         0.5000 
    122 N         -3.0656  -16.9054  -56.1379 N.am      22 UNK        -0.7600 
    123 O         -2.7980  -17.5999  -58.2196 O.2       22 UNK        -0.5000 
    124 C124       -2.9908  -20.4222  -56.7285 C.3       23 UNK        -0.0398 
    125 S125       -1.3178  -20.1851  -56.0255 S.3       23 UNK        -0.2404 
    126 C126       -1.6438  -20.3585  -54.2467 C.3       23 UNK        -0.0205 
    127 H127        1.5484  -11.1162  -49.2345 H         1 UNK         0.0600 
    128 H128        1.5920  -11.1931  -47.4701 H         1 UNK         0.0600 
    129 H129        0.0412  -11.1254  -48.3138 H         1 UNK         0.0600 
    130 H130        2.0281  -13.0818  -50.1427 H         1 UNK         0.3000 
    131 H131        2.3106  -15.2108  -50.5580 H         1 UNK         0.0600 
    132 H132        0.3178  -16.8243  -49.9994 H         1 UNK         0.0800 
    133 H133       -0.4667  -15.4457  -49.3077 H         1 UNK         0.0800 
    134 H134        0.5483  -15.8203  -53.8535 H         1 UNK         0.0800 
    135 H135        1.8150  -15.8819  -52.6661 H         1 UNK         0.0800 
    136 H136       -0.9534  -17.7262  -54.2322 H         1 UNK         0.1150 
    137 H137       -0.0130  -21.4631  -52.3584 H         1 UNK         0.1150 
    138 H138        2.0777  -17.9044  -51.2082 H         1 UNK         0.1150 
    139 H139        1.8746  -21.5996  -50.8102 H         1 UNK         0.0800 
    140 H140        2.9138  -20.2156  -50.5890 H         1 UNK         0.0800 
    141 H141       -1.2550  -20.4068  -49.0582 H         1 UNK         0.0800 
    142 H142       -0.4830  -21.6227  -50.0397 H         1 UNK         0.0800 
    143 H143        0.2940  -22.7976  -47.9440 H         1 UNK         0.0600 
    144 H144       -0.7358  -20.5261  -46.6193 H         1 UNK         0.3000 
    145 H145       -1.8481  -21.8523  -43.6331 H         1 UNK         0.0600 
    146 H146       -0.1231  -20.6454  -42.3893 H         1 UNK         0.0600 
    147 H147        0.5863  -22.0856  -43.0959 H         1 UNK         0.0600 
    148 H148        0.8929  -20.5184  -43.8330 H         1 UNK         0.0600 
    149 H149       -1.2459  -19.1839  -44.0669 H         1 UNK         0.3000 
    150 H150       -3.5914  -18.2690  -46.4340 H         1 UNK         0.0600 
    151 H151       -5.4427  -18.9596  -44.9074 H         1 UNK         0.0600 
    152 H152       -5.1718  -17.2268  -44.8221 H         1 UNK         0.0600 
    153 H153       -4.5816  -18.2726  -43.5331 H         1 UNK         0.0600 
    154 H154       -2.0303  -17.4163  -44.0360 H         1 UNK         0.3000 
    155 H155       -0.5468  -15.0889  -45.1792 H         1 UNK         0.0600 
    156 H156       -1.4799  -12.8341  -44.6639 H         1 UNK         0.0600 
    157 H157       -3.1169  -13.4486  -44.9008 H         1 UNK         0.0600 
    158 H158       -1.9876  -13.3979  -46.2458 H         1 UNK         0.0600 
    159 H159       -0.5979  -15.3437  -42.9998 H         1 UNK         0.3000 
    160 H160       -2.3726  -14.8168  -40.4680 H         1 UNK         0.0600 
    161 H161       -3.2501  -17.6708  -41.1674 H         1 UNK         0.0600 
    162 H162       -4.2886  -16.3733  -40.5948 H         1 UNK         0.0600 
    163 H163       -3.0635  -17.0405  -39.5313 H         1 UNK         0.0600 
    164 H164       -0.3689  -15.6455  -40.1593 H         1 UNK         0.3000 
    165 H165        1.0601  -18.1310  -39.9537 H         1 UNK         0.0600 
    166 H166        2.0573  -17.7802  -42.8214 H         1 UNK         0.0600 
    167 H167        3.0845  -18.3315  -41.5022 H         1 UNK         0.0600 
    168 H168        1.7044  -19.2915  -41.9862 H         1 UNK         0.0600 
    169 H169        1.8258  -15.5692  -41.2765 H         1 UNK         0.3000 
    170 H170        2.5925  -14.0970  -38.2032 H         1 UNK         0.0600 
    171 H171        4.8457  -15.1236  -38.5650 H         1 UNK         0.0600 
    172 H172        4.7299  -14.7975  -40.2902 H         1 UNK         0.0600 
    173 H173        4.8070  -13.4639  -39.1373 H         1 UNK         0.0600 
    174 H174        2.9654  -13.1833  -40.8824 H         1 UNK         0.3000 
    175 H175       -0.3667  -12.6052  -41.7937 H         1 UNK         0.0600 
    176 H176        1.6132  -10.4564  -40.8678 H         1 UNK         0.0600 
    177 H177        0.2401  -10.2125  -41.9487 H         1 UNK         0.0600 
    178 H178       -0.0306  -10.6471  -40.2695 H         1 UNK         0.0600 
    179 H179        1.9146  -11.6505  -43.0616 H         1 UNK         0.3000 
    180 H180        2.1466  -12.7095  -45.1908 H         1 UNK         0.0600 
    181 H181        4.4391  -14.0591  -43.6657 H         1 UNK         0.0600 
    182 H182        4.1679  -12.3385  -43.8706 H         1 UNK         0.0600 
    183 H183        4.6056  -13.3198  -45.2585 H         1 UNK         0.0600 
    184 H184        1.6642  -14.5486  -46.2598 H         1 UNK         0.3000 
    185 H185        3.0878  -17.6480  -46.6852 H         1 UNK         0.0600 
    186 H186        0.7094  -18.5771  -46.4740 H         1 UNK         0.0600 
    187 H187        1.6347  -18.5630  -44.9861 H         1 UNK         0.0600 
    188 H188        0.4008  -17.3440  -45.2516 H         1 UNK         0.0600 
    189 H189        0.6770  -16.3337  -47.6353 H         1 UNK         0.3000 
    190 H190       -2.9972  -22.1299  -46.9199 H         1 UNK         0.3000 
    191 H191       -4.4503  -23.8865  -48.5953 H         1 UNK         0.0600 
    192 H192       -5.4353  -22.2181  -46.9643 H         1 UNK         0.0600 
    193 H193       -6.1030  -23.8306  -46.7543 H         1 UNK         0.0600 
    194 H194       -4.8914  -23.2231  -45.6312 H         1 UNK         0.0600 
    195 H195       -2.2745  -24.5445  -45.8945 H         1 UNK         0.3000 
    196 H196       -2.8920  -27.4714  -45.9844 H         1 UNK         0.0600 
    197 H197       -1.6826  -27.5325  -43.8112 H         1 UNK         0.0600 
    198 H198       -3.0634  -26.4490  -43.7317 H         1 UNK         0.0600 
    199 H199       -1.4351  -25.7909  -43.8736 H         1 UNK         0.0600 
    200 H200       -0.2235  -25.0413  -46.0036 H         1 UNK         0.3000 
    201 H201        1.8302  -26.9650  -46.3057 H         1 UNK         0.0600 
    202 H202        2.1549  -24.7421  -45.2635 H         1 UNK         0.0600 
    203 H203        1.8928  -23.9465  -46.8119 H         1 UNK         0.0600 
    204 H204        3.2926  -24.9821  -46.5801 H         1 UNK         0.0600 
    205 H205        0.0192  -25.1595  -48.7882 H         1 UNK         0.3000 
    206 H206        1.6394  -26.4729  -50.9444 H         1 UNK         0.0600 
    207 H207        1.9558  -23.9925  -50.8305 H         1 UNK         0.0600 
    208 H208        1.1269  -24.4724  -52.3021 H         1 UNK         0.0600 
    209 H209        0.2126  -23.7595  -50.9818 H         1 UNK         0.0600 
    210 H210       -1.3072  -26.4816  -49.3740 H         1 UNK         0.3000 
    211 H211       -3.3455  -27.2479  -49.7000 H         1 UNK         0.0600 
    212 H212       -2.3392  -28.6588  -52.2203 H         1 UNK         0.0600 
    213 H213       -3.7867  -29.0455  -51.3022 H         1 UNK         0.0600 
    214 H214       -2.2062  -29.2962  -50.5814 H         1 UNK         0.0600 
    215 H215       -2.6380  -24.6150  -50.7320 H         1 UNK         0.3000 
    216 H216       -4.9898  -24.0853  -52.3927 H         1 UNK         0.0600 
    217 H217       -3.6017  -22.8602  -54.1154 H         1 UNK         0.0600 
    218 H218       -3.3711  -24.6002  -54.1632 H         1 UNK         0.0600 
    219 H219       -2.1470  -23.5825  -53.4163 H         1 UNK         0.0600 
    220 H220       -5.8886  -22.6420  -51.1203 H         1 UNK         0.3000 
    221 H221       -4.5404  -21.1877  -49.0981 H         1 UNK         0.0600 
    222 H222       -7.4326  -21.0236  -50.0963 H         1 UNK         0.0600 
    223 H223       -6.8313  -22.1673  -48.9039 H         1 UNK         0.0600 
    224 H224       -6.8370  -20.4482  -48.5437 H         1 UNK         0.0600 
    225 H225       -3.0518  -20.0922  -50.7665 H         1 UNK         0.3000 
    226 H226       -2.1232  -18.1644  -51.3920 H         1 UNK         0.0600 
    227 H227       -2.4660  -17.5306  -49.0822 H         1 UNK         0.0600 
    228 H228       -2.7872  -16.1106  -50.0605 H         1 UNK         0.0600 
    229 H229       -4.1229  -17.0231  -49.3733 H         1 UNK         0.0600 
    230 H230       -5.1783  -16.4349  -51.0617 H         1 UNK         0.3000 
    231 H231       -5.1773  -15.2571  -53.6461 H         1 UNK         0.0600 
    232 H232       -7.4853  -14.5400  -52.9848 H         1 UNK         0.0600 
    233 H233       -6.3363  -14.2706  -51.6844 H         1 UNK         0.0600 
    234 H234       -7.4428  -15.6433  -51.6143 H         1 UNK         0.0600 
    235 H235       -6.1959  -18.4048  -52.6233 H         1 UNK         0.3000 
    236 H236       -7.9786  -19.1279  -54.7187 H         1 UNK         0.0600 
    237 H237       -7.6300  -20.4353  -52.6027 H         1 UNK         0.0600 
    238 H238       -7.4070  -21.4402  -54.0272 H         1 UNK         0.0600 
    239 H239       -6.0031  -20.8581  -53.1438 H         1 UNK         0.0600 
    240 H240       -4.4994  -18.5867  -54.8137 H         1 UNK         0.3000 
    241 H241       -4.5551  -19.3106  -57.6559 H         1 UNK         0.0600 
    242 H242       -3.2948  -17.1001  -55.1669 H         1 UNK         0.3800 
    243 H243       -2.6136  -16.0367  -56.3726 H         1 UNK         0.3800 
    244 H244       -2.8367  -20.7711  -57.7505 H         1 UNK         0.0800 
    245 H245       -3.4805  -21.2536  -56.2197 H         1 UNK         0.0800 
    246 H246       -2.6171  -19.9399  -53.9954 H         1 UNK         0.0800 
    247 H247       -1.6917  -21.4181  -54.0067 H         1 UNK         0.0800 
@<TRIPOS>BOND
     1    1    2 1    
     2    1  127 1    
     3    1  128 1    
     4    1  129 1    
     5    2    3 2    
     6    2    4 am   BACKBONE|DICT|INTERRES
     7    4    5 1    
     8    4  130 1    
     9    5    6 1    
    10    5   65 1    
    11    5  131 1    
    12    6    7 1    
    13    6  132 1    
    14    6  133 1    
    15    7    8 1    
    16    8    9 1    
    17    8  134 1    
    18    8  135 1    
    19    9   10 ar   
    20    9   14 ar   
    21   10   11 ar   
    22   10  136 1    
    23   11   12 ar   
    24   11  126 1    
    25   12   13 ar   
    26   12  137 1    
    27   13   14 ar   
    28   13   15 1    
    29   14  138 1    
    30   15   16 1    
    31   15  139 1    
    32   15  140 1    
    33   16   17 1    
    34   17   18 1    
    35   17  141 1    
    36   17  142 1    
    37   18   19 1    
    38   18   67 1    
    39   18  143 1    
    40   19   20 am   BACKBONE|DICT|INTERRES
    41   19  144 1    
    42   20   21 2    
    43   20   22 1    
    44   22   23 1    
    45   22   24 1    
    46   22  145 1    
    47   23  146 1    
    48   23  147 1    
    49   23  148 1    
    50   24   25 am   BACKBONE|DICT|INTERRES
    51   24  149 1    
    52   25   26 2    
    53   25   27 1    
    54   27   28 1    
    55   27   29 1    
    56   27  150 1    
    57   28  151 1    
    58   28  152 1    
    59   28  153 1    
    60   29   30 am   BACKBONE|DICT|INTERRES
    61   29  154 1    
    62   30   31 2    
    63   30   32 1    
    64   32   33 1    
    65   32   34 1    
    66   32  155 1    
    67   33  156 1    
    68   33  157 1    
    69   33  158 1    
    70   34   35 am   BACKBONE|DICT|INTERRES
    71   34  159 1    
    72   35   36 2    
    73   35   37 1    
    74   37   38 1    
    75   37   39 1    
    76   37  160 1    
    77   38  161 1    
    78   38  162 1    
    79   38  163 1    
    80   39   40 am   BACKBONE|DICT|INTERRES
    81   39  164 1    
    82   40   41 2    
    83   40   42 1    
    84   42   43 1    
    85   42   44 1    
    86   42  165 1    
    87   43  166 1    
    88   43  167 1    
    89   43  168 1    
    90   44   45 am   BACKBONE|DICT|INTERRES
    91   44  169 1    
    92   45   46 2    
    93   45   47 1    
    94   47   48 1    
    95   47   49 1    
    96   47  170 1    
    97   48  171 1    
    98   48  172 1    
    99   48  173 1    
   100   49   50 am   BACKBONE|DICT|INTERRES
   101   49  174 1    
   102   50   51 2    
   103   50   52 1    
   104   52   53 1    
   105   52   54 1    
   106   52  175 1    
   107   53  176 1    
   108   53  177 1    
   109   53  178 1    
   110   54   55 am   BACKBONE|DICT|INTERRES
   111   54  179 1    
   112   55   56 2    
   113   55   57 1    
   114   57   58 1    
   115   57   59 1    
   116   57  180 1    
   117   58  181 1    
   118   58  182 1    
   119   58  183 1    
   120   59   60 am   BACKBONE|DICT|INTERRES
   121   59  184 1    
   122   60   61 2    
   123   60   62 1    
   124   62   63 1    
   125   62   64 1    
   126   62  185 1    
   127   63  186 1    
   128   63  187 1    
   129   63  188 1    
   130   64   65 am   BACKBONE|DICT|INTERRES
   131   64  189 1    
   132   65   66 2    
   133   67   68 2    
   134   67   69 am   BACKBONE|DICT|INTERRES
   135   69   70 1    
   136   69  190 1    
   137   70   71 1    
   138   70   72 1    
   139   70  191 1    
   140   71  192 1    
   141   71  193 1    
   142   71  194 1    
   143   72   73 2    
   144   72   74 am   BACKBONE|DICT|INTERRES
   145   74   75 1    
   146   74  195 1    
   147   75   76 1    
   148   75   77 1    
   149   75  196 1    
   150   76  197 1    
   151   76  198 1    
   152   76  199 1    
   153   77   78 2    
   154   77   79 am   BACKBONE|DICT|INTERRES
   155   79   80 1    
   156   79  200 1    
   157   80   81 1    
   158   80   82 1    
   159   80  201 1    
   160   81  202 1    
   161   81  203 1    
   162   81  204 1    
   163   82   83 2    
   164   82   84 am   BACKBONE|DICT|INTERRES
   165   84   85 1    
   166   84  205 1    
   167   85   86 1    
   168   85   87 1    
   169   85  206 1    
   170   86  207 1    
   171   86  208 1    
   172   86  209 1    
   173   87   88 2    
   174   87   89 am   BACKBONE|DICT|INTERRES
   175   89   90 1    
   176   89  210 1    
   177   90   91 1    
   178   90   92 1    
   179   90  211 1    
   180   91  212 1    
   181   91  213 1    
   182   91  214 1    
   183   92   93 2    
   184   92   94 am   BACKBONE|DICT|INTERRES
   185   94   95 1    
   186   94  215 1    
   187   95   96 1    
   188   95   97 1    
   189   95  216 1    
   190   96  217 1    
   191   96  218 1    
   192   96  219 1    
   193   97   98 2    
   194   97   99 am   BACKBONE|DICT|INTERRES
   195   99  100 1    
   196   99  220 1    
   197  100  101 1    
   198  100  102 1    
   199  100  221 1    
   200  101  222 1    
   201  101  223 1    
   202  101  224 1    
   203  102  103 2    
   204  102  104 am   BACKBONE|DICT|INTERRES
   205  104  105 1    
   206  104  225 1    
   207  105  106 1    
   208  105  107 1    
   209  105  226 1    
   210  106  227 1    
   211  106  228 1    
   212  106  229 1    
   213  107  108 2    
   214  107  109 am   BACKBONE|DICT|INTERRES
   215  109  110 1    
   216  109  230 1    
   217  110  111 1    
   218  110  112 1    
   219  110  231 1    
   220  111  232 1    
   221  111  233 1    
   222  111  234 1    
   223  112  113 2    
   224  112  114 am   BACKBONE|DICT|INTERRES
   225  114  115 1    
   226  114  235 1    
   227  115  116 1    
   228  115  117 1    
   229  115  236 1    
   230  116  237 1    
   231  116  238 1    
   232  116  239 1    
   233  117  118 2    
   234  117  119 am   BACKBONE|DICT|INTERRES
   235  119  120 1    
   236  119  240 1    
   237  120  121 1    
   238  120  124 1    
   239  120  241 1    
   240  121  122 am   BACKBONE|DICT|INTERRES
   241  121  123 2    
   242  122  242 1    
   243  122  243 1    
   244  124  125 1    
   245  124  244 1    
   246  124  245 1    
   247  125  126 1    
   248  126  246 1    
   249  126  247 1    
@<TRIPOS>SUBSTRUCTURE
     1 UNK         1 GROUP             0       ****    0 ROOT    
