@<TRIPOS>MOLECULE
3R540
247   249    1
SMALL
USER_CHARGES


@<TRIPOS>ATOM
      1 CA         -0.0744  -13.0386  -49.4633 C.3       0 UNK        -0.1800 
      2 C           1.2431  -12.9606  -48.7056 C.2       0 UNK         0.5000 
      3 O           1.2554  -13.0875  -47.4804 O.2       0 UNK        -0.5000 
      4 N           2.3474  -12.7337  -49.4271 N.am      1 UNK        -0.5000 
      5 CA          3.7457  -12.6639  -48.9683 C.3       1 UNK         0.1400 
      6 C6          4.2734  -13.9518  -48.2779 C.3       23 UNK        -0.0398 
      7 S7          3.9185  -15.4802  -49.2121 S.3       23 UNK        -0.2404 
      8 C8          2.9283  -16.3941  -47.9895 C.3       23 UNK        -0.0205 
      9 C9          2.0539  -17.4438  -48.6510 C.ar      23 UNK        -0.0193 
     10 C10         0.7056  -17.1703  -48.8902 C.ar      23 UNK        -0.1150 
     11 C11        -0.1268  -18.1441  -49.4455 C.ar      23 UNK        -0.0193 
     12 C12         0.4072  -19.3871  -49.7902 C.ar      23 UNK        -0.1150 
     13 C13         1.7594  -19.6717  -49.5728 C.ar      23 UNK        -0.0193 
     14 C14         2.5768  -18.6940  -48.9957 C.ar      23 UNK        -0.1150 
     15 C15         2.3534  -21.0146  -49.9878 C.3       23 UNK        -0.0205 
     16 S16         1.3579  -22.4541  -49.4737 S.3       23 UNK        -0.2404 
     17 C17         1.5104  -22.3667  -47.6573 C.3       23 UNK        -0.0398 
     18 CA          0.6784  -23.4513  -46.9311 C.3       11 UNK         0.1400 
     19 N           1.0620  -23.5909  -45.5235 N.am      11 UNK        -0.5000 
     20 C           0.6893  -24.6171  -44.7431 C.2       10 UNK         0.5000 
     21 O           0.0111  -25.5592  -45.1471 O.2       10 UNK        -0.5000 
     22 CA          1.0955  -24.5784  -43.2572 C.3       10 UNK         0.1400 
     23 CB          2.4131  -25.3370  -43.0426 C.3       10 UNK        -0.1800 
     24 N           1.2260  -23.2270  -42.7142 N.am      10 UNK        -0.5000 
     25 C           0.2485  -22.3126  -42.6621 C.2       9 UNK         0.5000 
     26 O          -0.9023  -22.5216  -43.0520 O.2       9 UNK        -0.5000 
     27 CA          0.6345  -20.9092  -42.1506 C.3       9 UNK         0.1400 
     28 CB          1.9547  -20.8683  -41.3501 C.3       9 UNK        -0.1800 
     29 N           0.6834  -19.9339  -43.2411 N.am      9 UNK        -0.5000 
     30 C           1.3707  -20.0256  -44.3912 C.2       8 UNK         0.5000 
     31 O           2.0859  -20.9788  -44.7036 O.2       8 UNK        -0.5000 
     32 CA          1.2106  -18.8522  -45.3695 C.3       8 UNK         0.1400 
     33 CB         -0.1825  -18.9004  -46.0116 C.3       8 UNK        -0.1800 
     34 N           1.3862  -17.5541  -44.7238 N.am      8 UNK        -0.5000 
     35 C           2.5132  -17.1107  -44.1501 C.2       7 UNK         0.5000 
     36 O           3.5709  -17.7400  -44.1299 O.2       7 UNK        -0.5000 
     37 CA          2.4403  -15.7285  -43.4792 C.3       7 UNK         0.1400 
     38 CB          2.6995  -14.6102  -44.4998 C.3       7 UNK        -0.1800 
     39 N           1.1431  -15.5190  -42.8348 N.am      7 UNK        -0.5000 
     40 C           0.8446  -15.9469  -41.5998 C.2       6 UNK         0.5000 
     41 O           1.6631  -16.4670  -40.8411 O.2       6 UNK        -0.5000 
     42 CA         -0.6142  -15.7857  -41.1306 C.3       6 UNK         0.1400 
     43 CB         -0.7924  -14.4794  -40.3436 C.3       6 UNK        -0.1800 
     44 N          -1.5789  -15.8251  -42.2307 N.am      6 UNK        -0.5000 
     45 C          -1.9045  -16.9381  -42.9038 C.2       5 UNK         0.5000 
     46 O          -1.4306  -18.0474  -42.6575 O.2       5 UNK        -0.5000 
     47 CA         -2.8920  -16.7849  -44.0781 C.3       5 UNK         0.1400 
     48 CB         -4.3360  -16.9792  -43.5940 C.3       5 UNK        -0.1800 
     49 N          -2.7880  -15.5084  -44.7896 N.am      5 UNK        -0.5000 
     50 C          -1.6778  -15.0306  -45.3683 C.2       4 UNK         0.5000 
     51 O          -0.5927  -15.6114  -45.3366 O.2       4 UNK        -0.5000 
     52 CA         -1.7658  -13.6642  -46.0730 C.3       4 UNK         0.1400 
     53 CB         -3.1833  -13.0505  -46.1134 C.3       4 UNK        -0.1800 
     54 N          -0.8035  -12.7116  -45.5112 N.am      4 UNK        -0.5000 
     55 C          -0.7349  -12.2972  -44.2377 C.2       3 UNK         0.5000 
     56 O          -1.4993  -12.6942  -43.3562 O.2       3 UNK        -0.5000 
     57 CA          0.3575  -11.2714  -43.8796 C.3       3 UNK         0.1400 
     58 CB          0.9495  -11.5172  -42.4775 C.3       3 UNK        -0.1800 
     59 N           1.4452  -11.2010  -44.8646 N.am      3 UNK        -0.5000 
     60 C           2.0989  -10.0673  -45.1663 C.2       2 UNK         0.5000 
     61 O           1.7584   -8.9566  -44.7566 O.2       2 UNK        -0.5000 
     62 CA          3.3577  -10.1729  -46.0434 C.3       2 UNK         0.1400 
     63 CB          4.6017  -10.3721  -45.1553 C.3       2 UNK        -0.1800 
     64 N           3.2525  -11.2473  -47.0267 N.am      2 UNK        -0.5000 
     65 C           4.0416  -11.4281  -48.0907 C.2       1 UNK         0.5000 
     66 O           4.9686  -10.6755  -48.3939 O.2       1 UNK        -0.5000 
     67 C          -0.8402  -23.2193  -47.0836 C.2       11 UNK         0.5000 
     68 O          -1.4578  -23.8281  -47.9597 O.2       11 UNK        -0.5000 
     69 N          -1.4279  -22.3887  -46.2077 N.am      12 UNK        -0.5000 
     70 CA         -2.8697  -22.1259  -46.1741 C.3       12 UNK         0.1400 
     71 CB         -3.1738  -20.8802  -45.3281 C.3       12 UNK        -0.1800 
     72 C          -3.6819  -23.3379  -45.6921 C.2       12 UNK         0.5000 
     73 O          -4.7831  -23.5639  -46.1938 O.2       12 UNK        -0.5000 
     74 N          -3.1114  -24.1118  -44.7588 N.am      13 UNK        -0.5000 
     75 CA         -3.6675  -25.3860  -44.3050 C.3       13 UNK         0.1400 
     76 CB         -2.9205  -25.8523  -43.0462 C.3       13 UNK        -0.1800 
     77 C          -3.6259  -26.4670  -45.4037 C.2       13 UNK         0.5000 
     78 O          -4.5745  -27.2430  -45.5241 O.2       13 UNK        -0.5000 
     79 N          -2.5341  -26.4935  -46.1813 N.am      14 UNK        -0.5000 
     80 CA         -2.3104  -27.4324  -47.2766 C.3       14 UNK         0.1400 
     81 CB         -0.8284  -27.4163  -47.6858 C.3       14 UNK        -0.1800 
     82 C          -3.2191  -27.1735  -48.4902 C.2       14 UNK         0.5000 
     83 O          -3.9394  -28.0861  -48.8992 O.2       14 UNK        -0.5000 
     84 N          -3.1576  -25.9610  -49.0616 N.am      15 UNK        -0.5000 
     85 CA         -3.8444  -25.6406  -50.3194 C.3       15 UNK         0.1400 
     86 CB         -3.0784  -26.2634  -51.5053 C.3       15 UNK        -0.1800 
     87 C          -4.0604  -24.1416  -50.5831 C.2       15 UNK         0.5000 
     88 O          -4.8537  -23.8196  -51.4683 O.2       15 UNK        -0.5000 
     89 N          -3.3477  -23.2504  -49.8779 N.am      16 UNK        -0.5000 
     90 CA         -3.2805  -21.8060  -50.1318 C.3       16 UNK         0.1400 
     91 CB         -4.6155  -21.1076  -49.8060 C.3       16 UNK        -0.1800 
     92 C          -2.7438  -21.5173  -51.5479 C.2       16 UNK         0.5000 
     93 O          -3.4668  -21.0287  -52.4220 O.2       16 UNK        -0.5000 
     94 N          -1.4730  -21.8991  -51.7304 N.am      17 UNK        -0.5000 
     95 CA         -0.6216  -21.7799  -52.9159 C.3       17 UNK         0.1400 
     96 CB         -0.4924  -20.3215  -53.3989 C.3       17 UNK        -0.1800 
     97 C          -0.9996  -22.7378  -54.0577 C.2       17 UNK         0.5000 
     98 O          -0.1386  -23.4934  -54.5102 O.2       17 UNK        -0.5000 
     99 N          -2.2613  -22.7057  -54.4982 N.am      18 UNK        -0.5000 
    100 CA        -2.7689  -23.4935  -55.6208 C.3       18 UNK         0.1400 
    101 CB        -2.1852  -22.9830  -56.9577 C.3       18 UNK        -0.1800 
    102 C         -4.3046  -23.5055  -55.6055 C.2       18 UNK         0.5000 
    103 O         -4.9333  -22.9743  -56.5212 O.2       18 UNK        -0.5000 
    104 N         -4.8747  -24.1093  -54.5533 N.am      19 UNK        -0.5000 
    105 CA        -6.3112  -24.2989  -54.3152 C.3       19 UNK         0.1400 
    106 CB        -6.9376  -25.2106  -55.3924 C.3       19 UNK        -0.1800 
    107 C         -7.0464  -22.9550  -54.1500 C.2       19 UNK         0.5000 
    108 O         -7.9062  -22.6075  -54.9622 O.2       19 UNK        -0.5000 
    109 N         -6.6627  -22.2221  -53.0954 N.am      20 UNK        -0.5000 
    110 CA        -7.1605  -20.8932  -52.7183 C.3       20 UNK         0.1400 
    111 CB        -8.6633  -20.9313  -52.3692 C.3       20 UNK        -0.1800 
    112 C         -6.7973  -19.7956  -53.7373 C.2       20 UNK         0.5000 
    113 O         -7.5565  -18.8418  -53.9205 O.2       20 UNK        -0.5000 
    114 N         -5.6102  -19.9183  -54.3472 N.am      21 UNK        -0.5000 
    115 CA        -5.0503  -18.9457  -55.2910 C.3       21 UNK         0.1400 
    116 CB        -3.8201  -19.5502  -55.9801 C.3       21 UNK        -0.1800 
    117 C         -4.7105  -17.5924  -54.6369 C.2       21 UNK         0.5000 
    118 O         -4.7085  -16.5699  -55.3235 O.2       21 UNK        -0.5000 
    119 N         -4.4764  -17.6069  -53.3188 N.am      22 UNK        -0.5000 
    120 CA        -4.3655  -16.4113  -52.4695 C.3       22 UNK         0.1400 
    121 C         -5.7152  -15.6686  -52.2217 C.2       22 UNK         0.5000 
    122 N         -6.8690  -16.2020  -52.6096 N.am      22 UNK        -0.7600 
    123 O         -5.7149  -14.5731  -51.6672 O.2       22 UNK        -0.5000 
    124 C124       -3.6669  -16.7312  -51.1244 C.3       23 UNK        -0.0398 
    125 S125       -1.9617  -17.3355  -51.3403 S.3       23 UNK        -0.2404 
    126 C126       -1.6064  -17.8627  -49.6400 C.3       23 UNK        -0.0205 
    127 H127        0.0536  -12.8125  -50.5220 H         1 UNK         0.0600 
    128 H128       -0.7886  -12.3272  -49.0489 H         1 UNK         0.0600 
    129 H129       -0.4974  -14.0393  -49.3804 H         1 UNK         0.0600 
    130 H130        2.2401  -12.6140  -50.4244 H         1 UNK         0.3000 
    131 H131        4.3293  -12.5351  -49.8815 H         1 UNK         0.0600 
    132 H132        3.8657  -14.0384  -47.2710 H         1 UNK         0.0800 
    133 H133        5.3556  -13.8884  -48.1516 H         1 UNK         0.0800 
    134 H134        3.5912  -16.8629  -47.2607 H         1 UNK         0.0800 
    135 H135        2.2960  -15.7041  -47.4289 H         1 UNK         0.0800 
    136 H136        0.2971  -16.2089  -48.6133 H         1 UNK         0.1150 
    137 H137       -0.2343  -20.1334  -50.2289 H         1 UNK         0.1150 
    138 H138        3.6230  -18.8997  -48.8179 H         1 UNK         0.1150 
    139 H139        2.4456  -21.0265  -51.0744 H         1 UNK         0.0800 
    140 H140        3.3638  -21.1298  -49.5924 H         1 UNK         0.0800 
    141 H141        2.5664  -22.4870  -47.4111 H         1 UNK         0.0800 
    142 H142        1.2354  -21.3685  -47.3192 H         1 UNK         0.0800 
    143 H143        0.9034  -24.4067  -47.4103 H         1 UNK         0.0600 
    144 H144        1.5897  -22.8239  -45.1154 H         1 UNK         0.3000 
    145 H145        0.3130  -25.0859  -42.6902 H         1 UNK         0.0600 
    146 H146        2.6674  -25.3955  -41.9841 H         1 UNK         0.0600 
    147 H147        2.3400  -26.3598  -43.4148 H         1 UNK         0.0600 
    148 H148        3.2429  -24.8566  -43.5625 H         1 UNK         0.0600 
    149 H149        2.1492  -22.9512  -42.4127 H         1 UNK         0.3000 
    150 H150       -0.1697  -20.5928  -41.4847 H         1 UNK         0.0600 
    151 H151        1.9353  -21.5749  -40.5194 H         1 UNK         0.0600 
    152 H152        2.1144  -19.8775  -40.9239 H         1 UNK         0.0600 
    153 H153        2.8227  -21.0991  -41.9687 H         1 UNK         0.0600 
    154 H154        0.0700  -19.1326  -43.1143 H         1 UNK         0.3000 
    155 H155        1.9664  -18.9456  -46.1506 H         1 UNK         0.0600 
    156 H156       -0.2849  -19.7501  -46.6850 H         1 UNK         0.0600 
    157 H157       -0.3941  -18.0012  -46.5858 H         1 UNK         0.0600 
    158 H158       -0.9567  -18.9841  -45.2531 H         1 UNK         0.0600 
    159 H159        0.5925  -16.9206  -44.7697 H         1 UNK         0.3000 
    160 H160        3.2320  -15.6813  -42.7282 H         1 UNK         0.0600 
    161 H161        1.9099  -14.5530  -45.2492 H         1 UNK         0.0600 
    162 H162        3.6418  -14.7766  -45.0224 H         1 UNK         0.0600 
    163 H163        2.7742  -13.6418  -44.0076 H         1 UNK         0.0600 
    164 H164        0.3979  -15.1634  -43.4193 H         1 UNK         0.3000 
    165 H165       -0.8336  -16.6159  -40.4556 H         1 UNK         0.0600 
    166 H166       -1.8035  -14.3935  -39.9453 H         1 UNK         0.0600 
    167 H167       -0.1048  -14.4352  -39.4981 H         1 UNK         0.0600 
    168 H168       -0.6026  -13.6062  -40.9662 H         1 UNK         0.0600 
    169 H169       -1.9767  -14.9412  -42.5217 H         1 UNK         0.3000 
    170 H170       -2.6742  -17.5732  -44.7987 H         1 UNK         0.0600 
    171 H171       -4.4512  -17.9370  -43.0845 H         1 UNK         0.0600 
    172 H172       -4.6350  -16.1967  -42.8954 H         1 UNK         0.0600 
    173 H173       -5.0370  -16.9716  -44.4288 H         1 UNK         0.0600 
    174 H174       -3.6278  -14.9500  -44.8354 H         1 UNK         0.3000 
    175 H175       -1.4595  -13.8470  -47.1021 H         1 UNK         0.0600 
    176 H176       -3.5728  -12.8390  -45.1170 H         1 UNK         0.0600 
    177 H177       -3.1813  -12.1129  -46.6694 H         1 UNK         0.0600 
    178 H178       -3.8876  -13.7149  -46.6157 H         1 UNK         0.0600 
    179 H179       -0.0847  -12.4135  -46.1601 H         1 UNK         0.3000 
    180 H180       -0.1644  -10.3127  -43.8554 H         1 UNK         0.0600 
    181 H181        1.3986  -12.5071  -42.3968 H         1 UNK         0.0600 
    182 H182        0.1805  -11.4401  -41.7084 H         1 UNK         0.0600 
    183 H183        1.7153  -10.7807  -42.2340 H         1 UNK         0.0600 
    184 H184        1.7776  -12.0825  -45.2273 H         1 UNK         0.3000 
    185 H185        3.4574   -9.2277  -46.5811 H         1 UNK         0.0600 
    186 H186        4.6625   -9.5998  -44.3873 H         1 UNK         0.0600 
    187 H187        4.5808  -11.3380  -44.6491 H         1 UNK         0.0600 
    188 H188        5.5228  -10.3181  -45.7352 H         1 UNK         0.0600 
    189 H189        2.4592  -11.8786  -46.9438 H         1 UNK         0.3000 
    190 H190       -0.8781  -21.9981  -45.4561 H         1 UNK         0.3000 
    191 H191       -3.1988  -21.9157  -47.1913 H         1 UNK         0.0600 
    192 H192       -2.8798  -19.9754  -45.8569 H         1 UNK         0.0600 
    193 H193       -4.2425  -20.7890  -45.1288 H         1 UNK         0.0600 
    194 H194       -2.6620  -20.9006  -44.3656 H         1 UNK         0.0600 
    195 H195       -2.2253  -23.8243  -44.3631 H         1 UNK         0.3000 
    196 H196       -4.7132  -25.2220  -44.0358 H         1 UNK         0.0600 
    197 H197       -3.3684  -26.7618  -42.6442 H         1 UNK         0.0600 
    198 H198       -2.9567  -25.0964  -42.2615 H         1 UNK         0.0600 
    199 H199       -1.8733  -26.0698  -43.2546 H         1 UNK         0.0600 
    200 H200       -1.7638  -25.8716  -45.9594 H         1 UNK         0.3000 
    201 H201       -2.5358  -28.4347  -46.9060 H         1 UNK         0.0600 
    202 H202       -0.1895  -27.7256  -46.8585 H         1 UNK         0.0600 
    203 H203       -0.5044  -26.4257  -48.0048 H         1 UNK         0.0600 
    204 H204       -0.6432  -28.1040  -48.5119 H         1 UNK         0.0600 
    205 H205       -2.5536  -25.2541  -48.6542 H         1 UNK         0.3000 
    206 H206       -4.8444  -26.0783  -50.2863 H         1 UNK         0.0600 
    207 H207       -3.0179  -27.3483  -51.4207 H         1 UNK         0.0600 
    208 H208       -3.5721  -26.0489  -52.4535 H         1 UNK         0.0600 
    209 H209       -2.0607  -25.8761  -51.5691 H         1 UNK         0.0600 
    210 H210       -2.6918  -23.5859  -49.1765 H         1 UNK         0.3000 
    211 H211       -2.5361  -21.3997  -49.4453 H         1 UNK         0.0600 
    212 H212       -5.4616  -21.6083  -50.2694 H         1 UNK         0.0600 
    213 H213       -4.6137  -20.0690  -50.1387 H         1 UNK         0.0600 
    214 H214       -4.8002  -21.1015  -48.7325 H         1 UNK         0.0600 
    215 H215       -1.0214  -22.3606  -50.9528 H         1 UNK         0.3000 
    216 H216        0.3720  -22.0858  -52.5841 H         1 UNK         0.0600 
    217 H217        0.1319  -20.2597  -54.2908 H         1 UNK         0.0600 
    218 H218       -0.0272  -19.6954  -52.6385 H         1 UNK         0.0600 
    219 H219       -1.4549  -19.8763  -53.6445 H         1 UNK         0.0600 
    220 H220       -2.9155  -22.0893  -54.0261 H         1 UNK         0.3000 
    221 H221       -2.4506  -24.5300  -55.4900 H         1 UNK         0.0600 
    222 H222       -2.6157  -23.5193  -57.8043 H         1 UNK         0.0600 
    223 H223       -1.1067  -23.1302  -57.0070 H         1 UNK         0.0600 
    224 H224       -2.3807  -21.9216  -57.1058 H         1 UNK         0.0600 
    225 H225       -4.2741  -24.4447  -53.8136 H         1 UNK         0.3000 
    226 H226       -6.4048  -24.8248  -53.3641 H         1 UNK         0.0600 
    227 H227       -6.4153  -26.1654  -55.4516 H         1 UNK         0.0600 
    228 H228       -7.9808  -25.4252  -55.1582 H         1 UNK         0.0600 
    229 H229       -6.9150  -24.7546  -56.3825 H         1 UNK         0.0600 
    230 H230       -5.9430  -22.6163  -52.4926 H         1 UNK         0.3000 
    231 H231       -6.6344  -20.6109  -51.8097 H         1 UNK         0.0600 
    232 H232       -9.2822  -21.1151  -53.2475 H         1 UNK         0.0600 
    233 H233       -8.9873  -19.9839  -51.9370 H         1 UNK         0.0600 
    234 H234       -8.8778  -21.7098  -51.6370 H         1 UNK         0.0600 
    235 H235       -5.0186  -20.6934  -54.0812 H         1 UNK         0.3000 
    236 H236       -5.8033  -18.7507  -56.0573 H         1 UNK         0.0600 
    237 H237       -4.1062  -20.3994  -56.5987 H         1 UNK         0.0600 
    238 H238       -3.3367  -18.8242  -56.6351 H         1 UNK         0.0600 
    239 H239       -3.0785  -19.8905  -55.2592 H         1 UNK         0.0600 
    240 H240       -4.4555  -18.4994  -52.8469 H         1 UNK         0.3000 
    241 H241       -3.7345  -15.6956  -53.0001 H         1 UNK         0.0600 
    242 H242       -7.7221  -15.6935  -52.4390 H         1 UNK         0.3800 
    243 H243       -6.9140  -17.0947  -53.0869 H         1 UNK         0.3800 
    244 H244       -3.6175  -15.8406  -50.4949 H         1 UNK         0.0800 
    245 H245       -4.2416  -17.4722  -50.5663 H         1 UNK         0.0800 
    246 H246       -1.9313  -17.0894  -48.9417 H         1 UNK         0.0800 
    247 H247       -2.1900  -18.7539  -49.4058 H         1 UNK         0.0800 
@<TRIPOS>BOND
     1    1    2 1    
     2    1  127 1    
     3    1  128 1    
     4    1  129 1    
     5    2    3 2    
     6    2    4 am   BACKBONE|DICT|INTERRES
     7    4    5 1    
     8    4  130 1    
     9    5    6 1    
    10    5   65 1    
    11    5  131 1    
    12    6    7 1    
    13    6  132 1    
    14    6  133 1    
    15    7    8 1    
    16    8    9 1    
    17    8  134 1    
    18    8  135 1    
    19    9   10 ar   
    20    9   14 ar   
    21   10   11 ar   
    22   10  136 1    
    23   11   12 ar   
    24   11  126 1    
    25   12   13 ar   
    26   12  137 1    
    27   13   14 ar   
    28   13   15 1    
    29   14  138 1    
    30   15   16 1    
    31   15  139 1    
    32   15  140 1    
    33   16   17 1    
    34   17   18 1    
    35   17  141 1    
    36   17  142 1    
    37   18   19 1    
    38   18   67 1    
    39   18  143 1    
    40   19   20 am   BACKBONE|DICT|INTERRES
    41   19  144 1    
    42   20   21 2    
    43   20   22 1    
    44   22   23 1    
    45   22   24 1    
    46   22  145 1    
    47   23  146 1    
    48   23  147 1    
    49   23  148 1    
    50   24   25 am   BACKBONE|DICT|INTERRES
    51   24  149 1    
    52   25   26 2    
    53   25   27 1    
    54   27   28 1    
    55   27   29 1    
    56   27  150 1    
    57   28  151 1    
    58   28  152 1    
    59   28  153 1    
    60   29   30 am   BACKBONE|DICT|INTERRES
    61   29  154 1    
    62   30   31 2    
    63   30   32 1    
    64   32   33 1    
    65   32   34 1    
    66   32  155 1    
    67   33  156 1    
    68   33  157 1    
    69   33  158 1    
    70   34   35 am   BACKBONE|DICT|INTERRES
    71   34  159 1    
    72   35   36 2    
    73   35   37 1    
    74   37   38 1    
    75   37   39 1    
    76   37  160 1    
    77   38  161 1    
    78   38  162 1    
    79   38  163 1    
    80   39   40 am   BACKBONE|DICT|INTERRES
    81   39  164 1    
    82   40   41 2    
    83   40   42 1    
    84   42   43 1    
    85   42   44 1    
    86   42  165 1    
    87   43  166 1    
    88   43  167 1    
    89   43  168 1    
    90   44   45 am   BACKBONE|DICT|INTERRES
    91   44  169 1    
    92   45   46 2    
    93   45   47 1    
    94   47   48 1    
    95   47   49 1    
    96   47  170 1    
    97   48  171 1    
    98   48  172 1    
    99   48  173 1    
   100   49   50 am   BACKBONE|DICT|INTERRES
   101   49  174 1    
   102   50   51 2    
   103   50   52 1    
   104   52   53 1    
   105   52   54 1    
   106   52  175 1    
   107   53  176 1    
   108   53  177 1    
   109   53  178 1    
   110   54   55 am   BACKBONE|DICT|INTERRES
   111   54  179 1    
   112   55   56 2    
   113   55   57 1    
   114   57   58 1    
   115   57   59 1    
   116   57  180 1    
   117   58  181 1    
   118   58  182 1    
   119   58  183 1    
   120   59   60 am   BACKBONE|DICT|INTERRES
   121   59  184 1    
   122   60   61 2    
   123   60   62 1    
   124   62   63 1    
   125   62   64 1    
   126   62  185 1    
   127   63  186 1    
   128   63  187 1    
   129   63  188 1    
   130   64   65 am   BACKBONE|DICT|INTERRES
   131   64  189 1    
   132   65   66 2    
   133   67   68 2    
   134   67   69 am   BACKBONE|DICT|INTERRES
   135   69   70 1    
   136   69  190 1    
   137   70   71 1    
   138   70   72 1    
   139   70  191 1    
   140   71  192 1    
   141   71  193 1    
   142   71  194 1    
   143   72   73 2    
   144   72   74 am   BACKBONE|DICT|INTERRES
   145   74   75 1    
   146   74  195 1    
   147   75   76 1    
   148   75   77 1    
   149   75  196 1    
   150   76  197 1    
   151   76  198 1    
   152   76  199 1    
   153   77   78 2    
   154   77   79 am   BACKBONE|DICT|INTERRES
   155   79   80 1    
   156   79  200 1    
   157   80   81 1    
   158   80   82 1    
   159   80  201 1    
   160   81  202 1    
   161   81  203 1    
   162   81  204 1    
   163   82   83 2    
   164   82   84 am   BACKBONE|DICT|INTERRES
   165   84   85 1    
   166   84  205 1    
   167   85   86 1    
   168   85   87 1    
   169   85  206 1    
   170   86  207 1    
   171   86  208 1    
   172   86  209 1    
   173   87   88 2    
   174   87   89 am   BACKBONE|DICT|INTERRES
   175   89   90 1    
   176   89  210 1    
   177   90   91 1    
   178   90   92 1    
   179   90  211 1    
   180   91  212 1    
   181   91  213 1    
   182   91  214 1    
   183   92   93 2    
   184   92   94 am   BACKBONE|DICT|INTERRES
   185   94   95 1    
   186   94  215 1    
   187   95   96 1    
   188   95   97 1    
   189   95  216 1    
   190   96  217 1    
   191   96  218 1    
   192   96  219 1    
   193   97   98 2    
   194   97   99 am   BACKBONE|DICT|INTERRES
   195   99  100 1    
   196   99  220 1    
   197  100  101 1    
   198  100  102 1    
   199  100  221 1    
   200  101  222 1    
   201  101  223 1    
   202  101  224 1    
   203  102  103 2    
   204  102  104 am   BACKBONE|DICT|INTERRES
   205  104  105 1    
   206  104  225 1    
   207  105  106 1    
   208  105  107 1    
   209  105  226 1    
   210  106  227 1    
   211  106  228 1    
   212  106  229 1    
   213  107  108 2    
   214  107  109 am   BACKBONE|DICT|INTERRES
   215  109  110 1    
   216  109  230 1    
   217  110  111 1    
   218  110  112 1    
   219  110  231 1    
   220  111  232 1    
   221  111  233 1    
   222  111  234 1    
   223  112  113 2    
   224  112  114 am   BACKBONE|DICT|INTERRES
   225  114  115 1    
   226  114  235 1    
   227  115  116 1    
   228  115  117 1    
   229  115  236 1    
   230  116  237 1    
   231  116  238 1    
   232  116  239 1    
   233  117  118 2    
   234  117  119 am   BACKBONE|DICT|INTERRES
   235  119  120 1    
   236  119  240 1    
   237  120  121 1    
   238  120  124 1    
   239  120  241 1    
   240  121  122 am   BACKBONE|DICT|INTERRES
   241  121  123 2    
   242  122  242 1    
   243  122  243 1    
   244  124  125 1    
   245  124  244 1    
   246  124  245 1    
   247  125  126 1    
   248  126  246 1    
   249  126  247 1    
@<TRIPOS>SUBSTRUCTURE
     1 UNK         1 GROUP             0       ****    0 ROOT    
