@<TRIPOS>MOLECULE
3R540
247   249    1
SMALL
USER_CHARGES


@<TRIPOS>ATOM
      1 CA          2.9377  -15.1941  -45.4102 C.3       0 UNK        -0.1800 
      2 C           2.1010  -13.9255  -45.4516 C.2       0 UNK         0.5000 
      3 O           2.3474  -13.0000  -44.6784 O.2       0 UNK        -0.5000 
      4 N           1.1174  -13.8705  -46.3581 N.am      1 UNK        -0.5000 
      5 CA          0.1575  -12.7680  -46.5174 C.3       1 UNK         0.1400 
      6 C6         -1.0256  -13.1382  -47.4491 C.3       23 UNK        -0.0398 
      7 S7         -0.5148  -13.9299  -49.0166 S.3       23 UNK        -0.2404 
      8 C8         -1.0967  -15.6279  -48.7266 C.3       23 UNK        -0.0205 
      9 C9         -0.4395  -16.6144  -49.6749 C.ar      23 UNK        -0.0193 
     10 C10        -1.0502  -16.9497  -50.8856 C.ar      23 UNK        -0.1150 
     11 C11        -0.4837  -17.9051  -51.7359 C.ar      23 UNK        -0.0193 
     12 C12         0.7232  -18.5114  -51.3629 C.ar      23 UNK        -0.1150 
     13 C13         1.3494  -18.1744  -50.1596 C.ar      23 UNK        -0.0193 
     14 C14         0.7657  -17.2232  -49.3207 C.ar      23 UNK        -0.1150 
     15 C15         2.6454  -18.8578  -49.7552 C.3       23 UNK        -0.0205 
     16 S16         2.3689  -20.5858  -49.2590 S.3       23 UNK        -0.2404 
     17 C17         1.4096  -20.3830  -47.7196 C.3       23 UNK        -0.0398 
     18 CA          0.7973  -21.7241  -47.2525 C.3       11 UNK         0.1400 
     19 N           0.6548  -21.7925  -45.7983 N.am      11 UNK        -0.5000 
     20 C           0.4084  -22.9196  -45.1171 C.2       10 UNK         0.5000 
     21 O           0.3058  -24.0260  -45.6453 O.2       10 UNK        -0.5000 
     22 CA          0.1789  -22.7757  -43.6029 C.3       10 UNK         0.1400 
     23 CB          1.5117  -22.6627  -42.8476 C.3       10 UNK        -0.1800 
     24 N          -0.6690  -21.6243  -43.2933 N.am      10 UNK        -0.5000 
     25 C          -1.9645  -21.5354  -43.6265 C.2       9 UNK         0.5000 
     26 O          -2.5932  -22.4432  -44.1702 O.2       9 UNK        -0.5000 
     27 CA         -2.6599  -20.1929  -43.3440 C.3       9 UNK         0.1400 
     28 CB         -3.2004  -20.1519  -41.9072 C.3       9 UNK        -0.1800 
     29 N          -1.7731  -19.0501  -43.5676 N.am      9 UNK        -0.5000 
     30 C          -1.3669  -18.6371  -44.7781 C.2       8 UNK         0.5000 
     31 O          -1.6929  -19.1817  -45.8315 O.2       8 UNK        -0.5000 
     32 CA         -0.3941  -17.4430  -44.8152 C.3       8 UNK         0.1400 
     33 CB         -1.1783  -16.1301  -44.6705 C.3       8 UNK        -0.1800 
     34 N           0.6294  -17.5113  -43.7708 N.am      8 UNK        -0.5000 
     35 C           1.4821  -18.5344  -43.5980 C.2       7 UNK         0.5000 
     36 O           1.5786  -19.4716  -44.3893 O.2       7 UNK        -0.5000 
     37 CA          2.3276  -18.5612  -42.3071 C.3       7 UNK         0.1400 
     38 CB          3.7883  -18.1930  -42.6061 C.3       7 UNK        -0.1800 
     39 N           1.8262  -17.6926  -41.2406 N.am      7 UNK        -0.5000 
     40 C           0.6155  -17.7603  -40.6667 C.2       6 UNK         0.5000 
     41 O          -0.2114  -18.6367  -40.9223 O.2       6 UNK        -0.5000 
     42 CA          0.2431  -16.6195  -39.6972 C.3       6 UNK         0.1400 
     43 CB          0.3841  -17.0867  -38.2410 C.3       6 UNK        -0.1800 
     44 N           1.0319  -15.3945  -39.8868 N.am      6 UNK        -0.5000 
     45 C           1.0519  -14.6477  -41.0002 C.2       5 UNK         0.5000 
     46 O           0.4021  -14.9138  -42.0147 O.2       5 UNK        -0.5000 
     47 CA          2.0307  -13.4633  -40.9951 C.3       5 UNK         0.1400 
     48 CB          3.4405  -13.9386  -41.3825 C.3       5 UNK        -0.1800 
     49 N           1.6203  -12.4297  -41.9384 N.am      5 UNK        -0.5000 
     50 C           0.7704  -11.4314  -41.6684 C.2       4 UNK         0.5000 
     51 O           0.2153  -11.2874  -40.5772 O.2       4 UNK        -0.5000 
     52 CA          0.5233  -10.4178  -42.8097 C.3       4 UNK         0.1400 
     53 CB         -0.0475   -9.0722  -42.3163 C.3       4 UNK        -0.1800 
     54 N           1.7119  -10.2097  -43.6458 N.am      4 UNK        -0.5000 
     55 C           2.9160   -9.7512  -43.2670 C.2       3 UNK         0.5000 
     56 O           3.1541   -9.2872  -42.1512 O.2       3 UNK        -0.5000 
     57 CA          4.0635   -9.8648  -44.2916 C.3       3 UNK         0.1400 
     58 CB          5.1461  -10.8265  -43.7727 C.3       3 UNK        -0.1800 
     59 N           3.5988  -10.3624  -45.5880 N.am      3 UNK        -0.5000 
     60 C           3.3893   -9.6105  -46.6770 C.2       2 UNK         0.5000 
     61 O           3.6185   -8.4018  -46.7305 O.2       2 UNK        -0.5000 
     62 CA          2.8080  -10.3265  -47.9145 C.3       2 UNK         0.1400 
     63 CB          3.9363  -10.7747  -48.8556 C.3       2 UNK        -0.1800 
     64 N           1.9813  -11.4879  -47.5759 N.am      2 UNK        -0.5000 
     65 C           0.8102  -11.4302  -46.9258 C.2       1 UNK         0.5000 
     66 O           0.2704  -10.3754  -46.5925 O.2       1 UNK        -0.5000 
     67 C          -0.5245  -22.0568  -47.9800 C.2       11 UNK         0.5000 
     68 O          -0.4955  -22.7770  -48.9754 O.2       11 UNK        -0.5000 
     69 N          -1.6655  -21.5986  -47.4416 N.am      12 UNK        -0.5000 
     70 CA         -3.0054  -21.9369  -47.9320 C.3       12 UNK         0.1400 
     71 CB         -4.0577  -21.0972  -47.1918 C.3       12 UNK        -0.1800 
     72 C          -3.3402  -23.4367  -47.8115 C.2       12 UNK         0.5000 
     73 O          -4.0408  -23.9667  -48.6728 O.2       12 UNK        -0.5000 
     74 N          -2.8263  -24.0938  -46.7627 N.am      13 UNK        -0.5000 
     75 CA         -2.9389  -25.5383  -46.5614 C.3       13 UNK         0.1400 
     76 CB         -2.6733  -25.8712  -45.0852 C.3       13 UNK        -0.1800 
     77 C          -1.9983  -26.3374  -47.4849 C.2       13 UNK         0.5000 
     78 O          -2.3740  -27.4203  -47.9345 O.2       13 UNK        -0.5000 
     79 N          -0.7995  -25.7975  -47.7501 N.am      14 UNK        -0.5000 
     80 CA          0.1953  -26.3733  -48.6602 C.3       14 UNK         0.1400 
     81 CB          1.5578  -25.7109  -48.4048 C.3       14 UNK        -0.1800 
     82 C          -0.1981  -26.2473  -50.1461 C.2       14 UNK         0.5000 
     83 O           0.1850  -27.0995  -50.9496 O.2       14 UNK        -0.5000 
     84 N          -0.9510  -25.1913  -50.4794 N.am      15 UNK        -0.5000 
     85 CA         -1.5570  -24.9270  -51.7838 C.3       15 UNK         0.1400 
     86 CB         -2.1688  -23.5157  -51.7502 C.3       15 UNK        -0.1800 
     87 C          -2.6212  -25.9697  -52.1872 C.2       15 UNK         0.5000 
     88 O          -2.9840  -26.8443  -51.3958 O.2       15 UNK        -0.5000 
     89 N          -3.1260  -25.8427  -53.4220 N.am      16 UNK        -0.5000 
     90 CA         -4.1918  -26.6630  -54.0037 C.3       16 UNK         0.1400 
     91 CB         -4.2184  -26.4339  -55.5251 C.3       16 UNK        -0.1800 
     92 C          -5.5622  -26.3951  -53.3429 C.2       16 UNK         0.5000 
     93 O          -6.4361  -25.7737  -53.9463 O.2       16 UNK        -0.5000 
     94 N          -5.6957  -26.8430  -52.0897 N.am      17 UNK        -0.5000 
     95 CA         -6.8407  -26.7594  -51.1768 C.3       17 UNK         0.1400 
     96 CB         -8.1153  -27.3575  -51.8049 C.3       17 UNK        -0.1800 
     97 C          -7.1076  -25.3608  -50.5856 C.2       17 UNK         0.5000 
     98 O          -7.7381  -25.2845  -49.5296 O.2       17 UNK        -0.5000 
     99 N          -6.6320  -24.2894  -51.2310 N.am      18 UNK        -0.5000 
    100 CA        -6.7755  -22.9143  -50.7693 C.3       18 UNK         0.1400 
    101 CB        -8.1968  -22.4025  -51.0750 C.3       18 UNK        -0.1800 
    102 C         -5.7379  -22.0140  -51.4475 C.2       18 UNK         0.5000 
    103 O         -5.2973  -22.2978  -52.5663 O.2       18 UNK        -0.5000 
    104 N         -5.4389  -20.8840  -50.7935 N.am      19 UNK        -0.5000 
    105 CA        -4.6074  -19.8014  -51.3279 C.3       19 UNK         0.1400 
    106 CB        -4.2548  -18.8227  -50.1977 C.3       19 UNK        -0.1800 
    107 C         -5.2526  -19.0542  -52.5146 C.2       19 UNK         0.5000 
    108 O         -4.5436  -18.3865  -53.2655 O.2       19 UNK        -0.5000 
    109 N         -6.5741  -19.2027  -52.6882 N.am      20 UNK        -0.5000 
    110 CA        -7.3184  -18.7339  -53.8582 C.3       20 UNK         0.1400 
    111 CB        -8.8219  -18.9226  -53.6053 C.3       20 UNK        -0.1800 
    112 C         -6.8929  -19.4478  -55.1577 C.2       20 UNK         0.5000 
    113 O         -6.9135  -18.8283  -56.2219 O.2       20 UNK        -0.5000 
    114 N         -6.4975  -20.7238  -55.0423 N.am      21 UNK        -0.5000 
    115 CA        -5.9101  -21.5057  -56.1273 C.3       21 UNK         0.1400 
    116 CB        -6.2890  -22.9830  -55.9511 C.3       21 UNK        -0.1800 
    117 C         -4.3818  -21.3364  -56.1572 C.2       21 UNK         0.5000 
    118 O         -3.8128  -21.1655  -57.2350 O.2       21 UNK        -0.5000 
    119 N         -3.7492  -21.3860  -54.9750 N.am      22 UNK        -0.5000 
    120 CA        -2.2947  -21.2566  -54.7587 C.3       22 UNK         0.1400 
    121 C         -1.4472  -22.4830  -55.2292 C.2       22 UNK         0.5000 
    122 N         -2.0493  -23.5640  -55.7122 N.am      22 UNK        -0.7600 
    123 O         -0.2255  -22.4803  -55.1195 O.2       22 UNK        -0.5000 
    124 C124       -1.7311  -19.8908  -55.2542 C.3       23 UNK        -0.0398 
    125 S125       -0.3430  -19.2717  -54.2379 S.3       23 UNK        -0.2404 
    126 C126       -1.2539  -18.2911  -52.9984 C.3       23 UNK        -0.0205 
    127 H127        2.8271  -15.6724  -44.4387 H         1 UNK         0.0600 
    128 H128        3.9907  -14.9559  -45.5583 H         1 UNK         0.0600 
    129 H129        2.6347  -15.9077  -46.1766 H         1 UNK         0.0600 
    130 H130        0.9955  -14.6351  -47.0052 H         1 UNK         0.3000 
    131 H131       -0.2677  -12.5911  -45.5269 H         1 UNK         0.0600 
    132 H132       -1.6306  -12.2603  -47.6842 H         1 UNK         0.0800 
    133 H133       -1.7020  -13.8065  -46.9150 H         1 UNK         0.0800 
    134 H134       -2.1821  -15.6621  -48.8350 H         1 UNK         0.0800 
    135 H135       -0.8828  -15.9245  -47.6996 H         1 UNK         0.0800 
    136 H136       -1.9855  -16.4800  -51.1562 H         1 UNK         0.1150 
    137 H137        1.1754  -19.2686  -51.9863 H         1 UNK         0.1150 
    138 H138        1.2403  -16.9704  -48.3832 H         1 UNK         0.1150 
    139 H139        3.3388  -18.8382  -50.5971 H         1 UNK         0.0800 
    140 H140        3.1354  -18.3205  -48.9417 H         1 UNK         0.0800 
    141 H141        0.6397  -19.6189  -47.8362 H         1 UNK         0.0800 
    142 H142        2.1028  -20.0007  -46.9694 H         1 UNK         0.0800 
    143 H143        1.5043  -22.5157  -47.5098 H         1 UNK         0.0600 
    144 H144        0.7795  -20.9242  -45.2840 H         1 UNK         0.3000 
    145 H145       -0.3323  -23.6759  -43.2550 H         1 UNK         0.0600 
    146 H146        1.3509  -22.5781  -41.7727 H         1 UNK         0.0600 
    147 H147        2.1268  -23.5476  -43.0155 H         1 UNK         0.0600 
    148 H148        2.0918  -21.7984  -43.1700 H         1 UNK         0.0600 
    149 H149       -0.2256  -20.8259  -42.8638 H         1 UNK         0.3000 
    150 H150       -3.5077  -20.1053  -44.0267 H         1 UNK         0.0600 
    151 H151       -3.9033  -20.9675  -41.7329 H         1 UNK         0.0600 
    152 H152       -3.7292  -19.2192  -41.7109 H         1 UNK         0.0600 
    153 H153       -2.4011  -20.2458  -41.1713 H         1 UNK         0.0600 
    154 H154       -1.4050  -18.5941  -42.7412 H         1 UNK         0.3000 
    155 H155        0.1125  -17.4467  -45.7823 H         1 UNK         0.0600 
    156 H156       -1.7118  -16.0846  -43.7201 H         1 UNK         0.0600 
    157 H157       -1.9171  -16.0226  -45.4653 H         1 UNK         0.0600 
    158 H158       -0.5203  -15.2648  -44.7126 H         1 UNK         0.0600 
    159 H159        0.6138  -16.7676  -43.0819 H         1 UNK         0.3000 
    160 H160        2.3037  -19.5862  -41.9325 H         1 UNK         0.0600 
    161 H161        3.8885  -17.1531  -42.9168 H         1 UNK         0.0600 
    162 H162        4.1952  -18.8159  -43.4041 H         1 UNK         0.0600 
    163 H163        4.4183  -18.3414  -41.7289 H         1 UNK         0.0600 
    164 H164        2.4318  -16.9363  -40.9602 H         1 UNK         0.3000 
    165 H165       -0.8046  -16.3715  -39.8788 H         1 UNK         0.0600 
    166 H166        0.0400  -16.3212  -37.5453 H         1 UNK         0.0600 
    167 H167       -0.2128  -17.9813  -38.0578 H         1 UNK         0.0600 
    168 H168        1.4190  -17.3264  -37.9936 H         1 UNK         0.0600 
    169 H169        1.6078  -15.1149  -39.1053 H         1 UNK         0.3000 
    170 H170        2.0695  -13.0405  -39.9889 H         1 UNK         0.0600 
    171 H171        3.8105  -14.6912  -40.6853 H         1 UNK         0.0600 
    172 H172        3.4587  -14.3768  -42.3808 H         1 UNK         0.0600 
    173 H173        4.1500  -13.1109  -41.3703 H         1 UNK         0.0600 
    174 H174        1.9673  -12.5289  -42.8889 H         1 UNK         0.3000 
    175 H175       -0.2258  -10.8735  -43.4585 H         1 UNK         0.0600 
    176 H176       -1.0082   -9.2141  -41.8201 H         1 UNK         0.0600 
    177 H177        0.6184   -8.5846  -41.6040 H         1 UNK         0.0600 
    178 H178       -0.2111   -8.3861  -43.1473 H         1 UNK         0.0600 
    179 H179        1.6356  -10.5560  -44.5911 H         1 UNK         0.3000 
    180 H180        4.5076   -8.8731  -44.3979 H         1 UNK         0.0600 
    181 H181        4.7516  -11.8325  -43.6232 H         1 UNK         0.0600 
    182 H182        5.5503  -10.4871  -42.8182 H         1 UNK         0.0600 
    183 H183        5.9800  -10.8941  -44.4714 H         1 UNK         0.0600 
    184 H184        3.3620  -11.3469  -45.6197 H         1 UNK         0.3000 
    185 H185        2.1812   -9.6085  -48.4476 H         1 UNK         0.0600 
    186 H186        4.5579   -9.9283  -49.1509 H         1 UNK         0.0600 
    187 H187        4.5872  -11.5107  -48.3820 H         1 UNK         0.0600 
    188 H188        3.5366  -11.2167  -49.7685 H         1 UNK         0.0600 
    189 H189        2.3514  -12.3967  -47.8134 H         1 UNK         0.3000 
    190 H190       -1.6186  -20.9508  -46.6607 H         1 UNK         0.3000 
    191 H191       -3.0430  -21.6756  -48.9915 H         1 UNK         0.0600 
    192 H192       -3.8541  -20.0304  -47.2788 H         1 UNK         0.0600 
    193 H193       -5.0537  -21.2738  -47.5989 H         1 UNK         0.0600 
    194 H194       -4.0922  -21.3417  -46.1305 H         1 UNK         0.0600 
    195 H195       -2.3147  -23.5715  -46.0619 H         1 UNK         0.3000 
    196 H196       -3.9634  -25.8386  -46.7922 H         1 UNK         0.0600 
    197 H197       -3.3682  -25.3434  -44.4316 H         1 UNK         0.0600 
    198 H198       -2.7966  -26.9386  -44.8986 H         1 UNK         0.0600 
    199 H199       -1.6616  -25.6008  -44.7834 H         1 UNK         0.0600 
    200 H200       -0.5385  -24.9413  -47.2737 H         1 UNK         0.3000 
    201 H201        0.2883  -27.4370  -48.4315 H         1 UNK         0.0600 
    202 H202        1.8604  -25.8158  -47.3628 H         1 UNK         0.0600 
    203 H203        1.5381  -24.6476  -48.6437 H         1 UNK         0.0600 
    204 H204        2.3345  -26.1693  -49.0181 H         1 UNK         0.0600 
    205 H205       -1.1303  -24.4996  -49.7599 H         1 UNK         0.3000 
    206 H206       -0.7671  -24.9506  -52.5371 H         1 UNK         0.0600 
    207 H207       -1.3999  -22.7538  -51.6202 H         1 UNK         0.0600 
    208 H208       -2.7025  -23.2871  -52.6705 H         1 UNK         0.0600 
    209 H209       -2.8861  -23.4089  -50.9383 H         1 UNK         0.0600 
    210 H210       -2.7824  -25.0923  -54.0041 H         1 UNK         0.3000 
    211 H211       -3.9473  -27.7137  -53.8338 H         1 UNK         0.0600 
    212 H212       -4.4310  -25.3948  -55.7743 H         1 UNK         0.0600 
    213 H213       -4.9864  -27.0472  -55.9980 H         1 UNK         0.0600 
    214 H214       -3.2651  -26.7010  -55.9816 H         1 UNK         0.0600 
    215 H215       -4.8462  -27.2104  -51.6673 H         1 UNK         0.3000 
    216 H216       -6.5719  -27.3929  -50.3301 H         1 UNK         0.0600 
    217 H217       -8.9141  -27.4290  -51.0658 H         1 UNK         0.0600 
    218 H218       -7.9349  -28.3627  -52.1857 H         1 UNK         0.0600 
    219 H219       -8.4912  -26.7472  -52.6264 H         1 UNK         0.0600 
    220 H220       -6.1324  -24.4076  -52.1039 H         1 UNK         0.3000 
    221 H221       -6.5974  -22.8837  -49.6920 H         1 UNK         0.0600 
    222 H222       -8.4115  -22.4337  -52.1442 H         1 UNK         0.0600 
    223 H223       -8.9542  -22.9995  -50.5672 H         1 UNK         0.0600 
    224 H224       -8.3288  -21.3726  -50.7416 H         1 UNK         0.0600 
    225 H225       -5.8639  -20.7142  -49.8936 H         1 UNK         0.3000 
    226 H226       -3.6811  -20.2467  -51.6951 H         1 UNK         0.0600 
    227 H227       -3.5663  -19.2761  -49.4864 H         1 UNK         0.0600 
    228 H228       -3.7637  -17.9311  -50.5866 H         1 UNK         0.0600 
    229 H229       -5.1409  -18.4928  -49.6545 H         1 UNK         0.0600 
    230 H230       -7.0905  -19.7364  -52.0065 H         1 UNK         0.3000 
    231 H231       -7.1200  -17.6673  -53.9826 H         1 UNK         0.0600 
    232 H232       -9.1474  -18.3657  -52.7265 H         1 UNK         0.0600 
    233 H233       -9.0770  -19.9721  -53.4523 H         1 UNK         0.0600 
    234 H234       -9.4078  -18.5626  -54.4521 H         1 UNK         0.0600 
    235 H235       -6.4861  -21.1495  -54.1257 H         1 UNK         0.3000 
    236 H236       -6.3100  -21.1687  -57.0862 H         1 UNK         0.0600 
    237 H237       -5.8902  -23.5891  -56.7652 H         1 UNK         0.0600 
    238 H238       -5.9030  -23.3893  -55.0162 H         1 UNK         0.0600 
    239 H239       -7.3710  -23.1155  -55.9484 H         1 UNK         0.0600 
    240 H240       -4.2967  -21.5962  -54.1467 H         1 UNK         0.3000 
    241 H241       -2.2010  -21.2603  -53.6734 H         1 UNK         0.0600 
    242 H242       -3.0363  -23.5451  -55.9056 H         1 UNK         0.3800 
    243 H243       -1.4800  -24.3266  -56.0448 H         1 UNK         0.3800 
    244 H244       -1.4080  -19.9588  -56.2942 H         1 UNK         0.0800 
    245 H245       -2.5147  -19.1315  -55.2425 H         1 UNK         0.0800 
    246 H246       -2.1097  -18.8776  -52.6752 H         1 UNK         0.0800 
    247 H247       -1.6485  -17.3955  -53.4809 H         1 UNK         0.0800 
@<TRIPOS>BOND
     1    1    2 1    
     2    1  127 1    
     3    1  128 1    
     4    1  129 1    
     5    2    3 2    
     6    2    4 am   BACKBONE|DICT|INTERRES
     7    4    5 1    
     8    4  130 1    
     9    5    6 1    
    10    5   65 1    
    11    5  131 1    
    12    6    7 1    
    13    6  132 1    
    14    6  133 1    
    15    7    8 1    
    16    8    9 1    
    17    8  134 1    
    18    8  135 1    
    19    9   10 ar   
    20    9   14 ar   
    21   10   11 ar   
    22   10  136 1    
    23   11   12 ar   
    24   11  126 1    
    25   12   13 ar   
    26   12  137 1    
    27   13   14 ar   
    28   13   15 1    
    29   14  138 1    
    30   15   16 1    
    31   15  139 1    
    32   15  140 1    
    33   16   17 1    
    34   17   18 1    
    35   17  141 1    
    36   17  142 1    
    37   18   19 1    
    38   18   67 1    
    39   18  143 1    
    40   19   20 am   BACKBONE|DICT|INTERRES
    41   19  144 1    
    42   20   21 2    
    43   20   22 1    
    44   22   23 1    
    45   22   24 1    
    46   22  145 1    
    47   23  146 1    
    48   23  147 1    
    49   23  148 1    
    50   24   25 am   BACKBONE|DICT|INTERRES
    51   24  149 1    
    52   25   26 2    
    53   25   27 1    
    54   27   28 1    
    55   27   29 1    
    56   27  150 1    
    57   28  151 1    
    58   28  152 1    
    59   28  153 1    
    60   29   30 am   BACKBONE|DICT|INTERRES
    61   29  154 1    
    62   30   31 2    
    63   30   32 1    
    64   32   33 1    
    65   32   34 1    
    66   32  155 1    
    67   33  156 1    
    68   33  157 1    
    69   33  158 1    
    70   34   35 am   BACKBONE|DICT|INTERRES
    71   34  159 1    
    72   35   36 2    
    73   35   37 1    
    74   37   38 1    
    75   37   39 1    
    76   37  160 1    
    77   38  161 1    
    78   38  162 1    
    79   38  163 1    
    80   39   40 am   BACKBONE|DICT|INTERRES
    81   39  164 1    
    82   40   41 2    
    83   40   42 1    
    84   42   43 1    
    85   42   44 1    
    86   42  165 1    
    87   43  166 1    
    88   43  167 1    
    89   43  168 1    
    90   44   45 am   BACKBONE|DICT|INTERRES
    91   44  169 1    
    92   45   46 2    
    93   45   47 1    
    94   47   48 1    
    95   47   49 1    
    96   47  170 1    
    97   48  171 1    
    98   48  172 1    
    99   48  173 1    
   100   49   50 am   BACKBONE|DICT|INTERRES
   101   49  174 1    
   102   50   51 2    
   103   50   52 1    
   104   52   53 1    
   105   52   54 1    
   106   52  175 1    
   107   53  176 1    
   108   53  177 1    
   109   53  178 1    
   110   54   55 am   BACKBONE|DICT|INTERRES
   111   54  179 1    
   112   55   56 2    
   113   55   57 1    
   114   57   58 1    
   115   57   59 1    
   116   57  180 1    
   117   58  181 1    
   118   58  182 1    
   119   58  183 1    
   120   59   60 am   BACKBONE|DICT|INTERRES
   121   59  184 1    
   122   60   61 2    
   123   60   62 1    
   124   62   63 1    
   125   62   64 1    
   126   62  185 1    
   127   63  186 1    
   128   63  187 1    
   129   63  188 1    
   130   64   65 am   BACKBONE|DICT|INTERRES
   131   64  189 1    
   132   65   66 2    
   133   67   68 2    
   134   67   69 am   BACKBONE|DICT|INTERRES
   135   69   70 1    
   136   69  190 1    
   137   70   71 1    
   138   70   72 1    
   139   70  191 1    
   140   71  192 1    
   141   71  193 1    
   142   71  194 1    
   143   72   73 2    
   144   72   74 am   BACKBONE|DICT|INTERRES
   145   74   75 1    
   146   74  195 1    
   147   75   76 1    
   148   75   77 1    
   149   75  196 1    
   150   76  197 1    
   151   76  198 1    
   152   76  199 1    
   153   77   78 2    
   154   77   79 am   BACKBONE|DICT|INTERRES
   155   79   80 1    
   156   79  200 1    
   157   80   81 1    
   158   80   82 1    
   159   80  201 1    
   160   81  202 1    
   161   81  203 1    
   162   81  204 1    
   163   82   83 2    
   164   82   84 am   BACKBONE|DICT|INTERRES
   165   84   85 1    
   166   84  205 1    
   167   85   86 1    
   168   85   87 1    
   169   85  206 1    
   170   86  207 1    
   171   86  208 1    
   172   86  209 1    
   173   87   88 2    
   174   87   89 am   BACKBONE|DICT|INTERRES
   175   89   90 1    
   176   89  210 1    
   177   90   91 1    
   178   90   92 1    
   179   90  211 1    
   180   91  212 1    
   181   91  213 1    
   182   91  214 1    
   183   92   93 2    
   184   92   94 am   BACKBONE|DICT|INTERRES
   185   94   95 1    
   186   94  215 1    
   187   95   96 1    
   188   95   97 1    
   189   95  216 1    
   190   96  217 1    
   191   96  218 1    
   192   96  219 1    
   193   97   98 2    
   194   97   99 am   BACKBONE|DICT|INTERRES
   195   99  100 1    
   196   99  220 1    
   197  100  101 1    
   198  100  102 1    
   199  100  221 1    
   200  101  222 1    
   201  101  223 1    
   202  101  224 1    
   203  102  103 2    
   204  102  104 am   BACKBONE|DICT|INTERRES
   205  104  105 1    
   206  104  225 1    
   207  105  106 1    
   208  105  107 1    
   209  105  226 1    
   210  106  227 1    
   211  106  228 1    
   212  106  229 1    
   213  107  108 2    
   214  107  109 am   BACKBONE|DICT|INTERRES
   215  109  110 1    
   216  109  230 1    
   217  110  111 1    
   218  110  112 1    
   219  110  231 1    
   220  111  232 1    
   221  111  233 1    
   222  111  234 1    
   223  112  113 2    
   224  112  114 am   BACKBONE|DICT|INTERRES
   225  114  115 1    
   226  114  235 1    
   227  115  116 1    
   228  115  117 1    
   229  115  236 1    
   230  116  237 1    
   231  116  238 1    
   232  116  239 1    
   233  117  118 2    
   234  117  119 am   BACKBONE|DICT|INTERRES
   235  119  120 1    
   236  119  240 1    
   237  120  121 1    
   238  120  124 1    
   239  120  241 1    
   240  121  122 am   BACKBONE|DICT|INTERRES
   241  121  123 2    
   242  122  242 1    
   243  122  243 1    
   244  124  125 1    
   245  124  244 1    
   246  124  245 1    
   247  125  126 1    
   248  126  246 1    
   249  126  247 1    
@<TRIPOS>SUBSTRUCTURE
     1 UNK         1 GROUP             0       ****    0 ROOT    
