@<TRIPOS>MOLECULE
3R540
247   249    1
SMALL
USER_CHARGES


@<TRIPOS>ATOM
      1 CA          3.3353  -15.7452  -47.8991 C.3       0 UNK        -0.1800 
      2 C           1.9526  -15.2976  -48.3536 C.2       0 UNK         0.5000 
      3 O           1.8370  -14.2560  -48.9981 O.2       0 UNK        -0.5000 
      4 N           0.9268  -16.0970  -48.0293 N.am      1 UNK        -0.5000 
      5 CA         -0.5073  -15.8534  -48.2254 C.3       1 UNK         0.1400 
      6 C6         -0.9421  -15.5599  -49.6891 C.3       23 UNK        -0.0398 
      7 S7         -0.9233  -17.0700  -50.7196 S.3       23 UNK        -0.2404 
      8 C8          0.4424  -16.7738  -51.8894 C.3       23 UNK        -0.0205 
      9 C9          1.4119  -17.9444  -51.8792 C.ar      23 UNK        -0.0193 
     10 C10         1.2238  -19.0421  -52.7251 C.ar      23 UNK        -0.1150 
     11 C11         2.0870  -20.1416  -52.6573 C.ar      23 UNK        -0.0193 
     12 C12         3.1356  -20.1412  -51.7328 C.ar      23 UNK        -0.1150 
     13 C13         3.3194  -19.0572  -50.8734 C.ar      23 UNK        -0.0193 
     14 C14         2.4781  -17.9482  -50.9798 C.ar      23 UNK        -0.1150 
     15 C15         4.3818  -19.1041  -49.7860 C.3       23 UNK        -0.0205 
     16 S16         3.9270  -20.2212  -48.4115 S.3       23 UNK        -0.2404 
     17 C17         2.2571  -19.6582  -47.9226 C.3       23 UNK        -0.0398 
     18 CA          1.2975  -20.8501  -47.6632 C.3       11 UNK         0.1400 
     19 N           1.2696  -21.2159  -46.2444 N.am      11 UNK        -0.5000 
     20 C           0.6319  -22.2757  -45.7288 C.2       10 UNK         0.5000 
     21 O           0.0693  -23.1372  -46.4059 O.2       10 UNK        -0.5000 
     22 CA          0.5540  -22.3401  -44.1917 C.3       10 UNK         0.1400 
     23 CB          1.8578  -22.8889  -43.5937 C.3       10 UNK        -0.1800 
     24 N           0.2452  -21.0341  -43.6016 N.am      10 UNK        -0.5000 
     25 C          -0.9104  -20.3803  -43.7914 C.2       9 UNK         0.5000 
     26 O          -1.8604  -20.8556  -44.4108 O.2       9 UNK        -0.5000 
     27 CA         -1.0171  -18.9468  -43.2405 C.3       9 UNK         0.1400 
     28 CB         -1.4439  -18.9617  -41.7657 C.3       9 UNK        -0.1800 
     29 N           0.2244  -18.1900  -43.3819 N.am      9 UNK        -0.5000 
     30 C           0.7761  -17.8185  -44.5455 C.2       8 UNK         0.5000 
     31 O           0.2903  -18.0544  -45.6514 O.2       8 UNK        -0.5000 
     32 CA          2.1470  -17.1278  -44.4667 C.3       8 UNK         0.1400 
     33 CB          2.0042  -15.6300  -44.1647 C.3       8 UNK        -0.1800 
     34 N           3.0228  -17.7632  -43.4835 N.am      8 UNK        -0.5000 
     35 C           3.5133  -19.0054  -43.6075 C.2       7 UNK         0.5000 
     36 O           3.3018  -19.7294  -44.5805 O.2       7 UNK        -0.5000 
     37 CA          4.3404  -19.5398  -42.4247 C.3       7 UNK         0.1400 
     38 CB          5.7965  -19.0612  -42.5215 C.3       7 UNK        -0.1800 
     39 N           3.7820  -19.1416  -41.1312 N.am      7 UNK        -0.5000 
     40 C           2.6159  -19.5882  -40.6430 C.2       6 UNK         0.5000 
     41 O           1.9077  -20.4158  -41.2160 O.2       6 UNK        -0.5000 
     42 CA          2.1382  -18.9599  -39.3192 C.3       6 UNK         0.1400 
     43 CB          2.7872  -19.6642  -38.1185 C.3       6 UNK        -0.1800 
     44 N           2.3988  -17.5177  -39.2417 N.am      6 UNK        -0.5000 
     45 C           1.8672  -16.6152  -40.0755 C.2       5 UNK         0.5000 
     46 O           1.0949  -16.9096  -40.9922 O.2       5 UNK        -0.5000 
     47 CA          2.2994  -15.1535  -39.8942 C.3       5 UNK         0.1400 
     48 CB          3.7532  -14.9561  -40.3673 C.3       5 UNK        -0.1800 
     49 N           1.3944  -14.3339  -40.6897 N.am      5 UNK        -0.5000 
     50 C           1.2608  -13.0048  -40.6706 C.2       4 UNK         0.5000 
     51 O           1.9025  -12.2601  -39.9288 O.2       4 UNK        -0.5000 
     52 CA          0.2342  -12.4058  -41.6523 C.3       4 UNK         0.1400 
     53 CB          0.9345  -11.9190  -42.9305 C.3       4 UNK        -0.1800 
     54 N          -0.8185  -13.3527  -42.0281 N.am      4 UNK        -0.5000 
     55 C          -1.8556  -13.6982  -41.2556 C.2       3 UNK         0.5000 
     56 O          -2.0419  -13.2307  -40.1308 O.2       3 UNK        -0.5000 
     57 CA         -2.8510  -14.7233  -41.8476 C.3       3 UNK         0.1400 
     58 CB         -4.1480  -14.8349  -41.0260 C.3       3 UNK        -0.1800 
     59 N          -3.2024  -14.4416  -43.2444 N.am      3 UNK        -0.5000 
     60 C          -2.4450  -14.7454  -44.3047 C.2       2 UNK         0.5000 
     61 O          -1.3389  -15.2757  -44.1958 O.2       2 UNK        -0.5000 
     62 CA         -3.0271  -14.3885  -45.6900 C.3       2 UNK         0.1400 
     63 CB         -3.1226  -12.8619  -45.8914 C.3       2 UNK        -0.1800 
     64 N          -2.3103  -15.0380  -46.7971 N.am      2 UNK        -0.5000 
     65 C          -1.0538  -14.8169  -47.2162 C.2       1 UNK         0.5000 
     66 O          -0.3524  -13.8796  -46.8294 O.2       1 UNK        -0.5000 
     67 C          -0.1239  -20.5810  -48.2081 C.2       11 UNK         0.5000 
     68 O          -0.4675  -21.0993  -49.2693 O.2       11 UNK        -0.5000 
     69 N          -0.9422  -19.8314  -47.4516 N.am      12 UNK        -0.5000 
     70 CA         -2.3480  -19.5606  -47.7606 C.3       12 UNK         0.1400 
     71 CB         -2.9610  -18.6098  -46.7164 C.3       12 UNK        -0.1800 
     72 C          -3.1836  -20.8465  -47.8522 C.2       12 UNK         0.5000 
     73 O          -3.9197  -21.0150  -48.8220 O.2       12 UNK        -0.5000 
     74 N          -3.0396  -21.7347  -46.8595 N.am      13 UNK        -0.5000 
     75 CA         -3.7197  -23.0279  -46.7847 C.3       13 UNK         0.1400 
     76 CB         -3.4013  -23.7025  -45.4422 C.3       13 UNK        -0.1800 
     77 C          -3.3758  -23.9550  -47.9635 C.2       13 UNK         0.5000 
     78 O          -4.2820  -24.5614  -48.5368 O.2       13 UNK        -0.5000 
     79 N          -2.0891  -24.0046  -48.3395 N.am      14 UNK        -0.5000 
     80 CA         -1.5989  -24.7194  -49.5212 C.3       14 UNK         0.1400 
     81 CB         -0.0634  -24.6914  -49.5407 C.3       14 UNK        -0.1800 
     82 C          -2.1752  -24.1582  -50.8358 C.2       14 UNK         0.5000 
     83 O          -2.5182  -24.9347  -51.7284 O.2       14 UNK        -0.5000 
     84 N          -2.3189  -22.8282  -50.8978 N.am      15 UNK        -0.5000 
     85 CA         -2.9169  -22.0505  -51.9848 C.3       15 UNK         0.1400 
     86 CB         -2.3008  -20.6408  -51.9508 C.3       15 UNK        -0.1800 
     87 C          -4.4634  -22.0069  -51.9478 C.2       15 UNK         0.5000 
     88 O          -5.0592  -21.1130  -52.5530 O.2       15 UNK        -0.5000 
     89 N          -5.0955  -22.9533  -51.2363 N.am      16 UNK        -0.5000 
     90 CA         -6.5438  -23.1515  -51.1058 C.3       16 UNK         0.1400 
     91 CB         -7.1588  -23.5504  -52.4646 C.3       16 UNK        -0.1800 
     92 C          -7.2601  -21.9521  -50.4506 C.2       16 UNK         0.5000 
     93 O          -8.2964  -21.5059  -50.9427 O.2       16 UNK        -0.5000 
     94 N          -6.6721  -21.4483  -49.3571 N.am      17 UNK        -0.5000 
     95 CA         -7.0347  -20.2269  -48.6282 C.3       17 UNK         0.1400 
     96 CB         -8.4782  -20.2815  -48.0841 C.3       17 UNK        -0.1800 
     97 C          -6.7264  -18.9614  -49.4548 C.2       17 UNK         0.5000 
     98 O          -7.5204  -18.0195  -49.4717 O.2       17 UNK        -0.5000 
     99 N          -5.5616  -18.9816  -50.1223 N.am      18 UNK        -0.5000 
    100 CA        -5.0085  -17.9458  -51.0026 C.3       18 UNK         0.1400 
    101 CB        -4.5962  -16.7087  -50.1781 C.3       18 UNK        -0.1800 
    102 C         -5.9283  -17.6006  -52.1953 C.2       18 UNK         0.5000 
    103 O         -6.0266  -16.4342  -52.5821 O.2       18 UNK        -0.5000 
    104 N         -6.5969  -18.6215  -52.7449 N.am      19 UNK        -0.5000 
    105 CA        -7.5887  -18.4968  -53.8139 C.3       19 UNK         0.1400 
    106 CB        -8.8936  -19.1611  -53.3480 C.3       19 UNK        -0.1800 
    107 C         -7.1219  -19.1287  -55.1366 C.2       19 UNK         0.5000 
    108 O         -7.7372  -18.8626  -56.1706 O.2       19 UNK        -0.5000 
    109 N         -6.0723  -19.9567  -55.0990 N.am      20 UNK        -0.5000 
    110 CA        -5.5481  -20.6976  -56.2427 C.3       20 UNK         0.1400 
    111 CB        -6.2374  -22.0758  -56.2945 C.3       20 UNK        -0.1800 
    112 C         -4.0203  -20.8261  -56.1330 C.2       20 UNK         0.5000 
    113 O         -3.4114  -20.2660  -55.2194 O.2       20 UNK        -0.5000 
    114 N         -3.4216  -21.5753  -57.0666 N.am      21 UNK        -0.5000 
    115 CA        -2.0373  -22.0412  -56.9793 C.3       21 UNK         0.1400 
    116 CB        -1.6138  -22.5949  -58.3490 C.3       21 UNK        -0.1800 
    117 C         -1.8900  -23.1199  -55.8872 C.2       21 UNK         0.5000 
    118 O         -2.8758  -23.7726  -55.5334 O.2       21 UNK        -0.5000 
    119 N         -0.6643  -23.2911  -55.3799 N.am      22 UNK        -0.5000 
    120 CA        -0.3358  -24.2745  -54.3379 C.3       22 UNK         0.1400 
    121 C         -0.5533  -25.7429  -54.7919 C.2       22 UNK         0.5000 
    122 N         -1.3145  -26.5181  -54.0309 N.am      22 UNK        -0.7600 
    123 O         -0.0067  -26.1861  -55.7991 O.2       22 UNK        -0.5000 
    124 C124        1.0907  -24.0673  -53.7756 C.3       23 UNK        -0.0398 
    125 S125        1.1299  -22.7043  -52.5699 S.3       23 UNK        -0.2404 
    126 C126        1.8668  -21.3576  -53.5396 C.3       23 UNK        -0.0205 
    127 H127        4.0677  -15.5684  -48.6869 H         1 UNK         0.0600 
    128 H128        3.3577  -16.8065  -47.6552 H         1 UNK         0.0600 
    129 H129        3.6402  -15.1818  -47.0172 H         1 UNK         0.0600 
    130 H130        1.1092  -16.9087  -47.4564 H         1 UNK         0.3000 
    131 H131       -0.9628  -16.8023  -47.9474 H         1 UNK         0.0600 
    132 H132       -0.3503  -14.7662  -50.1427 H         1 UNK         0.0800 
    133 H133       -1.9689  -15.1926  -49.7114 H         1 UNK         0.0800 
    134 H134        0.0319  -16.6326  -52.8901 H         1 UNK         0.0800 
    135 H135        0.9738  -15.8538  -51.6425 H         1 UNK         0.0800 
    136 H136        0.3904  -19.0516  -53.4136 H         1 UNK         0.1150 
    137 H137        3.7795  -21.0058  -51.6505 H         1 UNK         0.1150 
    138 H138        2.6174  -17.1071  -50.3208 H         1 UNK         0.1150 
    139 H139        5.3249  -19.4420  -50.2177 H         1 UNK         0.0800 
    140 H140        4.5718  -18.1067  -49.3884 H         1 UNK         0.0800 
    141 H141        1.8551  -18.9920  -48.6820 H         1 UNK         0.0800 
    142 H142        2.3592  -19.0374  -47.0342 H         1 UNK         0.0800 
    143 H143        1.6616  -21.7229  -48.2100 H         1 UNK         0.0600 
    144 H144        1.7526  -20.5893  -45.6093 H         1 UNK         0.3000 
    145 H145       -0.2535  -23.0264  -43.9282 H         1 UNK         0.0600 
    146 H146        1.7814  -22.9917  -42.5111 H         1 UNK         0.0600 
    147 H147        2.0872  -23.8750  -43.9993 H         1 UNK         0.0600 
    148 H148        2.7072  -22.2406  -43.8081 H         1 UNK         0.0600 
    149 H149        0.9575  -20.6132  -43.0146 H         1 UNK         0.3000 
    150 H150       -1.7873  -18.4246  -43.8116 H         1 UNK         0.0600 
    151 H151       -2.3947  -19.4809  -41.6396 H         1 UNK         0.0600 
    152 H152       -1.5710  -17.9502  -41.3809 H         1 UNK         0.0600 
    153 H153       -0.7078  -19.4654  -41.1390 H         1 UNK         0.0600 
    154 H154        0.6725  -17.8959  -42.5182 H         1 UNK         0.3000 
    155 H155        2.6254  -17.2254  -45.4412 H         1 UNK         0.0600 
    156 H156        1.4284  -15.1324  -44.9462 H         1 UNK         0.0600 
    157 H157        1.4849  -15.4563  -43.2243 H         1 UNK         0.0600 
    158 H158        2.9754  -15.1381  -44.1127 H         1 UNK         0.0600 
    159 H159        3.2042  -17.2525  -42.6337 H         1 UNK         0.3000 
    160 H160        4.3346  -20.6306  -42.4792 H         1 UNK         0.0600 
    161 H161        5.8717  -17.9755  -42.4483 H         1 UNK         0.0600 
    162 H162        6.2415  -19.3579  -43.4723 H         1 UNK         0.0600 
    163 H163        6.4070  -19.4945  -41.7291 H         1 UNK         0.0600 
    164 H164        4.3032  -18.4645  -40.5945 H         1 UNK         0.3000 
    165 H165        1.0580  -19.1077  -39.2566 H         1 UNK         0.0600 
    166 H166        2.3878  -19.2866  -37.1770 H         1 UNK         0.0600 
    167 H167        2.5936  -20.7375  -38.1447 H         1 UNK         0.0600 
    168 H168        3.8689  -19.5258  -38.1045 H         1 UNK         0.0600 
    169 H169        3.0263  -17.2089  -38.5131 H         1 UNK         0.3000 
    170 H170        2.2017  -14.8828  -38.8413 H         1 UNK         0.0600 
    171 H171        3.8681  -15.1988  -41.4244 H         1 UNK         0.0600 
    172 H172        4.0820  -13.9266  -40.2264 H         1 UNK         0.0600 
    173 H173        4.4424  -15.5884  -39.8066 H         1 UNK         0.0600 
    174 H174        0.7919  -14.8802  -41.2931 H         1 UNK         0.3000 
    175 H175       -0.2274  -11.5440  -41.1657 H         1 UNK         0.0600 
    176 H176        0.2288  -11.4375  -43.6077 H         1 UNK         0.0600 
    177 H177        1.4067  -12.7411  -43.4696 H         1 UNK         0.0600 
    178 H178        1.7111  -11.1894  -42.6977 H         1 UNK         0.0600 
    179 H179       -0.7347  -13.8084  -42.9308 H         1 UNK         0.3000 
    180 H180       -2.3552  -15.6950  -41.8042 H         1 UNK         0.0600 
    181 H181       -4.8109  -15.5962  -41.4376 H         1 UNK         0.0600 
    182 H182       -4.6929  -13.8903  -41.0047 H         1 UNK         0.0600 
    183 H183       -3.9372  -15.1179  -39.9939 H         1 UNK         0.0600 
    184 H184       -4.0850  -13.9737  -43.3922 H         1 UNK         0.3000 
    185 H185       -4.0399  -14.7931  -45.7196 H         1 UNK         0.0600 
    186 H186       -3.8260  -12.4170  -45.1870 H         1 UNK         0.0600 
    187 H187       -2.1628  -12.3673  -45.7404 H         1 UNK         0.0600 
    188 H188       -3.4729  -12.6168  -46.8941 H         1 UNK         0.0600 
    189 H189       -2.7956  -15.8325  -47.1850 H         1 UNK         0.3000 
    190 H190       -0.5666  -19.3956  -46.6135 H         1 UNK         0.3000 
    191 H191       -2.3730  -19.0653  -48.7330 H         1 UNK         0.0600 
    192 H192       -2.2858  -17.8017  -46.4468 H         1 UNK         0.0600 
    193 H193       -3.8806  -18.1644  -47.0971 H         1 UNK         0.0600 
    194 H194       -3.2192  -19.1258  -45.7923 H         1 UNK         0.0600 
    195 H195       -2.4457  -21.4880  -46.0710 H         1 UNK         0.3000 
    196 H196       -4.7938  -22.8348  -46.8193 H         1 UNK         0.0600 
    197 H197       -3.9186  -24.6584  -45.3525 H         1 UNK         0.0600 
    198 H198       -3.7180  -23.0806  -44.6047 H         1 UNK         0.0600 
    199 H199       -2.3340  -23.8940  -45.3299 H         1 UNK         0.0600 
    200 H200       -1.4005  -23.4953  -47.7939 H         1 UNK         0.3000 
    201 H201       -1.9186  -25.7600  -49.4374 H         1 UNK         0.0600 
    202 H202        0.3511  -25.1566  -48.6463 H         1 UNK         0.0600 
    203 H203        0.3205  -23.6723  -49.5944 H         1 UNK         0.0600 
    204 H204        0.3267  -25.2335  -50.4031 H         1 UNK         0.0600 
    205 H205       -1.9672  -22.2795  -50.1198 H         1 UNK         0.3000 
    206 H206       -2.6459  -22.5091  -52.9359 H         1 UNK         0.0600 
    207 H207       -1.2178  -20.6852  -52.0635 H         1 UNK         0.0600 
    208 H208       -2.6799  -20.0109  -52.7541 H         1 UNK         0.0600 
    209 H209       -2.5113  -20.1342  -51.0097 H         1 UNK         0.0600 
    210 H210       -4.5215  -23.6161  -50.7321 H         1 UNK         0.3000 
    211 H211       -6.6745  -23.9939  -50.4251 H         1 UNK         0.0600 
    212 H212       -7.1279  -22.7289  -53.1811 H         1 UNK         0.0600 
    213 H213       -8.2033  -23.8417  -52.3492 H         1 UNK         0.0600 
    214 H214       -6.6320  -24.3978  -52.9034 H         1 UNK         0.0600 
    215 H215       -5.7689  -21.8320  -49.1013 H         1 UNK         0.3000 
    216 H216       -6.3712  -20.1873  -47.7632 H         1 UNK         0.0600 
    217 H217       -8.6659  -19.4503  -47.4036 H         1 UNK         0.0600 
    218 H218       -8.6563  -21.2021  -47.5285 H         1 UNK         0.0600 
    219 H219       -9.2202  -20.2190  -48.8802 H         1 UNK         0.0600 
    220 H220       -4.9886  -19.8116  -50.0098 H         1 UNK         0.3000 
    221 H221       -4.1013  -18.3636  -51.4386 H         1 UNK         0.0600 
    222 H222       -5.4587  -16.2110  -49.7343 H         1 UNK         0.0600 
    223 H223       -3.9144  -16.9825  -49.3738 H         1 UNK         0.0600 
    224 H224       -4.0819  -15.9778  -50.8028 H         1 UNK         0.0600 
    225 H225       -6.4055  -19.5591  -52.4072 H         1 UNK         0.3000 
    226 H226       -7.8019  -17.4456  -54.0172 H         1 UNK         0.0600 
    227 H227       -9.2288  -18.7518  -52.3946 H         1 UNK         0.0600 
    228 H228       -9.6938  -19.0017  -54.0717 H         1 UNK         0.0600 
    229 H229       -8.7726  -20.2379  -53.2269 H         1 UNK         0.0600 
    230 H230       -5.5776  -20.1147  -54.2252 H         1 UNK         0.3000 
    231 H231       -5.7571  -20.1540  -57.1662 H         1 UNK         0.0600 
    232 H232       -5.9715  -22.6851  -55.4294 H         1 UNK         0.0600 
    233 H233       -5.9555  -22.6328  -57.1882 H         1 UNK         0.0600 
    234 H234       -7.3228  -21.9759  -56.3109 H         1 UNK         0.0600 
    235 H235       -3.9934  -22.0185  -57.7701 H         1 UNK         0.3000 
    236 H236       -1.3959  -21.1941  -56.7263 H         1 UNK         0.0600 
    237 H237       -1.7014  -21.8353  -59.1261 H         1 UNK         0.0600 
    238 H238       -0.5742  -22.9245  -58.3345 H         1 UNK         0.0600 
    239 H239       -2.2240  -23.4497  -58.6437 H         1 UNK         0.0600 
    240 H240        0.1042  -22.7499  -55.7450 H         1 UNK         0.3000 
    241 H241       -1.0343  -24.0867  -53.5271 H         1 UNK         0.0600 
    242 H242       -1.7904  -26.1348  -53.2200 H         1 UNK         0.3800 
    243 H243       -1.4661  -27.4795  -54.2925 H         1 UNK         0.3800 
    244 H244        1.8157  -23.9054  -54.5746 H         1 UNK         0.0800 
    245 H245        1.4304  -24.9549  -53.2382 H         1 UNK         0.0800 
    246 H246        1.2154  -21.1116  -54.3792 H         1 UNK         0.0800 
    247 H247        2.8197  -21.6821  -53.9601 H         1 UNK         0.0800 
@<TRIPOS>BOND
     1    1    2 1    
     2    1  127 1    
     3    1  128 1    
     4    1  129 1    
     5    2    3 2    
     6    2    4 am   BACKBONE|DICT|INTERRES
     7    4    5 1    
     8    4  130 1    
     9    5    6 1    
    10    5   65 1    
    11    5  131 1    
    12    6    7 1    
    13    6  132 1    
    14    6  133 1    
    15    7    8 1    
    16    8    9 1    
    17    8  134 1    
    18    8  135 1    
    19    9   10 ar   
    20    9   14 ar   
    21   10   11 ar   
    22   10  136 1    
    23   11   12 ar   
    24   11  126 1    
    25   12   13 ar   
    26   12  137 1    
    27   13   14 ar   
    28   13   15 1    
    29   14  138 1    
    30   15   16 1    
    31   15  139 1    
    32   15  140 1    
    33   16   17 1    
    34   17   18 1    
    35   17  141 1    
    36   17  142 1    
    37   18   19 1    
    38   18   67 1    
    39   18  143 1    
    40   19   20 am   BACKBONE|DICT|INTERRES
    41   19  144 1    
    42   20   21 2    
    43   20   22 1    
    44   22   23 1    
    45   22   24 1    
    46   22  145 1    
    47   23  146 1    
    48   23  147 1    
    49   23  148 1    
    50   24   25 am   BACKBONE|DICT|INTERRES
    51   24  149 1    
    52   25   26 2    
    53   25   27 1    
    54   27   28 1    
    55   27   29 1    
    56   27  150 1    
    57   28  151 1    
    58   28  152 1    
    59   28  153 1    
    60   29   30 am   BACKBONE|DICT|INTERRES
    61   29  154 1    
    62   30   31 2    
    63   30   32 1    
    64   32   33 1    
    65   32   34 1    
    66   32  155 1    
    67   33  156 1    
    68   33  157 1    
    69   33  158 1    
    70   34   35 am   BACKBONE|DICT|INTERRES
    71   34  159 1    
    72   35   36 2    
    73   35   37 1    
    74   37   38 1    
    75   37   39 1    
    76   37  160 1    
    77   38  161 1    
    78   38  162 1    
    79   38  163 1    
    80   39   40 am   BACKBONE|DICT|INTERRES
    81   39  164 1    
    82   40   41 2    
    83   40   42 1    
    84   42   43 1    
    85   42   44 1    
    86   42  165 1    
    87   43  166 1    
    88   43  167 1    
    89   43  168 1    
    90   44   45 am   BACKBONE|DICT|INTERRES
    91   44  169 1    
    92   45   46 2    
    93   45   47 1    
    94   47   48 1    
    95   47   49 1    
    96   47  170 1    
    97   48  171 1    
    98   48  172 1    
    99   48  173 1    
   100   49   50 am   BACKBONE|DICT|INTERRES
   101   49  174 1    
   102   50   51 2    
   103   50   52 1    
   104   52   53 1    
   105   52   54 1    
   106   52  175 1    
   107   53  176 1    
   108   53  177 1    
   109   53  178 1    
   110   54   55 am   BACKBONE|DICT|INTERRES
   111   54  179 1    
   112   55   56 2    
   113   55   57 1    
   114   57   58 1    
   115   57   59 1    
   116   57  180 1    
   117   58  181 1    
   118   58  182 1    
   119   58  183 1    
   120   59   60 am   BACKBONE|DICT|INTERRES
   121   59  184 1    
   122   60   61 2    
   123   60   62 1    
   124   62   63 1    
   125   62   64 1    
   126   62  185 1    
   127   63  186 1    
   128   63  187 1    
   129   63  188 1    
   130   64   65 am   BACKBONE|DICT|INTERRES
   131   64  189 1    
   132   65   66 2    
   133   67   68 2    
   134   67   69 am   BACKBONE|DICT|INTERRES
   135   69   70 1    
   136   69  190 1    
   137   70   71 1    
   138   70   72 1    
   139   70  191 1    
   140   71  192 1    
   141   71  193 1    
   142   71  194 1    
   143   72   73 2    
   144   72   74 am   BACKBONE|DICT|INTERRES
   145   74   75 1    
   146   74  195 1    
   147   75   76 1    
   148   75   77 1    
   149   75  196 1    
   150   76  197 1    
   151   76  198 1    
   152   76  199 1    
   153   77   78 2    
   154   77   79 am   BACKBONE|DICT|INTERRES
   155   79   80 1    
   156   79  200 1    
   157   80   81 1    
   158   80   82 1    
   159   80  201 1    
   160   81  202 1    
   161   81  203 1    
   162   81  204 1    
   163   82   83 2    
   164   82   84 am   BACKBONE|DICT|INTERRES
   165   84   85 1    
   166   84  205 1    
   167   85   86 1    
   168   85   87 1    
   169   85  206 1    
   170   86  207 1    
   171   86  208 1    
   172   86  209 1    
   173   87   88 2    
   174   87   89 am   BACKBONE|DICT|INTERRES
   175   89   90 1    
   176   89  210 1    
   177   90   91 1    
   178   90   92 1    
   179   90  211 1    
   180   91  212 1    
   181   91  213 1    
   182   91  214 1    
   183   92   93 2    
   184   92   94 am   BACKBONE|DICT|INTERRES
   185   94   95 1    
   186   94  215 1    
   187   95   96 1    
   188   95   97 1    
   189   95  216 1    
   190   96  217 1    
   191   96  218 1    
   192   96  219 1    
   193   97   98 2    
   194   97   99 am   BACKBONE|DICT|INTERRES
   195   99  100 1    
   196   99  220 1    
   197  100  101 1    
   198  100  102 1    
   199  100  221 1    
   200  101  222 1    
   201  101  223 1    
   202  101  224 1    
   203  102  103 2    
   204  102  104 am   BACKBONE|DICT|INTERRES
   205  104  105 1    
   206  104  225 1    
   207  105  106 1    
   208  105  107 1    
   209  105  226 1    
   210  106  227 1    
   211  106  228 1    
   212  106  229 1    
   213  107  108 2    
   214  107  109 am   BACKBONE|DICT|INTERRES
   215  109  110 1    
   216  109  230 1    
   217  110  111 1    
   218  110  112 1    
   219  110  231 1    
   220  111  232 1    
   221  111  233 1    
   222  111  234 1    
   223  112  113 2    
   224  112  114 am   BACKBONE|DICT|INTERRES
   225  114  115 1    
   226  114  235 1    
   227  115  116 1    
   228  115  117 1    
   229  115  236 1    
   230  116  237 1    
   231  116  238 1    
   232  116  239 1    
   233  117  118 2    
   234  117  119 am   BACKBONE|DICT|INTERRES
   235  119  120 1    
   236  119  240 1    
   237  120  121 1    
   238  120  124 1    
   239  120  241 1    
   240  121  122 am   BACKBONE|DICT|INTERRES
   241  121  123 2    
   242  122  242 1    
   243  122  243 1    
   244  124  125 1    
   245  124  244 1    
   246  124  245 1    
   247  125  126 1    
   248  126  246 1    
   249  126  247 1    
@<TRIPOS>SUBSTRUCTURE
     1 UNK         1 GROUP             0       ****    0 ROOT    
