@<TRIPOS>MOLECULE
3R540
247   249    1
SMALL
USER_CHARGES


@<TRIPOS>ATOM
      1 CA         -4.9724  -20.7408  -43.0812 C.3       0 UNK        -0.1800 
      2 C          -5.0114  -19.6132  -44.1036 C.2       0 UNK         0.5000 
      3 O          -6.0267  -18.9250  -44.2035 O.2       0 UNK        -0.5000 
      4 N          -3.9231  -19.4505  -44.8707 N.am      1 UNK        -0.5000 
      5 CA         -3.7307  -18.4377  -45.9151 C.3       1 UNK         0.1400 
      6 C6         -2.3151  -18.5170  -46.5468 C.3       23 UNK        -0.0398 
      7 S7         -2.1146  -17.4569  -48.0243 S.3       23 UNK        -0.2404 
      8 C8         -2.2683  -18.6540  -49.3894 C.3       23 UNK        -0.0205 
      9 C9         -0.9565  -19.1972  -49.9591 C.ar      23 UNK        -0.0193 
     10 C10        -1.0155  -19.8892  -51.1711 C.ar      23 UNK        -0.1150 
     11 C11         0.1323  -20.4396  -51.7440 C.ar      23 UNK        -0.0193 
     12 C12         1.3646  -20.2627  -51.1120 C.ar      23 UNK        -0.1150 
     13 C13         1.4500  -19.5779  -49.8952 C.ar      23 UNK        -0.0193 
     14 C14         0.2853  -19.0525  -49.3228 C.ar      23 UNK        -0.1150 
     15 C15         2.7948  -19.3791  -49.1992 C.3       23 UNK        -0.0205 
     16 S16         3.8394  -20.8751  -49.1398 S.3       23 UNK        -0.2404 
     17 C17         2.7123  -22.0881  -48.3768 C.3       23 UNK        -0.0398 
     18 CA          3.4434  -23.0564  -47.4175 C.3       11 UNK         0.1400 
     19 N           3.9295  -22.3678  -46.2188 N.am      11 UNK        -0.5000 
     20 C           5.0157  -22.7453  -45.5344 C.2       10 UNK         0.5000 
     21 O           5.6957  -23.7332  -45.8159 O.2       10 UNK        -0.5000 
     22 CA          5.4120  -21.8720  -44.3333 C.3       10 UNK         0.1400 
     23 CB          6.0789  -20.5729  -44.8116 C.3       10 UNK        -0.1800 
     24 N           4.2863  -21.5576  -43.4521 N.am      10 UNK        -0.5000 
     25 C           3.6322  -22.4599  -42.7066 C.2       9 UNK         0.5000 
     26 O           3.8864  -23.6647  -42.7099 O.2       9 UNK        -0.5000 
     27 CA          2.5035  -21.9342  -41.8014 C.3       9 UNK         0.1400 
     28 CB          3.0805  -21.3001  -40.5265 C.3       9 UNK        -0.1800 
     29 N           1.6313  -20.9709  -42.4689 N.am      9 UNK        -0.5000 
     30 C           0.8195  -21.2601  -43.4950 C.2       8 UNK         0.5000 
     31 O           0.7103  -22.3761  -43.9993 O.2       8 UNK        -0.5000 
     32 CA          0.0259  -20.0876  -44.0917 C.3       8 UNK         0.1400 
     33 CB         -1.1180  -19.6840  -43.1486 C.3       8 UNK        -0.1800 
     34 N           0.8697  -18.9268  -44.3734 N.am      8 UNK        -0.5000 
     35 C           1.9634  -18.9388  -45.1506 C.2       7 UNK         0.5000 
     36 O           2.3649  -19.9279  -45.7643 O.2       7 UNK        -0.5000 
     37 CA          2.7831  -17.6390  -45.1919 C.3       7 UNK         0.1400 
     38 CB          2.1424  -16.6066  -46.1350 C.3       7 UNK        -0.1800 
     39 N           2.9461  -17.0617  -43.8561 N.am      7 UNK        -0.5000 
     40 C           3.6499  -17.6291  -42.8644 C.2       6 UNK         0.5000 
     41 O           4.2715  -18.6834  -42.9810 O.2       6 UNK        -0.5000 
     42 CA          3.6111  -16.9246  -41.4968 C.3       6 UNK         0.1400 
     43 CB          4.5938  -15.7446  -41.4637 C.3       6 UNK        -0.1800 
     44 N           2.2696  -16.4511  -41.1588 N.am      6 UNK        -0.5000 
     45 C           1.2165  -17.2498  -40.9319 C.2       5 UNK         0.5000 
     46 O           1.2852  -18.4782  -40.9058 O.2       5 UNK        -0.5000 
     47 CA         -0.1490  -16.5555  -40.7593 C.3       5 UNK         0.1400 
     48 CB         -0.4022  -16.2192  -39.2825 C.3       5 UNK        -0.1800 
     49 N          -0.2632  -15.3353  -41.5649 N.am      5 UNK        -0.5000 
     50 C          -0.2656  -15.3201  -42.9038 C.2       4 UNK         0.5000 
     51 O          -0.2290  -16.3376  -43.6008 O.2       4 UNK        -0.5000 
     52 CA         -0.2037  -13.9422  -43.5719 C.3       4 UNK         0.1400 
     53 CB          1.2692  -13.4920  -43.6798 C.3       4 UNK        -0.1800 
     54 N          -0.8260  -14.0428  -44.8878 N.am      4 UNK        -0.5000 
     55 C          -1.0229  -13.0459  -45.7588 C.2       3 UNK         0.5000 
     56 O          -0.6796  -11.8788  -45.5668 O.2       3 UNK        -0.5000 
     57 CA         -1.7616  -13.4131  -47.0587 C.3       3 UNK         0.1400 
     58 CB         -0.8105  -14.1093  -48.0452 C.3       3 UNK        -0.1800 
     59 N          -2.9356  -14.2569  -46.8218 N.am      3 UNK        -0.5000 
     60 C          -4.0317  -13.8617  -46.1546 C.2       2 UNK         0.5000 
     61 O          -4.1698  -12.7332  -45.6812 O.2       2 UNK        -0.5000 
     62 CA         -5.1828  -14.8757  -45.9988 C.3       2 UNK         0.1400 
     63 CB         -6.3478  -14.5045  -46.9275 C.3       2 UNK        -0.1800 
     64 N          -4.7920  -16.2623  -46.2570 N.am      2 UNK        -0.5000 
     65 C          -4.0438  -17.0046  -45.4315 C.2       1 UNK         0.5000 
     66 O          -3.5835  -16.5964  -44.3630 O.2       1 UNK        -0.5000 
     67 C           2.5388  -24.2606  -47.0825 C.2       11 UNK         0.5000 
     68 O           2.3075  -25.0832  -47.9694 O.2       11 UNK        -0.5000 
     69 N           2.0196  -24.3319  -45.8444 N.am      12 UNK        -0.5000 
     70 CA          0.9442  -25.2291  -45.3927 C.3       12 UNK         0.1400 
     71 CB          1.4014  -26.7029  -45.3974 C.3       12 UNK        -0.1800 
     72 C          -0.3470  -24.9779  -46.2033 C.2       12 UNK         0.5000 
     73 O          -0.9671  -25.9150  -46.7101 O.2       12 UNK        -0.5000 
     74 N          -0.6715  -23.6904  -46.3651 N.am      13 UNK        -0.5000 
     75 CA         -1.6526  -23.1771  -47.3142 C.3       13 UNK         0.1400 
     76 CB         -0.9851  -22.0566  -48.1161 C.3       13 UNK        -0.1800 
     77 C          -2.8988  -22.6355  -46.6056 C.2       13 UNK         0.5000 
     78 O          -2.8076  -22.1730  -45.4655 O.2       13 UNK        -0.5000 
     79 N          -4.0255  -22.6690  -47.3252 N.am      14 UNK        -0.5000 
     80 CA         -5.3532  -22.2837  -46.8474 C.3       14 UNK         0.1400 
     81 CB         -6.1856  -23.5598  -46.6401 C.3       14 UNK        -0.1800 
     82 C          -6.0829  -21.3045  -47.7889 C.2       14 UNK         0.5000 
     83 O          -7.1350  -20.7928  -47.4040 O.2       14 UNK        -0.5000 
     84 N          -5.5543  -21.0746  -49.0009 N.am      15 UNK        -0.5000 
     85 CA         -6.1550  -20.2141  -50.0262 C.3       15 UNK         0.1400 
     86 CB         -5.3434  -20.3410  -51.3237 C.3       15 UNK        -0.1800 
     87 C          -6.2635  -18.7328  -49.6151 C.2       15 UNK         0.5000 
     88 O          -5.4442  -18.2360  -48.8405 O.2       15 UNK        -0.5000 
     89 N          -7.2366  -18.0224  -50.1971 N.am      16 UNK        -0.5000 
     90 CA         -7.5274  -16.6052  -49.9501 C.3       16 UNK         0.1400 
     91 CB         -8.9865  -16.3279  -50.3556 C.3       16 UNK        -0.1800 
     92 C          -6.5271  -15.6315  -50.6220 C.2       16 UNK         0.5000 
     93 O          -6.9441  -14.6057  -51.1630 O.2       16 UNK        -0.5000 
     94 N          -5.2308  -15.9720  -50.5578 N.am      17 UNK        -0.5000 
     95 CA         -4.0664  -15.3094  -51.1574 C.3       17 UNK         0.1400 
     96 CB         -3.9098  -13.8777  -50.6041 C.3       17 UNK        -0.1800 
     97 C          -4.0672  -15.3282  -52.7028 C.2       17 UNK         0.5000 
     98 O          -5.0654  -15.6850  -53.3318 O.2       17 UNK        -0.5000 
     99 N          -2.9186  -14.9576  -53.2875 N.am      18 UNK        -0.5000 
    100 CA        -2.6232  -14.7415  -54.7152 C.3       18 UNK         0.1400 
    101 CB        -3.4742  -13.5842  -55.2725 C.3       18 UNK        -0.1800 
    102 C         -2.7089  -15.9725  -55.6465 C.2       18 UNK         0.5000 
    103 O         -1.9664  -16.0251  -56.6285 O.2       18 UNK        -0.5000 
    104 N         -3.6052  -16.9204  -55.3530 N.am      19 UNK        -0.5000 
    105 CA        -3.8540  -18.1413  -56.1180 C.3       19 UNK         0.1400 
    106 CB        -5.0571  -18.8725  -55.5017 C.3       19 UNK        -0.1800 
    107 C         -2.6335  -19.0787  -56.1677 C.2       19 UNK         0.5000 
    108 O         -1.9244  -19.2187  -55.1690 O.2       19 UNK        -0.5000 
    109 N         -2.4372  -19.7296  -57.3222 N.am      20 UNK        -0.5000 
    110 CA        -1.3912  -20.7335  -57.5360 C.3       20 UNK         0.1400 
    111 CB        -1.1909  -20.9423  -59.0450 C.3       20 UNK        -0.1800 
    112 C         -1.7089  -22.0711  -56.8409 C.2       20 UNK         0.5000 
    113 O         -0.7881  -22.7707  -56.4189 O.2       20 UNK        -0.5000 
    114 N         -3.0043  -22.3924  -56.7222 N.am      21 UNK        -0.5000 
    115 CA        -3.5159  -23.4972  -55.9183 C.3       21 UNK         0.1400 
    116 CB        -4.9001  -23.9096  -56.4453 C.3       21 UNK        -0.1800 
    117 C         -3.5833  -23.0359  -54.4548 C.2       21 UNK         0.5000 
    118 O         -4.3853  -22.1567  -54.1357 O.2       21 UNK        -0.5000 
    119 N         -2.7088  -23.5935  -53.6121 N.am      22 UNK        -0.5000 
    120 CA        -2.5102  -23.1543  -52.2216 C.3       22 UNK         0.1400 
    121 C         -3.5938  -23.6281  -51.2104 C.2       22 UNK         0.5000 
    122 N         -4.4808  -24.5474  -51.5665 N.am      22 UNK        -0.7600 
    123 O         -3.6428  -23.1347  -50.0860 O.2       22 UNK        -0.5000 
    124 C124       -1.0878  -23.4903  -51.7035 C.3       23 UNK        -0.0398 
    125 S125        0.2894  -23.0099  -52.8087 S.3       23 UNK        -0.2404 
    126 C126        0.0412  -21.2189  -53.0477 C.3       23 UNK        -0.0205 
    127 H127       -4.0935  -21.3733  -43.2032 H         1 UNK         0.0600 
    128 H128       -5.8552  -21.3718  -43.1846 H         1 UNK         0.0600 
    129 H129       -4.9607  -20.3308  -42.0714 H         1 UNK         0.0600 
    130 H130       -3.1743  -20.1240  -44.7730 H         1 UNK         0.3000 
    131 H131       -4.4542  -18.7055  -46.6809 H         1 UNK         0.0600 
    132 H132       -1.5575  -18.2171  -45.8219 H         1 UNK         0.0800 
    133 H133       -2.0836  -19.5463  -46.8170 H         1 UNK         0.0800 
    134 H134       -2.8116  -18.1585  -50.1938 H         1 UNK         0.0800 
    135 H135       -2.8983  -19.4865  -49.0744 H         1 UNK         0.0800 
    136 H136       -1.9654  -19.9987  -51.6726 H         1 UNK         0.1150 
    137 H137        2.2564  -20.6742  -51.5631 H         1 UNK         0.1150 
    138 H138        0.3567  -18.5307  -48.3802 H         1 UNK         0.1150 
    139 H139        3.3415  -18.5910  -49.7179 H         1 UNK         0.0800 
    140 H140        2.6481  -19.0286  -48.1795 H         1 UNK         0.0800 
    141 H141        1.9161  -21.5645  -47.8466 H         1 UNK         0.0800 
    142 H142        2.2354  -22.6304  -49.1957 H         1 UNK         0.0800 
    143 H143        4.2997  -23.4643  -47.9595 H         1 UNK         0.0600 
    144 H144        3.4293  -21.5250  -45.9451 H         1 UNK         0.3000 
    145 H145        6.1468  -22.4291  -43.7484 H         1 UNK         0.0600 
    146 H146        6.4740  -20.0012  -43.9719 H         1 UNK         0.0600 
    147 H147        5.3772  -19.9354  -45.3510 H         1 UNK         0.0600 
    148 H148        6.9136  -20.7836  -45.4812 H         1 UNK         0.0600 
    149 H149        4.0455  -20.5744  -43.3625 H         1 UNK         0.3000 
    150 H150        1.8908  -22.7886  -41.5064 H         1 UNK         0.0600 
    151 H151        3.7285  -22.0008  -39.9987 H         1 UNK         0.0600 
    152 H152        2.2868  -21.0087  -39.8384 H         1 UNK         0.0600 
    153 H153        3.6698  -20.4101  -40.7508 H         1 UNK         0.0600 
    154 H154        1.6311  -20.0259  -42.0968 H         1 UNK         0.3000 
    155 H155       -0.4043  -20.4178  -45.0388 H         1 UNK         0.0600 
    156 H156       -1.8465  -20.4900  -43.0647 H         1 UNK         0.0600 
    157 H157       -1.6390  -18.7940  -43.4991 H         1 UNK         0.0600 
    158 H158       -0.7626  -19.4736  -42.1415 H         1 UNK         0.0600 
    159 H159        0.5957  -18.0499  -43.9392 H         1 UNK         0.3000 
    160 H160        3.7750  -17.8822  -45.5787 H         1 UNK         0.0600 
    161 H161        1.1398  -16.3245  -45.8155 H         1 UNK         0.0600 
    162 H162        2.0570  -16.9988  -47.1481 H         1 UNK         0.0600 
    163 H163        2.7432  -15.6991  -46.1920 H         1 UNK         0.0600 
    164 H164        2.4238  -16.2227  -43.6591 H         1 UNK         0.3000 
    165 H165        3.9179  -17.6483  -40.7385 H         1 UNK         0.0600 
    166 H166        4.6259  -15.2865  -40.4750 H         1 UNK         0.0600 
    167 H167        5.6062  -16.0744  -41.7009 H         1 UNK         0.0600 
    168 H168        4.3232  -14.9712  -42.1837 H         1 UNK         0.0600 
    169 H169        2.1275  -15.4526  -41.1437 H         1 UNK         0.3000 
    170 H170       -0.9220  -17.2526  -41.0889 H         1 UNK         0.0600 
    171 H171        0.3291  -15.5066  -38.8989 H         1 UNK         0.0600 
    172 H172       -1.3950  -15.7922  -39.1401 H         1 UNK         0.0600 
    173 H173       -0.3434  -17.1155  -38.6635 H         1 UNK         0.0600 
    174 H174       -0.2914  -14.4612  -41.0597 H         1 UNK         0.3000 
    175 H175       -0.7696  -13.2286  -42.9701 H         1 UNK         0.0600 
    176 H176        1.8346  -14.1264  -44.3625 H         1 UNK         0.0600 
    177 H177        1.3530  -12.4658  -44.0358 H         1 UNK         0.0600 
    178 H178        1.7666  -13.5262  -42.7099 H         1 UNK         0.0600 
    179 H179       -1.1581  -14.9729  -45.1114 H         1 UNK         0.3000 
    180 H180       -2.1074  -12.4863  -47.5215 H         1 UNK         0.0600 
    181 H181       -1.3174  -14.3620  -48.9763 H         1 UNK         0.0600 
    182 H182       -0.3957  -15.0278  -47.6288 H         1 UNK         0.0600 
    183 H183        0.0286  -13.4602  -48.2978 H         1 UNK         0.0600 
    184 H184       -2.8998  -15.2017  -47.1779 H         1 UNK         0.3000 
    185 H185       -5.5373  -14.8095  -44.9680 H         1 UNK         0.0600 
    186 H186       -6.0425  -14.5173  -47.9731 H         1 UNK         0.0600 
    187 H187       -7.1868  -15.1893  -46.8042 H         1 UNK         0.0600 
    188 H188       -6.7162  -13.5012  -46.7093 H         1 UNK         0.0600 
    189 H189       -5.1146  -16.6789  -47.1218 H         1 UNK         0.3000 
    190 H190        2.2540  -23.5927  -45.1943 H         1 UNK         0.3000 
    191 H191        0.7223  -24.9636  -44.3586 H         1 UNK         0.0600 
    192 H192        0.6445  -27.3439  -44.9443 H         1 UNK         0.0600 
    193 H193        2.3203  -26.8305  -44.8251 H         1 UNK         0.0600 
    194 H194        1.5798  -27.0753  -46.4062 H         1 UNK         0.0600 
    195 H195       -0.1816  -23.0050  -45.8020 H         1 UNK         0.3000 
    196 H196       -1.9583  -23.9642  -48.0070 H         1 UNK         0.0600 
    197 H197       -1.6854  -21.6227  -48.8284 H         1 UNK         0.0600 
    198 H198       -0.1395  -22.4369  -48.6855 H         1 UNK         0.0600 
    199 H199       -0.6184  -21.2561  -47.4736 H         1 UNK         0.0600 
    200 H200       -3.9741  -23.0142  -48.2822 H         1 UNK         0.3000 
    201 H201       -5.2712  -21.7820  -45.8848 H         1 UNK         0.0600 
    202 H202       -5.7125  -24.2243  -45.9169 H         1 UNK         0.0600 
    203 H203       -6.3101  -24.1123  -47.5722 H         1 UNK         0.0600 
    204 H204       -7.1806  -23.3245  -46.2601 H         1 UNK         0.0600 
    205 H205       -4.7092  -21.5634  -49.2670 H         1 UNK         0.3000 
    206 H206       -7.1647  -20.5843  -50.2148 H         1 UNK         0.0600 
    207 H207       -5.3949  -21.3557  -51.7162 H         1 UNK         0.0600 
    208 H208       -5.7278  -19.6806  -52.1020 H         1 UNK         0.0600 
    209 H209       -4.2942  -20.0914  -51.1707 H         1 UNK         0.0600 
    210 H210       -7.8371  -18.4819  -50.8662 H         1 UNK         0.3000 
    211 H211       -7.4540  -16.4338  -48.8753 H         1 UNK         0.0600 
    212 H212       -9.1363  -16.4589  -51.4280 H         1 UNK         0.0600 
    213 H213       -9.2786  -15.3075  -50.1037 H         1 UNK         0.0600 
    214 H214       -9.6747  -16.9946  -49.8356 H         1 UNK         0.0600 
    215 H215       -5.0304  -16.8320  -50.0569 H         1 UNK         0.3000 
    216 H216       -3.1988  -15.8857  -50.8344 H         1 UNK         0.0600 
    217 H217       -2.9536  -13.4428  -50.8961 H         1 UNK         0.0600 
    218 H218       -3.9466  -13.8694  -49.5152 H         1 UNK         0.0600 
    219 H219       -4.6921  -13.2121  -50.9695 H         1 UNK         0.0600 
    220 H220       -2.1436  -14.7420  -52.6760 H         1 UNK         0.3000 
    221 H221       -1.5815  -14.4181  -54.7451 H         1 UNK         0.0600 
    222 H222       -4.5370  -13.8282  -55.2785 H         1 UNK         0.0600 
    223 H223       -3.3415  -12.6772  -54.6828 H         1 UNK         0.0600 
    224 H224       -3.1890  -13.3484  -56.2986 H         1 UNK         0.0600 
    225 H225       -4.2047  -16.7497  -54.5504 H         1 UNK         0.3000 
    226 H226       -4.1115  -17.8441  -57.1366 H         1 UNK         0.0600 
    227 H227       -5.9455  -18.2407  -55.4971 H         1 UNK         0.0600 
    228 H228       -5.3009  -19.7742  -56.0648 H         1 UNK         0.0600 
    229 H229       -4.8556  -19.1760  -54.4732 H         1 UNK         0.0600 
    230 H230       -3.0551  -19.5499  -58.1007 H         1 UNK         0.3000 
    231 H231       -0.4558  -20.3554  -57.1172 H         1 UNK         0.0600 
    232 H232       -0.4004  -21.6694  -59.2361 H         1 UNK         0.0600 
    233 H233       -0.9018  -20.0133  -59.5368 H         1 UNK         0.0600 
    234 H234       -2.0982  -21.3101  -59.5261 H         1 UNK         0.0600 
    235 H235       -3.6902  -21.7375  -57.0658 H         1 UNK         0.3000 
    236 H236       -2.8477  -24.3570  -56.0036 H         1 UNK         0.0600 
    237 H237       -5.6135  -23.0852  -56.4051 H         1 UNK         0.0600 
    238 H238       -4.8414  -24.2503  -57.4792 H         1 UNK         0.0600 
    239 H239       -5.3120  -24.7292  -55.8553 H         1 UNK         0.0600 
    240 H240       -2.0567  -24.2830  -53.9573 H         1 UNK         0.3000 
    241 H241       -2.6023  -22.0694  -52.2217 H         1 UNK         0.0600 
    242 H242       -5.1836  -24.8409  -50.9076 H         1 UNK         0.3800 
    243 H243       -4.4598  -24.9497  -52.4895 H         1 UNK         0.3800 
    244 H244       -0.9999  -24.5629  -51.5226 H         1 UNK         0.0800 
    245 H245       -0.9182  -23.0111  -50.7416 H         1 UNK         0.0800 
    246 H246        0.7995  -20.8487  -53.7388 H         1 UNK         0.0800 
    247 H247       -0.9169  -21.0503  -53.5399 H         1 UNK         0.0800 
@<TRIPOS>BOND
     1    1    2 1    
     2    1  127 1    
     3    1  128 1    
     4    1  129 1    
     5    2    3 2    
     6    2    4 am   BACKBONE|DICT|INTERRES
     7    4    5 1    
     8    4  130 1    
     9    5    6 1    
    10    5   65 1    
    11    5  131 1    
    12    6    7 1    
    13    6  132 1    
    14    6  133 1    
    15    7    8 1    
    16    8    9 1    
    17    8  134 1    
    18    8  135 1    
    19    9   10 ar   
    20    9   14 ar   
    21   10   11 ar   
    22   10  136 1    
    23   11   12 ar   
    24   11  126 1    
    25   12   13 ar   
    26   12  137 1    
    27   13   14 ar   
    28   13   15 1    
    29   14  138 1    
    30   15   16 1    
    31   15  139 1    
    32   15  140 1    
    33   16   17 1    
    34   17   18 1    
    35   17  141 1    
    36   17  142 1    
    37   18   19 1    
    38   18   67 1    
    39   18  143 1    
    40   19   20 am   BACKBONE|DICT|INTERRES
    41   19  144 1    
    42   20   21 2    
    43   20   22 1    
    44   22   23 1    
    45   22   24 1    
    46   22  145 1    
    47   23  146 1    
    48   23  147 1    
    49   23  148 1    
    50   24   25 am   BACKBONE|DICT|INTERRES
    51   24  149 1    
    52   25   26 2    
    53   25   27 1    
    54   27   28 1    
    55   27   29 1    
    56   27  150 1    
    57   28  151 1    
    58   28  152 1    
    59   28  153 1    
    60   29   30 am   BACKBONE|DICT|INTERRES
    61   29  154 1    
    62   30   31 2    
    63   30   32 1    
    64   32   33 1    
    65   32   34 1    
    66   32  155 1    
    67   33  156 1    
    68   33  157 1    
    69   33  158 1    
    70   34   35 am   BACKBONE|DICT|INTERRES
    71   34  159 1    
    72   35   36 2    
    73   35   37 1    
    74   37   38 1    
    75   37   39 1    
    76   37  160 1    
    77   38  161 1    
    78   38  162 1    
    79   38  163 1    
    80   39   40 am   BACKBONE|DICT|INTERRES
    81   39  164 1    
    82   40   41 2    
    83   40   42 1    
    84   42   43 1    
    85   42   44 1    
    86   42  165 1    
    87   43  166 1    
    88   43  167 1    
    89   43  168 1    
    90   44   45 am   BACKBONE|DICT|INTERRES
    91   44  169 1    
    92   45   46 2    
    93   45   47 1    
    94   47   48 1    
    95   47   49 1    
    96   47  170 1    
    97   48  171 1    
    98   48  172 1    
    99   48  173 1    
   100   49   50 am   BACKBONE|DICT|INTERRES
   101   49  174 1    
   102   50   51 2    
   103   50   52 1    
   104   52   53 1    
   105   52   54 1    
   106   52  175 1    
   107   53  176 1    
   108   53  177 1    
   109   53  178 1    
   110   54   55 am   BACKBONE|DICT|INTERRES
   111   54  179 1    
   112   55   56 2    
   113   55   57 1    
   114   57   58 1    
   115   57   59 1    
   116   57  180 1    
   117   58  181 1    
   118   58  182 1    
   119   58  183 1    
   120   59   60 am   BACKBONE|DICT|INTERRES
   121   59  184 1    
   122   60   61 2    
   123   60   62 1    
   124   62   63 1    
   125   62   64 1    
   126   62  185 1    
   127   63  186 1    
   128   63  187 1    
   129   63  188 1    
   130   64   65 am   BACKBONE|DICT|INTERRES
   131   64  189 1    
   132   65   66 2    
   133   67   68 2    
   134   67   69 am   BACKBONE|DICT|INTERRES
   135   69   70 1    
   136   69  190 1    
   137   70   71 1    
   138   70   72 1    
   139   70  191 1    
   140   71  192 1    
   141   71  193 1    
   142   71  194 1    
   143   72   73 2    
   144   72   74 am   BACKBONE|DICT|INTERRES
   145   74   75 1    
   146   74  195 1    
   147   75   76 1    
   148   75   77 1    
   149   75  196 1    
   150   76  197 1    
   151   76  198 1    
   152   76  199 1    
   153   77   78 2    
   154   77   79 am   BACKBONE|DICT|INTERRES
   155   79   80 1    
   156   79  200 1    
   157   80   81 1    
   158   80   82 1    
   159   80  201 1    
   160   81  202 1    
   161   81  203 1    
   162   81  204 1    
   163   82   83 2    
   164   82   84 am   BACKBONE|DICT|INTERRES
   165   84   85 1    
   166   84  205 1    
   167   85   86 1    
   168   85   87 1    
   169   85  206 1    
   170   86  207 1    
   171   86  208 1    
   172   86  209 1    
   173   87   88 2    
   174   87   89 am   BACKBONE|DICT|INTERRES
   175   89   90 1    
   176   89  210 1    
   177   90   91 1    
   178   90   92 1    
   179   90  211 1    
   180   91  212 1    
   181   91  213 1    
   182   91  214 1    
   183   92   93 2    
   184   92   94 am   BACKBONE|DICT|INTERRES
   185   94   95 1    
   186   94  215 1    
   187   95   96 1    
   188   95   97 1    
   189   95  216 1    
   190   96  217 1    
   191   96  218 1    
   192   96  219 1    
   193   97   98 2    
   194   97   99 am   BACKBONE|DICT|INTERRES
   195   99  100 1    
   196   99  220 1    
   197  100  101 1    
   198  100  102 1    
   199  100  221 1    
   200  101  222 1    
   201  101  223 1    
   202  101  224 1    
   203  102  103 2    
   204  102  104 am   BACKBONE|DICT|INTERRES
   205  104  105 1    
   206  104  225 1    
   207  105  106 1    
   208  105  107 1    
   209  105  226 1    
   210  106  227 1    
   211  106  228 1    
   212  106  229 1    
   213  107  108 2    
   214  107  109 am   BACKBONE|DICT|INTERRES
   215  109  110 1    
   216  109  230 1    
   217  110  111 1    
   218  110  112 1    
   219  110  231 1    
   220  111  232 1    
   221  111  233 1    
   222  111  234 1    
   223  112  113 2    
   224  112  114 am   BACKBONE|DICT|INTERRES
   225  114  115 1    
   226  114  235 1    
   227  115  116 1    
   228  115  117 1    
   229  115  236 1    
   230  116  237 1    
   231  116  238 1    
   232  116  239 1    
   233  117  118 2    
   234  117  119 am   BACKBONE|DICT|INTERRES
   235  119  120 1    
   236  119  240 1    
   237  120  121 1    
   238  120  124 1    
   239  120  241 1    
   240  121  122 am   BACKBONE|DICT|INTERRES
   241  121  123 2    
   242  122  242 1    
   243  122  243 1    
   244  124  125 1    
   245  124  244 1    
   246  124  245 1    
   247  125  126 1    
   248  126  246 1    
   249  126  247 1    
@<TRIPOS>SUBSTRUCTURE
     1 UNK         1 GROUP             0       ****    0 ROOT    
