@<TRIPOS>MOLECULE
3R540
247   249    1
SMALL
USER_CHARGES


@<TRIPOS>ATOM
      1 CA          1.2102  -10.1670  -49.5481 C.3       0 UNK        -0.1800 
      2 C           2.1594  -11.2065  -50.1277 C.2       0 UNK         0.5000 
      3 O           2.4737  -11.1538  -51.3168 O.2       0 UNK        -0.5000 
      4 N           2.6168  -12.1453  -49.2939 N.am      1 UNK        -0.5000 
      5 CA          3.5667  -13.1994  -49.6494 C.3       1 UNK         0.1400 
      6 C6          2.9372  -14.3185  -50.5232 C.3       23 UNK        -0.0398 
      7 S7          4.1751  -15.4776  -51.1997 S.3       23 UNK        -0.2404 
      8 C8          3.2370  -16.2645  -52.5575 C.3       23 UNK        -0.0205 
      9 C9          2.0467  -17.1333  -52.1404 C.ar      23 UNK        -0.0193 
     10 C10         1.0915  -17.4619  -53.1078 C.ar      23 UNK        -0.1150 
     11 C11        -0.0131  -18.2580  -52.7892 C.ar      23 UNK        -0.0193 
     12 C12        -0.1624  -18.7358  -51.4839 C.ar      23 UNK        -0.1150 
     13 C13         0.7790  -18.4129  -50.5021 C.ar      23 UNK        -0.0193 
     14 C14         1.8823  -17.6235  -50.8383 C.ar      23 UNK        -0.1150 
     15 C15         0.5874  -18.8686  -49.0643 C.3       23 UNK        -0.0205 
     16 S16         1.8806  -20.0362  -48.5335 S.3       23 UNK        -0.2404 
     17 C17         1.4453  -20.2071  -46.7668 C.3       23 UNK        -0.0398 
     18 CA          0.7966  -21.5546  -46.3603 C.3       11 UNK         0.1400 
     19 N           0.4248  -21.5500  -44.9453 N.am      11 UNK        -0.5000 
     20 C          -0.0505  -22.5936  -44.2525 C.2       10 UNK         0.5000 
     21 O          -0.1787  -23.7273  -44.7152 O.2       10 UNK        -0.5000 
     22 CA         -0.5107  -22.3022  -42.8122 C.3       10 UNK         0.1400 
     23 CB          0.6902  -22.2123  -41.8591 C.3       10 UNK        -0.1800 
     24 N          -1.3079  -21.0771  -42.7165 N.am      10 UNK        -0.5000 
     25 C          -2.4937  -20.8982  -43.3178 C.2       9 UNK         0.5000 
     26 O          -3.0601  -21.7638  -43.9858 O.2       9 UNK        -0.5000 
     27 CA         -3.1338  -19.5042  -43.1904 C.3       9 UNK         0.1400 
     28 CB         -3.7939  -19.3254  -41.8152 C.3       9 UNK        -0.1800 
     29 N          -2.1784  -18.4209  -43.4226 N.am      9 UNK        -0.5000 
     30 C          -1.5386  -18.2056  -44.5808 C.2       8 UNK         0.5000 
     31 O          -1.7065  -18.8807  -45.5943 O.2       8 UNK        -0.5000 
     32 CA         -0.4957  -17.0772  -44.5993 C.3       8 UNK         0.1400 
     33 CB         -1.1845  -15.7084  -44.7187 C.3       8 UNK        -0.1800 
     34 N           0.3756  -17.1067  -43.4238 N.am      8 UNK        -0.5000 
     35 C           1.1869  -18.1231  -43.0940 C.2       7 UNK         0.5000 
     36 O           1.3299  -19.1341  -43.7784 O.2       7 UNK        -0.5000 
     37 CA          1.9213  -18.0218  -41.7468 C.3       7 UNK         0.1400 
     38 CB          3.2077  -17.1902  -41.8677 C.3       7 UNK        -0.1800 
     39 N           1.0639  -17.4641  -40.7032 N.am      7 UNK        -0.5000 
     40 C          -0.0053  -18.0897  -40.1903 C.2       6 UNK         0.5000 
     41 O          -0.3504  -19.2295  -40.5043 O.2       6 UNK        -0.5000 
     42 CA         -0.8560  -17.2777  -39.1971 C.3       6 UNK         0.1400 
     43 CB         -0.2415  -17.3220  -37.7902 C.3       6 UNK        -0.1800 
     44 N          -1.0127  -15.8833  -39.6176 N.am      6 UNK        -0.5000 
     45 C          -1.7039  -15.4984  -40.6998 C.2       5 UNK         0.5000 
     46 O          -2.3235  -16.2775  -41.4233 O.2       5 UNK        -0.5000 
     47 CA         -1.6594  -14.0006  -41.0585 C.3       5 UNK         0.1400 
     48 CB         -2.7690  -13.2371  -40.3207 C.3       5 UNK        -0.1800 
     49 N          -0.3653  -13.3698  -40.7779 N.am      5 UNK        -0.5000 
     50 C           0.7876  -13.6988  -41.3748 C.2       4 UNK         0.5000 
     51 O           0.8924  -14.5928  -42.2173 O.2       4 UNK        -0.5000 
     52 CA          2.0371  -12.9364  -40.9199 C.3       4 UNK         0.1400 
     53 CB          2.5145  -13.4490  -39.5481 C.3       4 UNK        -0.1800 
     54 N           3.0986  -13.1168  -41.9066 N.am      4 UNK        -0.5000 
     55 C           4.1371  -12.2925  -42.0836 C.2       3 UNK         0.5000 
     56 O           4.2927  -11.2529  -41.4409 O.2       3 UNK        -0.5000 
     57 CA          5.2005  -12.6900  -43.1276 C.3       3 UNK         0.1400 
     58 CB          6.4643  -13.2092  -42.4230 C.3       3 UNK        -0.1800 
     59 N           4.7599  -13.7015  -44.0922 N.am      3 UNK        -0.5000 
     60 C           3.9713  -13.4572  -45.1454 C.2       2 UNK         0.5000 
     61 O           3.4486  -12.3631  -45.3736 O.2       2 UNK        -0.5000 
     62 CA          3.7219  -14.6479  -46.0911 C.3       2 UNK         0.1400 
     63 CB          2.6183  -15.5576  -45.5386 C.3       2 UNK        -0.1800 
     64 N           3.3339  -14.2023  -47.4288 N.am      2 UNK        -0.5000 
     65 C           4.1892  -13.7293  -48.3464 C.2       1 UNK         0.5000 
     66 O           5.4082  -13.6651  -48.1786 O.2       1 UNK        -0.5000 
     67 C          -0.4029  -21.9395  -47.2489 C.2       11 UNK         0.5000 
     68 O          -0.2743  -22.8513  -48.0627 O.2       11 UNK        -0.5000 
     69 N          -1.5522  -21.2764  -47.0541 N.am      12 UNK        -0.5000 
     70 CA         -2.7910  -21.5346  -47.7870 C.3       12 UNK         0.1400 
     71 CB         -3.8655  -20.5159  -47.3829 C.3       12 UNK        -0.1800 
     72 C          -3.3095  -22.9703  -47.6095 C.2       12 UNK         0.5000 
     73 O          -3.7310  -23.5764  -48.5946 O.2       12 UNK        -0.5000 
     74 N          -3.2352  -23.4967  -46.3795 N.am      13 UNK        -0.5000 
     75 CA         -3.5736  -24.8804  -46.0503 C.3       13 UNK         0.1400 
     76 CB         -3.5736  -25.0663  -44.5255 C.3       13 UNK        -0.1800 
     77 C          -2.6356  -25.8921  -46.7334 C.2       13 UNK         0.5000 
     78 O          -3.1190  -26.8334  -47.3638 O.2       13 UNK        -0.5000 
     79 N          -1.3182  -25.6580  -46.6378 N.am      14 UNK        -0.5000 
     80 CA         -0.2769  -26.4741  -47.2708 C.3       14 UNK         0.1400 
     81 CB          1.1041  -26.0000  -46.7938 C.3       14 UNK        -0.1800 
     82 C          -0.3530  -26.4655  -48.8100 C.2       14 UNK         0.5000 
     83 O          -0.1286  -27.4991  -49.4400 O.2       14 UNK        -0.5000 
     84 N          -0.7118  -25.3091  -49.3794 N.am      15 UNK        -0.5000 
     85 CA         -0.9358  -25.0847  -50.8063 C.3       15 UNK         0.1400 
     86 CB         -0.6783  -23.6002  -51.1151 C.3       15 UNK        -0.1800 
     87 C          -2.3327  -25.5254  -51.2943 C.2       15 UNK         0.5000 
     88 O          -2.6792  -25.2134  -52.4330 O.2       15 UNK        -0.5000 
     89 N          -3.1077  -26.2271  -50.4520 N.am      16 UNK        -0.5000 
     90 CA         -4.4196  -26.8186  -50.7370 C.3       16 UNK         0.1400 
     91 CB         -4.2827  -27.9691  -51.7564 C.3       16 UNK        -0.1800 
     92 C          -5.4678  -25.7660  -51.1506 C.2       16 UNK         0.5000 
     93 O          -6.0022  -25.8175  -52.2595 O.2       16 UNK        -0.5000 
     94 N          -5.7169  -24.8222  -50.2337 N.am      17 UNK        -0.5000 
     95 CA         -6.5709  -23.6392  -50.3731 C.3       17 UNK         0.1400 
     96 CB         -8.0262  -24.0046  -50.7369 C.3       17 UNK        -0.1800 
     97 C          -5.9376  -22.5978  -51.3134 C.2       17 UNK         0.5000 
     98 O          -6.6036  -22.0800  -52.2118 O.2       17 UNK        -0.5000 
     99 N          -4.6496  -22.3119  -51.0657 N.am      18 UNK        -0.5000 
    100 CA        -3.8216  -21.3034  -51.7360 C.3       18 UNK         0.1400 
    101 CB        -4.2662  -19.8891  -51.3133 C.3       18 UNK        -0.1800 
    102 C         -3.7829  -21.4930  -53.2645 C.2       18 UNK         0.5000 
    103 O         -4.1370  -20.5773  -54.0109 O.2       18 UNK        -0.5000 
    104 N         -3.4038  -22.7064  -53.6903 N.am      19 UNK        -0.5000 
    105 CA        -3.3589  -23.2295  -55.0597 C.3       19 UNK         0.1400 
    106 CB        -2.4479  -22.3831  -55.9720 C.3       19 UNK        -0.1800 
    107 C         -4.7580  -23.4360  -55.6675 C.2       19 UNK         0.5000 
    108 O         -5.1022  -24.5585  -56.0386 O.2       19 UNK        -0.5000 
    109 N         -5.5349  -22.3532  -55.7395 N.am      20 UNK        -0.5000 
    110 CA        -6.9135  -22.2873  -56.2130 C.3       20 UNK         0.1400 
    111 CB        -6.9862  -22.5492  -57.7339 C.3       20 UNK        -0.1800 
    112 C         -7.4967  -20.9206  -55.8141 C.2       20 UNK         0.5000 
    113 O         -8.0712  -20.2295  -56.6572 O.2       20 UNK        -0.5000 
    114 N         -7.2956  -20.5392  -54.5422 N.am      21 UNK        -0.5000 
    115 CA        -7.6199  -19.2420  -53.9415 C.3       21 UNK         0.1400 
    116 CB        -9.1479  -19.0660  -53.8189 C.3       21 UNK        -0.1800 
    117 C         -6.9271  -18.0766  -54.6792 C.2       21 UNK         0.5000 
    118 O         -7.6025  -17.2164  -55.2480 O.2       21 UNK        -0.5000 
    119 N         -5.5861  -18.1018  -54.6896 N.am      22 UNK        -0.5000 
    120 CA        -4.7182  -17.1653  -55.4290 C.3       22 UNK         0.1400 
    121 C         -4.8719  -15.6458  -55.1029 C.2       22 UNK         0.5000 
    122 N         -5.4520  -15.2601  -53.9728 N.am      22 UNK        -0.7600 
    123 O         -4.4608  -14.8039  -55.8973 O.2       22 UNK        -0.5000 
    124 C124       -3.2306  -17.6111  -55.3880 C.3       23 UNK        -0.0398 
    125 S125       -2.4314  -17.3900  -53.7582 S.3       23 UNK        -0.2404 
    126 C126       -1.0554  -18.5729  -53.8516 C.3       23 UNK        -0.0205 
    127 H127        1.6328   -9.1685  -49.6612 H         1 UNK         0.0600 
    128 H128        1.0196  -10.3374  -48.4880 H         1 UNK         0.0600 
    129 H129        0.2557  -10.1961  -50.0738 H         1 UNK         0.0600 
    130 H130        2.3715  -12.1002  -48.3135 H         1 UNK         0.3000 
    131 H131        4.3726  -12.7335  -50.2213 H         1 UNK         0.0600 
    132 H132        2.4090  -13.8737  -51.3671 H         1 UNK         0.0800 
    133 H133        2.1857  -14.8764  -49.9633 H         1 UNK         0.0800 
    134 H134        3.9266  -16.8883  -53.1274 H         1 UNK         0.0800 
    135 H135        2.8979  -15.4825  -53.2387 H         1 UNK         0.0800 
    136 H136        1.2037  -17.0883  -54.1162 H         1 UNK         0.1150 
    137 H137       -1.0235  -19.3374  -51.2300 H         1 UNK         0.1150 
    138 H138        2.6056  -17.3943  -50.0696 H         1 UNK         0.1150 
    139 H139        0.6025  -17.9903  -48.4170 H         1 UNK         0.0800 
    140 H140       -0.3921  -19.3312  -48.9342 H         1 UNK         0.0800 
    141 H141        0.7959  -19.3803  -46.4805 H         1 UNK         0.0800 
    142 H142        2.3617  -20.0649  -46.1926 H         1 UNK         0.0800 
    143 H143        1.5503  -22.3343  -46.4886 H         1 UNK         0.0600 
    144 H144        0.5393  -20.6617  -44.4626 H         1 UNK         0.3000 
    145 H145       -1.1390  -23.1351  -42.4900 H         1 UNK         0.0600 
    146 H146        0.3644  -22.0778  -40.8275 H         1 UNK         0.0600 
    147 H147        1.2874  -23.1242  -41.8964 H         1 UNK         0.0600 
    148 H148        1.3457  -21.3788  -42.1126 H         1 UNK         0.0600 
    149 H149       -0.9239  -20.3240  -42.1552 H         1 UNK         0.3000 
    150 H150       -3.9127  -19.4274  -43.9517 H         1 UNK         0.0600 
    151 H151       -4.5232  -20.1141  -41.6262 H         1 UNK         0.0600 
    152 H152       -4.3206  -18.3730  -41.7530 H         1 UNK         0.0600 
    153 H153       -3.0613  -19.3538  -41.0082 H         1 UNK         0.0600 
    154 H154       -2.0173  -17.7814  -42.6501 H         1 UNK         0.3000 
    155 H155        0.1347  -17.2173  -45.4789 H         1 UNK         0.0600 
    156 H156       -1.9192  -15.5537  -43.9298 H         1 UNK         0.0600 
    157 H157       -1.7108  -15.6246  -45.6701 H         1 UNK         0.0600 
    158 H158       -0.4706  -14.8876  -44.6682 H         1 UNK         0.0600 
    159 H159        0.3753  -16.2768  -42.8370 H         1 UNK         0.3000 
    160 H160        2.2035  -19.0336  -41.4483 H         1 UNK         0.0600 
    161 H161        3.0015  -16.1522  -42.1237 H         1 UNK         0.0600 
    162 H162        3.8618  -17.5955  -42.6407 H         1 UNK         0.0600 
    163 H163        3.7682  -17.1967  -40.9329 H         1 UNK         0.0600 
    164 H164        1.2471  -16.5125  -40.4247 H         1 UNK         0.3000 
    165 H165       -1.8464  -17.7362  -39.1529 H         1 UNK         0.0600 
    166 H166       -0.8765  -16.8101  -37.0669 H         1 UNK         0.0600 
    167 H167       -0.1255  -18.3513  -37.4481 H         1 UNK         0.0600 
    168 H168        0.7433  -16.8539  -37.7632 H         1 UNK         0.0600 
    169 H169       -0.5383  -15.1804  -39.0705 H         1 UNK         0.3000 
    170 H170       -1.8445  -13.9136  -42.1308 H         1 UNK         0.0600 
    171 H171       -3.7473  -13.6727  -40.5291 H         1 UNK         0.0600 
    172 H172       -2.6237  -13.2579  -39.2400 H         1 UNK         0.0600 
    173 H173       -2.8064  -12.1939  -40.6352 H         1 UNK         0.0600 
    174 H174       -0.3671  -12.6304  -40.0900 H         1 UNK         0.3000 
    175 H175        1.7806  -11.8772  -40.8507 H         1 UNK         0.0600 
    176 H176        2.7875  -14.5044  -39.5873 H         1 UNK         0.0600 
    177 H177        3.3852  -12.8936  -39.1993 H         1 UNK         0.0600 
    178 H178        1.7388  -13.3365  -38.7899 H         1 UNK         0.0600 
    179 H179        2.9813  -13.9174  -42.5128 H         1 UNK         0.3000 
    180 H180        5.4684  -11.7842  -43.6760 H         1 UNK         0.0600 
    181 H181        6.2650  -14.1231  -41.8617 H         1 UNK         0.0600 
    182 H182        6.8530  -12.4712  -41.7199 H         1 UNK         0.0600 
    183 H183        7.2581  -13.4202  -43.1398 H         1 UNK         0.0600 
    184 H184        5.1411  -14.6285  -43.9693 H         1 UNK         0.3000 
    185 H185        4.6428  -15.2302  -46.1684 H         1 UNK         0.0600 
    186 H186        2.8894  -15.9520  -44.5602 H         1 UNK         0.0600 
    187 H187        1.6804  -15.0160  -45.4259 H         1 UNK         0.0600 
    188 H188        2.4417  -16.4113  -46.1934 H         1 UNK         0.0600 
    189 H189        2.3449  -14.2021  -47.6278 H         1 UNK         0.3000 
    190 H190       -1.5796  -20.5134  -46.3801 H         1 UNK         0.3000 
    191 H191       -2.5742  -21.3930  -48.8470 H         1 UNK         0.0600 
    192 H192       -4.0822  -20.5620  -46.3153 H         1 UNK         0.0600 
    193 H193       -4.7993  -20.6975  -47.9166 H         1 UNK         0.0600 
    194 H194       -3.5502  -19.4988  -47.6161 H         1 UNK         0.0600 
    195 H195       -2.9190  -22.9091  -45.6136 H         1 UNK         0.3000 
    196 H196       -4.5862  -25.0704  -46.4124 H         1 UNK         0.0600 
    197 H197       -3.8354  -26.0903  -44.2562 H         1 UNK         0.0600 
    198 H198       -4.3011  -24.4082  -44.0500 H         1 UNK         0.0600 
    199 H199       -2.5973  -24.8508  -44.0909 H         1 UNK         0.0600 
    200 H200       -0.9983  -24.8653  -46.0875 H         1 UNK         0.3000 
    201 H201       -0.4161  -27.5050  -46.9394 H         1 UNK         0.0600 
    202 H202        1.1960  -26.0820  -45.7107 H         1 UNK         0.0600 
    203 H203        1.2882  -24.9602  -47.0663 H         1 UNK         0.0600 
    204 H204        1.8993  -26.6023  -47.2350 H         1 UNK         0.0600 
    205 H205       -0.8013  -24.4889  -48.7833 H         1 UNK         0.3000 
    206 H206       -0.2084  -25.6722  -51.3698 H         1 UNK         0.0600 
    207 H207        0.3395  -23.3153  -50.8475 H         1 UNK         0.0600 
    208 H208       -0.8054  -23.3783  -52.1753 H         1 UNK         0.0600 
    209 H209       -1.3569  -22.9605  -50.5532 H         1 UNK         0.0600 
    210 H210       -2.7599  -26.3865  -49.5145 H         1 UNK         0.3000 
    211 H211       -4.7701  -27.2542  -49.8001 H         1 UNK         0.0600 
    212 H212       -3.9472  -27.6133  -52.7311 H         1 UNK         0.0600 
    213 H213       -5.2383  -28.4733  -51.9044 H         1 UNK         0.0600 
    214 H214       -3.5705  -28.7182  -51.4103 H         1 UNK         0.0600 
    215 H215       -5.1347  -24.8194  -49.4029 H         1 UNK         0.3000 
    216 H216       -6.5966  -23.1740  -49.3866 H         1 UNK         0.0600 
    217 H217       -8.6709  -23.1274  -50.6720 H         1 UNK         0.0600 
    218 H218       -8.4277  -24.7542  -50.0552 H         1 UNK         0.0600 
    219 H219       -8.1128  -24.3910  -51.7525 H         1 UNK         0.0600 
    220 H220       -4.2066  -22.8232  -50.3079 H         1 UNK         0.3000 
    221 H221       -2.7999  -21.4374  -51.3849 H         1 UNK         0.0600 
    222 H222       -5.2798  -19.6651  -51.6433 H         1 UNK         0.0600 
    223 H223       -4.2357  -19.7722  -50.2310 H         1 UNK         0.0600 
    224 H224       -3.6085  -19.1303  -51.7349 H         1 UNK         0.0600 
    225 H225       -3.2046  -23.4179  -52.9928 H         1 UNK         0.3000 
    226 H226       -2.9034  -24.2178  -54.9806 H         1 UNK         0.0600 
    227 H227       -1.4484  -22.2871  -55.5478 H         1 UNK         0.0600 
    228 H228       -2.3422  -22.8512  -56.9512 H         1 UNK         0.0600 
    229 H229       -2.8390  -21.3790  -56.1356 H         1 UNK         0.0600 
    230 H230       -5.1591  -21.4912  -55.3516 H         1 UNK         0.3000 
    231 H231       -7.4965  -23.0511  -55.6948 H         1 UNK         0.0600 
    232 H232       -6.6268  -23.5452  -57.9906 H         1 UNK         0.0600 
    233 H233       -6.3916  -21.8251  -58.2920 H         1 UNK         0.0600 
    234 H234       -8.0133  -22.4817  -58.0944 H         1 UNK         0.0600 
    235 H235       -6.8540  -21.1952  -53.9017 H         1 UNK         0.3000 
    236 H236       -7.2140  -19.2580  -52.9298 H         1 UNK         0.0600 
    237 H237       -9.3917  -18.1384  -53.2998 H         1 UNK         0.0600 
    238 H238       -9.6361  -19.0329  -54.7932 H         1 UNK         0.0600 
    239 H239       -9.5918  -19.8829  -53.2498 H         1 UNK         0.0600 
    240 H240       -5.1060  -18.8768  -54.2414 H         1 UNK         0.3000 
    241 H241       -5.0344  -17.2570  -56.4698 H         1 UNK         0.0600 
    242 H242       -5.5508  -14.2774  -53.7733 H         1 UNK         0.3800 
    243 H243       -5.7911  -15.9440  -53.3162 H         1 UNK         0.3800 
    244 H244       -3.1516  -18.6578  -55.6848 H         1 UNK         0.0800 
    245 H245       -2.6526  -17.0520  -56.1256 H         1 UNK         0.0800 
    246 H246       -0.6035  -18.5322  -54.8439 H         1 UNK         0.0800 
    247 H247       -1.4339  -19.5877  -53.7242 H         1 UNK         0.0800 
@<TRIPOS>BOND
     1    1    2 1    
     2    1  127 1    
     3    1  128 1    
     4    1  129 1    
     5    2    3 2    
     6    2    4 am   BACKBONE|DICT|INTERRES
     7    4    5 1    
     8    4  130 1    
     9    5    6 1    
    10    5   65 1    
    11    5  131 1    
    12    6    7 1    
    13    6  132 1    
    14    6  133 1    
    15    7    8 1    
    16    8    9 1    
    17    8  134 1    
    18    8  135 1    
    19    9   10 ar   
    20    9   14 ar   
    21   10   11 ar   
    22   10  136 1    
    23   11   12 ar   
    24   11  126 1    
    25   12   13 ar   
    26   12  137 1    
    27   13   14 ar   
    28   13   15 1    
    29   14  138 1    
    30   15   16 1    
    31   15  139 1    
    32   15  140 1    
    33   16   17 1    
    34   17   18 1    
    35   17  141 1    
    36   17  142 1    
    37   18   19 1    
    38   18   67 1    
    39   18  143 1    
    40   19   20 am   BACKBONE|DICT|INTERRES
    41   19  144 1    
    42   20   21 2    
    43   20   22 1    
    44   22   23 1    
    45   22   24 1    
    46   22  145 1    
    47   23  146 1    
    48   23  147 1    
    49   23  148 1    
    50   24   25 am   BACKBONE|DICT|INTERRES
    51   24  149 1    
    52   25   26 2    
    53   25   27 1    
    54   27   28 1    
    55   27   29 1    
    56   27  150 1    
    57   28  151 1    
    58   28  152 1    
    59   28  153 1    
    60   29   30 am   BACKBONE|DICT|INTERRES
    61   29  154 1    
    62   30   31 2    
    63   30   32 1    
    64   32   33 1    
    65   32   34 1    
    66   32  155 1    
    67   33  156 1    
    68   33  157 1    
    69   33  158 1    
    70   34   35 am   BACKBONE|DICT|INTERRES
    71   34  159 1    
    72   35   36 2    
    73   35   37 1    
    74   37   38 1    
    75   37   39 1    
    76   37  160 1    
    77   38  161 1    
    78   38  162 1    
    79   38  163 1    
    80   39   40 am   BACKBONE|DICT|INTERRES
    81   39  164 1    
    82   40   41 2    
    83   40   42 1    
    84   42   43 1    
    85   42   44 1    
    86   42  165 1    
    87   43  166 1    
    88   43  167 1    
    89   43  168 1    
    90   44   45 am   BACKBONE|DICT|INTERRES
    91   44  169 1    
    92   45   46 2    
    93   45   47 1    
    94   47   48 1    
    95   47   49 1    
    96   47  170 1    
    97   48  171 1    
    98   48  172 1    
    99   48  173 1    
   100   49   50 am   BACKBONE|DICT|INTERRES
   101   49  174 1    
   102   50   51 2    
   103   50   52 1    
   104   52   53 1    
   105   52   54 1    
   106   52  175 1    
   107   53  176 1    
   108   53  177 1    
   109   53  178 1    
   110   54   55 am   BACKBONE|DICT|INTERRES
   111   54  179 1    
   112   55   56 2    
   113   55   57 1    
   114   57   58 1    
   115   57   59 1    
   116   57  180 1    
   117   58  181 1    
   118   58  182 1    
   119   58  183 1    
   120   59   60 am   BACKBONE|DICT|INTERRES
   121   59  184 1    
   122   60   61 2    
   123   60   62 1    
   124   62   63 1    
   125   62   64 1    
   126   62  185 1    
   127   63  186 1    
   128   63  187 1    
   129   63  188 1    
   130   64   65 am   BACKBONE|DICT|INTERRES
   131   64  189 1    
   132   65   66 2    
   133   67   68 2    
   134   67   69 am   BACKBONE|DICT|INTERRES
   135   69   70 1    
   136   69  190 1    
   137   70   71 1    
   138   70   72 1    
   139   70  191 1    
   140   71  192 1    
   141   71  193 1    
   142   71  194 1    
   143   72   73 2    
   144   72   74 am   BACKBONE|DICT|INTERRES
   145   74   75 1    
   146   74  195 1    
   147   75   76 1    
   148   75   77 1    
   149   75  196 1    
   150   76  197 1    
   151   76  198 1    
   152   76  199 1    
   153   77   78 2    
   154   77   79 am   BACKBONE|DICT|INTERRES
   155   79   80 1    
   156   79  200 1    
   157   80   81 1    
   158   80   82 1    
   159   80  201 1    
   160   81  202 1    
   161   81  203 1    
   162   81  204 1    
   163   82   83 2    
   164   82   84 am   BACKBONE|DICT|INTERRES
   165   84   85 1    
   166   84  205 1    
   167   85   86 1    
   168   85   87 1    
   169   85  206 1    
   170   86  207 1    
   171   86  208 1    
   172   86  209 1    
   173   87   88 2    
   174   87   89 am   BACKBONE|DICT|INTERRES
   175   89   90 1    
   176   89  210 1    
   177   90   91 1    
   178   90   92 1    
   179   90  211 1    
   180   91  212 1    
   181   91  213 1    
   182   91  214 1    
   183   92   93 2    
   184   92   94 am   BACKBONE|DICT|INTERRES
   185   94   95 1    
   186   94  215 1    
   187   95   96 1    
   188   95   97 1    
   189   95  216 1    
   190   96  217 1    
   191   96  218 1    
   192   96  219 1    
   193   97   98 2    
   194   97   99 am   BACKBONE|DICT|INTERRES
   195   99  100 1    
   196   99  220 1    
   197  100  101 1    
   198  100  102 1    
   199  100  221 1    
   200  101  222 1    
   201  101  223 1    
   202  101  224 1    
   203  102  103 2    
   204  102  104 am   BACKBONE|DICT|INTERRES
   205  104  105 1    
   206  104  225 1    
   207  105  106 1    
   208  105  107 1    
   209  105  226 1    
   210  106  227 1    
   211  106  228 1    
   212  106  229 1    
   213  107  108 2    
   214  107  109 am   BACKBONE|DICT|INTERRES
   215  109  110 1    
   216  109  230 1    
   217  110  111 1    
   218  110  112 1    
   219  110  231 1    
   220  111  232 1    
   221  111  233 1    
   222  111  234 1    
   223  112  113 2    
   224  112  114 am   BACKBONE|DICT|INTERRES
   225  114  115 1    
   226  114  235 1    
   227  115  116 1    
   228  115  117 1    
   229  115  236 1    
   230  116  237 1    
   231  116  238 1    
   232  116  239 1    
   233  117  118 2    
   234  117  119 am   BACKBONE|DICT|INTERRES
   235  119  120 1    
   236  119  240 1    
   237  120  121 1    
   238  120  124 1    
   239  120  241 1    
   240  121  122 am   BACKBONE|DICT|INTERRES
   241  121  123 2    
   242  122  242 1    
   243  122  243 1    
   244  124  125 1    
   245  124  244 1    
   246  124  245 1    
   247  125  126 1    
   248  126  246 1    
   249  126  247 1    
@<TRIPOS>SUBSTRUCTURE
     1 UNK         1 GROUP             0       ****    0 ROOT    
