@<TRIPOS>MOLECULE
3R540
247   249    1
SMALL
USER_CHARGES


@<TRIPOS>ATOM
      1 CA          2.7088  -10.0874  -48.8662 C.3       0 UNK        -0.1800 
      2 C           1.8935  -11.0484  -48.0149 C.2       0 UNK         0.5000 
      3 O           1.2587  -10.6253  -47.0491 O.2       0 UNK        -0.5000 
      4 N           1.8862  -12.3377  -48.3772 N.am      1 UNK        -0.5000 
      5 CA          1.2230  -13.4294  -47.6459 C.3       1 UNK         0.1400 
      6 C6          1.6394  -14.8204  -48.1750 C.3       23 UNK        -0.0398 
      7 S7          3.4395  -15.0966  -48.0675 S.3       23 UNK        -0.2404 
      8 C8          3.8154  -15.7836  -49.7102 C.3       23 UNK        -0.0205 
      9 C9          3.0395  -17.0611  -50.0048 C.ar      23 UNK        -0.0193 
     10 C10         2.1964  -17.1254  -51.1168 C.ar      23 UNK        -0.1150 
     11 C11         1.4982  -18.2978  -51.4163 C.ar      23 UNK        -0.0193 
     12 C12         1.6508  -19.4119  -50.5844 C.ar      23 UNK        -0.1150 
     13 C13         2.4880  -19.3672  -49.4623 C.ar      23 UNK        -0.0193 
     14 C14         3.1775  -18.1836  -49.1828 C.ar      23 UNK        -0.1150 
     15 C15         2.6695  -20.5603  -48.5227 C.3       23 UNK        -0.0205 
     16 S16         2.3898  -22.1976  -49.2798 S.3       23 UNK        -0.2404 
     17 C17         0.5892  -22.4005  -49.0541 C.3       23 UNK        -0.0398 
     18 CA          0.2794  -23.4338  -47.9492 C.3       11 UNK         0.1400 
     19 N           0.7405  -23.0053  -46.6275 N.am      11 UNK        -0.5000 
     20 C           0.9630  -23.8318  -45.5987 C.2       10 UNK         0.5000 
     21 O           0.8086  -25.0516  -45.6573 O.2       10 UNK        -0.5000 
     22 CA          1.3709  -23.1710  -44.2692 C.3       10 UNK         0.1400 
     23 CB          2.8514  -22.7629  -44.2957 C.3       10 UNK        -0.1800 
     24 N           0.5505  -21.9987  -43.9626 N.am      10 UNK        -0.5000 
     25 C          -0.7666  -22.0436  -43.7168 C.2       9 UNK         0.5000 
     26 O          -1.4111  -23.0905  -43.6538 O.2       9 UNK        -0.5000 
     27 CA         -1.4989  -20.6967  -43.5590 C.3       9 UNK         0.1400 
     28 CB         -1.5468  -20.2873  -42.0798 C.3       9 UNK        -0.1800 
     29 N          -0.9377  -19.5985  -44.3509 N.am      9 UNK        -0.5000 
     30 C          -0.7369  -19.5998  -45.6772 C.2       8 UNK         0.5000 
     31 O          -0.9726  -20.5624  -46.4056 O.2       8 UNK        -0.5000 
     32 CA         -0.1440  -18.3226  -46.2950 C.3       8 UNK         0.1400 
     33 CB         -1.2723  -17.3789  -46.7328 C.3       8 UNK        -0.1800 
     34 N           0.7789  -17.6266  -45.3933 N.am      8 UNK        -0.5000 
     35 C           1.9673  -18.1159  -45.0043 C.2       7 UNK         0.5000 
     36 O           2.4258  -19.1884  -45.3973 O.2       7 UNK        -0.5000 
     37 CA          2.7533  -17.2967  -43.9663 C.3       7 UNK         0.1400 
     38 CB          3.5550  -16.1737  -44.6377 C.3       7 UNK        -0.1800 
     39 N           1.8681  -16.7305  -42.9494 N.am      7 UNK        -0.5000 
     40 C           1.3814  -17.4296  -41.9130 C.2       6 UNK         0.5000 
     41 O           1.6998  -18.5940  -41.6714 O.2       6 UNK        -0.5000 
     42 CA          0.3541  -16.7293  -40.9988 C.3       6 UNK         0.1400 
     43 CB          1.0546  -16.1106  -39.7799 C.3       6 UNK        -0.1800 
     44 N          -0.4269  -15.6925  -41.6752 N.am      6 UNK        -0.5000 
     45 C          -1.2586  -15.9056  -42.7039 C.2       5 UNK         0.5000 
     46 O          -1.5082  -17.0230  -43.1530 O.2       5 UNK        -0.5000 
     47 CA         -1.8745  -14.6665  -43.3813 C.3       5 UNK         0.1400 
     48 CB         -3.2894  -14.4077  -42.8445 C.3       5 UNK        -0.1800 
     49 N          -1.0861  -13.4355  -43.2600 N.am      5 UNK        -0.5000 
     50 C           0.1861  -13.2684  -43.6458 C.2       4 UNK         0.5000 
     51 O           0.9010  -14.1839  -44.0575 O.2       4 UNK        -0.5000 
     52 CA          0.7286  -11.8285  -43.5705 C.3       4 UNK         0.1400 
     53 CB          2.2400  -11.7474  -43.8509 C.3       4 UNK        -0.1800 
     54 N           0.0238  -10.9650  -44.5166 N.am      4 UNK        -0.5000 
     55 C          -1.1804  -10.4108  -44.3201 C.2       3 UNK         0.5000 
     56 O          -1.8263  -10.5370  -43.2787 O.2       3 UNK        -0.5000 
     57 CA         -1.7769   -9.6280  -45.5001 C.3       3 UNK         0.1400 
     58 CB         -1.0494   -8.2885  -45.6985 C.3       3 UNK        -0.1800 
     59 N          -1.6850  -10.4213  -46.7244 N.am      3 UNK        -0.5000 
     60 C          -2.6600  -11.2122  -47.1955 C.2       2 UNK         0.5000 
     61 O          -3.7878  -11.2745  -46.7051 O.2       2 UNK        -0.5000 
     62 CA         -2.3191  -12.0974  -48.4128 C.3       2 UNK         0.1400 
     63 CB         -2.7004  -11.3936  -49.7235 C.3       2 UNK        -0.1800 
     64 N          -0.9052  -12.4723  -48.4634 N.am      2 UNK        -0.5000 
     65 C          -0.3171  -13.3067  -47.5945 C.2       1 UNK         0.5000 
     66 O          -0.9439  -13.9483  -46.7540 O.2       1 UNK        -0.5000 
     67 C          -1.2144  -23.8023  -47.9238 C.2       11 UNK         0.5000 
     68 O          -1.6076  -24.7372  -48.6184 O.2       11 UNK        -0.5000 
     69 N          -2.0137  -23.1194  -47.0910 N.am      12 UNK        -0.5000 
     70 CA         -3.4218  -23.4429  -46.8463 C.3       12 UNK         0.1400 
     71 CB         -4.0639  -22.3757  -45.9482 C.3       12 UNK        -0.1800 
     72 C          -3.6125  -24.8460  -46.2355 C.2       12 UNK         0.5000 
     73 O          -4.5893  -25.5196  -46.5604 O.2       12 UNK        -0.5000 
     74 N          -2.6656  -25.2702  -45.3892 N.am      13 UNK        -0.5000 
     75 CA         -2.6022  -26.6221  -44.8434 C.3       13 UNK         0.1400 
     76 CB         -1.7438  -26.6175  -43.5685 C.3       13 UNK        -0.1800 
     77 C          -2.0613  -27.6356  -45.8696 C.2       13 UNK         0.5000 
     78 O          -2.6549  -28.7018  -46.0358 O.2       13 UNK        -0.5000 
     79 N          -0.9348  -27.3020  -46.5158 N.am      14 UNK        -0.5000 
     80 CA         -0.1888  -28.2163  -47.3824 C.3       14 UNK         0.1400 
     81 CB          1.2495  -27.7005  -47.5460 C.3       14 UNK        -0.1800 
     82 C          -0.8282  -28.4581  -48.7622 C.2       14 UNK         0.5000 
     83 O          -0.8646  -29.6045  -49.2121 O.2       14 UNK        -0.5000 
     84 N          -1.2762  -27.3843  -49.4231 N.am      15 UNK        -0.5000 
     85 CA         -1.7268  -27.3880  -50.8184 C.3       15 UNK         0.1400 
     86 CB         -0.7967  -26.4730  -51.6320 C.3       15 UNK        -0.1800 
     87 C          -3.1871  -26.9331  -50.9816 C.2       15 UNK         0.5000 
     88 O          -3.8222  -27.3278  -51.9606 O.2       15 UNK        -0.5000 
     89 N          -3.6842  -26.1301  -50.0293 N.am      16 UNK        -0.5000 
     90 CA         -4.9867  -25.4546  -50.0011 C.3       16 UNK         0.1400 
     91 CB         -6.1573  -26.4433  -50.1917 C.3       16 UNK        -0.1800 
     92 C          -5.0634  -24.2559  -50.9684 C.2       16 UNK         0.5000 
     93 O          -4.1488  -24.0222  -51.7598 O.2       16 UNK        -0.5000 
     94 N          -6.1594  -23.4913  -50.8502 N.am      17 UNK        -0.5000 
     95 CA         -6.5208  -22.3216  -51.6634 C.3       17 UNK         0.1400 
     96 CB         -6.7838  -22.7368  -53.1266 C.3       17 UNK        -0.1800 
     97 C          -5.5362  -21.1360  -51.5647 C.2       17 UNK         0.5000 
     98 O          -5.4759  -20.3177  -52.4839 O.2       17 UNK        -0.5000 
     99 N          -4.7743  -21.0454  -50.4689 N.am      18 UNK        -0.5000 
    100 CA        -3.8918  -19.9151  -50.1818 C.3       18 UNK         0.1400 
    101 CB        -2.6923  -20.4142  -49.3634 C.3       18 UNK        -0.1800 
    102 C         -4.6731  -18.8265  -49.4164 C.2       18 UNK         0.5000 
    103 O         -5.5687  -19.1728  -48.6456 O.2       18 UNK        -0.5000 
    104 N         -4.3711  -17.5306  -49.5810 N.am      19 UNK        -0.5000 
    105 CA        -3.3563  -16.9291  -50.4557 C.3       19 UNK         0.1400 
    106 CB        -2.9138  -15.5984  -49.8220 C.3       19 UNK        -0.1800 
    107 C         -3.8538  -16.6847  -51.9000 C.2       19 UNK         0.5000 
    108 O         -3.1023  -16.1365  -52.7059 O.2       19 UNK        -0.5000 
    109 N         -5.1146  -17.0399  -52.1889 N.am      20 UNK        -0.5000 
    110 CA        -5.8205  -16.7408  -53.4379 C.3       20 UNK         0.1400 
    111 CB        -7.2878  -17.1778  -53.3012 C.3       20 UNK        -0.1800 
    112 C         -5.1888  -17.3569  -54.7010 C.2       20 UNK         0.5000 
    113 O         -5.0472  -16.6582  -55.7060 O.2       20 UNK        -0.5000 
    114 N         -4.8379  -18.6450  -54.6299 N.am      21 UNK        -0.5000 
    115 CA        -4.2604  -19.4174  -55.7313 C.3       21 UNK         0.1400 
    116 CB        -5.3452  -20.3189  -56.3429 C.3       21 UNK        -0.1800 
    117 C         -3.0538  -20.2525  -55.2771 C.2       21 UNK         0.5000 
    118 O         -2.0993  -20.3908  -56.0427 O.2       21 UNK        -0.5000 
    119 N         -3.1119  -20.7837  -54.0481 N.am      22 UNK        -0.5000 
    120 CA        -2.0567  -21.5769  -53.3861 C.3       22 UNK         0.1400 
    121 C         -1.7989  -22.9832  -54.0126 C.2       22 UNK         0.5000 
    122 N         -2.6766  -23.5039  -54.8619 N.am      22 UNK        -0.7600 
    123 O         -0.7928  -23.6221  -53.7170 O.2       22 UNK        -0.5000 
    124 C124       -0.7331  -20.7846  -53.1745 C.3       23 UNK        -0.0398 
    125 S125       -0.9884  -19.1596  -52.3832 S.3       23 UNK        -0.2404 
    126 C126        0.6192  -18.3502  -52.6624 C.3       23 UNK        -0.0205 
    127 H127        3.4714   -9.6036  -48.2561 H         1 UNK         0.0600 
    128 H128        2.0623   -9.3146  -49.2819 H         1 UNK         0.0600 
    129 H129        3.2056  -10.5979  -49.6916 H         1 UNK         0.0600 
    130 H130        2.4329  -12.6249  -49.1764 H         1 UNK         0.3000 
    131 H131        1.5601  -13.3646  -46.6103 H         1 UNK         0.0600 
    132 H132        1.1691  -15.6108  -47.5901 H         1 UNK         0.0800 
    133 H133        1.2990  -14.9522  -49.2033 H         1 UNK         0.0800 
    134 H134        3.6175  -15.0217  -50.4657 H         1 UNK         0.0800 
    135 H135        4.8830  -15.9995  -49.7650 H         1 UNK         0.0800 
    136 H136        2.0933  -16.2628  -51.7601 H         1 UNK         0.1150 
    137 H137        1.1140  -20.3157  -50.8220 H         1 UNK         0.1150 
    138 H138        3.8259  -18.1320  -48.3190 H         1 UNK         0.1150 
    139 H139        3.6864  -20.5536  -48.1275 H         1 UNK         0.0800 
    140 H140        2.0110  -20.4406  -47.6634 H         1 UNK         0.0800 
    141 H141        0.1756  -22.7264  -50.0106 H         1 UNK         0.0800 
    142 H142        0.1241  -21.4391  -48.8301 H         1 UNK         0.0800 
    143 H143        0.8153  -24.3499  -48.2062 H         1 UNK         0.0600 
    144 H144        0.8038  -22.0089  -46.4743 H         1 UNK         0.3000 
    145 H145        1.2296  -23.9046  -43.4727 H         1 UNK         0.0600 
    146 H146        3.1651  -22.3566  -43.3340 H         1 UNK         0.0600 
    147 H147        3.4890  -23.6216  -44.5098 H         1 UNK         0.0600 
    148 H148        3.0494  -22.0080  -45.0581 H         1 UNK         0.0600 
    149 H149        1.0022  -21.0959  -44.0097 H         1 UNK         0.3000 
    150 H150       -2.5251  -20.8361  -43.8983 H         1 UNK         0.0600 
    151 H151       -1.9958  -21.0733  -41.4712 H         1 UNK         0.0600 
    152 H152       -2.1447  -19.3874  -41.9362 H         1 UNK         0.0600 
    153 H153       -0.5495  -20.0962  -41.6838 H         1 UNK         0.0600 
    154 H154       -0.8013  -18.7215  -43.8581 H         1 UNK         0.3000 
    155 H155        0.4116  -18.6169  -47.1876 H         1 UNK         0.0600 
    156 H156       -1.9970  -17.8979  -47.3615 H         1 UNK         0.0600 
    157 H157       -0.8849  -16.5472  -47.3163 H         1 UNK         0.0600 
    158 H158       -1.8147  -16.9694  -45.8807 H         1 UNK         0.0600 
    159 H159        0.4655  -16.7487  -45.0042 H         1 UNK         0.3000 
    160 H160        3.4664  -17.9674  -43.4820 H         1 UNK         0.0600 
    161 H161        2.9055  -15.4647  -45.1505 H         1 UNK         0.0600 
    162 H162        4.2469  -16.5785  -45.3772 H         1 UNK         0.0600 
    163 H163        4.1446  -15.6185  -43.9083 H         1 UNK         0.0600 
    164 H164        1.5388  -15.7837  -43.1142 H         1 UNK         0.3000 
    165 H165       -0.3418  -17.4925  -40.6444 H         1 UNK         0.0600 
    166 H166        0.3323  -15.6850  -39.0829 H         1 UNK         0.0600 
    167 H167        1.6262  -16.8626  -39.2343 H         1 UNK         0.0600 
    168 H168        1.7469  -15.3201  -40.0725 H         1 UNK         0.0600 
    169 H169       -0.2743  -14.7405  -41.3775 H         1 UNK         0.3000 
    170 H170       -1.9532  -14.8932  -44.4457 H         1 UNK         0.0600 
    171 H171       -3.9152  -15.2956  -42.9456 H         1 UNK         0.0600 
    172 H172       -3.2744  -14.1333  -41.7891 H         1 UNK         0.0600 
    173 H173       -3.7781  -13.6032  -43.3948 H         1 UNK         0.0600 
    174 H174       -1.5916  -12.6053  -42.9721 H         1 UNK         0.3000 
    175 H175        0.5598  -11.4642  -42.5550 H         1 UNK         0.0600 
    176 H176        2.4856  -12.0767  -44.8605 H         1 UNK         0.0600 
    177 H177        2.6059  -10.7270  -43.7368 H         1 UNK         0.0600 
    178 H178        2.8008  -12.3736  -43.1559 H         1 UNK         0.0600 
    179 H179        0.4809  -10.8255  -45.4152 H         1 UNK         0.3000 
    180 H180       -2.8217   -9.4098  -45.2691 H         1 UNK         0.0600 
    181 H181        0.0056   -8.4271  -45.9374 H         1 UNK         0.0600 
    182 H182       -1.1042   -7.6785  -44.7960 H         1 UNK         0.0600 
    183 H183       -1.5010   -7.7138  -46.5071 H         1 UNK         0.0600 
    184 H184       -0.7683  -10.4685  -47.1540 H         1 UNK         0.3000 
    185 H185       -2.9133  -13.0094  -48.3298 H         1 UNK         0.0600 
    186 H186       -3.7563  -11.1198  -49.7264 H         1 UNK         0.0600 
    187 H187       -2.1234  -10.4802  -49.8732 H         1 UNK         0.0600 
    188 H188       -2.5322  -12.0436  -50.5826 H         1 UNK         0.0600 
    189 H189       -0.3249  -11.9868  -49.1316 H         1 UNK         0.3000 
    190 H190       -1.6306  -22.3118  -46.6065 H         1 UNK         0.3000 
    191 H191       -3.9278  -23.4162  -47.8120 H         1 UNK         0.0600 
    192 H192       -3.7311  -22.4705  -44.9158 H         1 UNK         0.0600 
    193 H193       -5.1492  -22.4812  -45.9444 H         1 UNK         0.0600 
    194 H194       -3.8369  -21.3649  -46.2859 H         1 UNK         0.0600 
    195 H195       -1.9313  -24.6282  -45.1159 H         1 UNK         0.3000 
    196 H196       -3.6107  -26.9342  -44.5631 H         1 UNK         0.0600 
    197 H197       -1.6904  -27.6146  -43.1299 H         1 UNK         0.0600 
    198 H198       -2.1650  -25.9518  -42.8148 H         1 UNK         0.0600 
    199 H199       -0.7229  -26.2898  -43.7662 H         1 UNK         0.0600 
    200 H200       -0.4803  -26.4229  -46.2889 H         1 UNK         0.3000 
    201 H201       -0.1320  -29.1832  -46.8773 H         1 UNK         0.0600 
    202 H202        1.7500  -27.6157  -46.5812 H         1 UNK         0.0600 
    203 H203        1.2748  -26.7205  -48.0227 H         1 UNK         0.0600 
    204 H204        1.8419  -28.3797  -48.1604 H         1 UNK         0.0600 
    205 H205       -1.2444  -26.4742  -48.9703 H         1 UNK         0.3000 
    206 H206       -1.6599  -28.3929  -51.2401 H         1 UNK         0.0600 
    207 H207        0.2367  -26.8161  -51.5840 H         1 UNK         0.0600 
    208 H208       -1.0859  -26.4550  -52.6837 H         1 UNK         0.0600 
    209 H209       -0.8264  -25.4444  -51.2695 H         1 UNK         0.0600 
    210 H210       -3.0261  -25.8010  -49.3309 H         1 UNK         0.3000 
    211 H211       -5.0809  -25.0393  -49.0011 H         1 UNK         0.0600 
    212 H212       -6.2439  -26.7828  -51.2240 H         1 UNK         0.0600 
    213 H213       -7.1087  -25.9823  -49.9256 H         1 UNK         0.0600 
    214 H214       -6.0391  -27.3211  -49.5562 H         1 UNK         0.0600 
    215 H215       -6.8440  -23.7500  -50.1532 H         1 UNK         0.3000 
    216 H216       -7.4632  -21.9532  -51.2562 H         1 UNK         0.0600 
    217 H217       -7.2159  -21.9137  -53.6969 H         1 UNK         0.0600 
    218 H218       -7.4862  -23.5685  -53.1808 H         1 UNK         0.0600 
    219 H219       -5.8664  -23.0390  -53.6328 H         1 UNK         0.0600 
    220 H220       -4.9100  -21.7161  -49.7286 H         1 UNK         0.3000 
    221 H221       -3.5238  -19.5165  -51.1254 H         1 UNK         0.0600 
    222 H222       -2.9967  -20.7669  -48.3795 H         1 UNK         0.0600 
    223 H223       -2.1839  -21.2334  -49.8714 H         1 UNK         0.0600 
    224 H224       -1.9587  -19.6217  -49.2132 H         1 UNK         0.0600 
    225 H225       -4.9138  -16.8635  -49.0524 H         1 UNK         0.3000 
    226 H226       -2.4786  -17.5729  -50.4974 H         1 UNK         0.0600 
    227 H227       -2.5869  -15.7336  -48.7918 H         1 UNK         0.0600 
    228 H228       -2.0777  -15.1597  -50.3684 H         1 UNK         0.0600 
    229 H229       -3.7230  -14.8671  -49.8201 H         1 UNK         0.0600 
    230 H230       -5.6611  -17.4821  -51.4652 H         1 UNK         0.3000 
    231 H231       -5.8051  -15.6564  -53.5650 H         1 UNK         0.0600 
    232 H232       -7.8481  -16.9567  -54.2107 H         1 UNK         0.0600 
    233 H233       -7.7813  -16.6547  -52.4821 H         1 UNK         0.0600 
    234 H234       -7.3735  -18.2494  -53.1156 H         1 UNK         0.0600 
    235 H235       -5.0245  -19.1487  -53.7656 H         1 UNK         0.3000 
    236 H236       -3.8967  -18.7444  -56.5106 H         1 UNK         0.0600 
    237 H237       -5.7589  -21.0068  -55.6048 H         1 UNK         0.0600 
    238 H238       -6.1673  -19.7264  -56.7447 H         1 UNK         0.0600 
    239 H239       -4.9431  -20.9157  -57.1626 H         1 UNK         0.0600 
    240 H240       -3.9524  -20.6400  -53.4987 H         1 UNK         0.3000 
    241 H241       -2.4532  -21.7968  -52.3946 H         1 UNK         0.0600 
    242 H242       -3.5146  -23.0016  -55.1019 H         1 UNK         0.3800 
    243 H243       -2.5064  -24.4173  -55.2504 H         1 UNK         0.3800 
    244 H244       -0.0438  -21.3578  -52.5535 H         1 UNK         0.0800 
    245 H245       -0.2300  -20.6364  -54.1309 H         1 UNK         0.0800 
    246 H246        0.4161  -17.3393  -53.0194 H         1 UNK         0.0800 
    247 H247        1.1665  -18.8501  -53.4621 H         1 UNK         0.0800 
@<TRIPOS>BOND
     1    1    2 1    
     2    1  127 1    
     3    1  128 1    
     4    1  129 1    
     5    2    3 2    
     6    2    4 am   BACKBONE|DICT|INTERRES
     7    4    5 1    
     8    4  130 1    
     9    5    6 1    
    10    5   65 1    
    11    5  131 1    
    12    6    7 1    
    13    6  132 1    
    14    6  133 1    
    15    7    8 1    
    16    8    9 1    
    17    8  134 1    
    18    8  135 1    
    19    9   10 ar   
    20    9   14 ar   
    21   10   11 ar   
    22   10  136 1    
    23   11   12 ar   
    24   11  126 1    
    25   12   13 ar   
    26   12  137 1    
    27   13   14 ar   
    28   13   15 1    
    29   14  138 1    
    30   15   16 1    
    31   15  139 1    
    32   15  140 1    
    33   16   17 1    
    34   17   18 1    
    35   17  141 1    
    36   17  142 1    
    37   18   19 1    
    38   18   67 1    
    39   18  143 1    
    40   19   20 am   BACKBONE|DICT|INTERRES
    41   19  144 1    
    42   20   21 2    
    43   20   22 1    
    44   22   23 1    
    45   22   24 1    
    46   22  145 1    
    47   23  146 1    
    48   23  147 1    
    49   23  148 1    
    50   24   25 am   BACKBONE|DICT|INTERRES
    51   24  149 1    
    52   25   26 2    
    53   25   27 1    
    54   27   28 1    
    55   27   29 1    
    56   27  150 1    
    57   28  151 1    
    58   28  152 1    
    59   28  153 1    
    60   29   30 am   BACKBONE|DICT|INTERRES
    61   29  154 1    
    62   30   31 2    
    63   30   32 1    
    64   32   33 1    
    65   32   34 1    
    66   32  155 1    
    67   33  156 1    
    68   33  157 1    
    69   33  158 1    
    70   34   35 am   BACKBONE|DICT|INTERRES
    71   34  159 1    
    72   35   36 2    
    73   35   37 1    
    74   37   38 1    
    75   37   39 1    
    76   37  160 1    
    77   38  161 1    
    78   38  162 1    
    79   38  163 1    
    80   39   40 am   BACKBONE|DICT|INTERRES
    81   39  164 1    
    82   40   41 2    
    83   40   42 1    
    84   42   43 1    
    85   42   44 1    
    86   42  165 1    
    87   43  166 1    
    88   43  167 1    
    89   43  168 1    
    90   44   45 am   BACKBONE|DICT|INTERRES
    91   44  169 1    
    92   45   46 2    
    93   45   47 1    
    94   47   48 1    
    95   47   49 1    
    96   47  170 1    
    97   48  171 1    
    98   48  172 1    
    99   48  173 1    
   100   49   50 am   BACKBONE|DICT|INTERRES
   101   49  174 1    
   102   50   51 2    
   103   50   52 1    
   104   52   53 1    
   105   52   54 1    
   106   52  175 1    
   107   53  176 1    
   108   53  177 1    
   109   53  178 1    
   110   54   55 am   BACKBONE|DICT|INTERRES
   111   54  179 1    
   112   55   56 2    
   113   55   57 1    
   114   57   58 1    
   115   57   59 1    
   116   57  180 1    
   117   58  181 1    
   118   58  182 1    
   119   58  183 1    
   120   59   60 am   BACKBONE|DICT|INTERRES
   121   59  184 1    
   122   60   61 2    
   123   60   62 1    
   124   62   63 1    
   125   62   64 1    
   126   62  185 1    
   127   63  186 1    
   128   63  187 1    
   129   63  188 1    
   130   64   65 am   BACKBONE|DICT|INTERRES
   131   64  189 1    
   132   65   66 2    
   133   67   68 2    
   134   67   69 am   BACKBONE|DICT|INTERRES
   135   69   70 1    
   136   69  190 1    
   137   70   71 1    
   138   70   72 1    
   139   70  191 1    
   140   71  192 1    
   141   71  193 1    
   142   71  194 1    
   143   72   73 2    
   144   72   74 am   BACKBONE|DICT|INTERRES
   145   74   75 1    
   146   74  195 1    
   147   75   76 1    
   148   75   77 1    
   149   75  196 1    
   150   76  197 1    
   151   76  198 1    
   152   76  199 1    
   153   77   78 2    
   154   77   79 am   BACKBONE|DICT|INTERRES
   155   79   80 1    
   156   79  200 1    
   157   80   81 1    
   158   80   82 1    
   159   80  201 1    
   160   81  202 1    
   161   81  203 1    
   162   81  204 1    
   163   82   83 2    
   164   82   84 am   BACKBONE|DICT|INTERRES
   165   84   85 1    
   166   84  205 1    
   167   85   86 1    
   168   85   87 1    
   169   85  206 1    
   170   86  207 1    
   171   86  208 1    
   172   86  209 1    
   173   87   88 2    
   174   87   89 am   BACKBONE|DICT|INTERRES
   175   89   90 1    
   176   89  210 1    
   177   90   91 1    
   178   90   92 1    
   179   90  211 1    
   180   91  212 1    
   181   91  213 1    
   182   91  214 1    
   183   92   93 2    
   184   92   94 am   BACKBONE|DICT|INTERRES
   185   94   95 1    
   186   94  215 1    
   187   95   96 1    
   188   95   97 1    
   189   95  216 1    
   190   96  217 1    
   191   96  218 1    
   192   96  219 1    
   193   97   98 2    
   194   97   99 am   BACKBONE|DICT|INTERRES
   195   99  100 1    
   196   99  220 1    
   197  100  101 1    
   198  100  102 1    
   199  100  221 1    
   200  101  222 1    
   201  101  223 1    
   202  101  224 1    
   203  102  103 2    
   204  102  104 am   BACKBONE|DICT|INTERRES
   205  104  105 1    
   206  104  225 1    
   207  105  106 1    
   208  105  107 1    
   209  105  226 1    
   210  106  227 1    
   211  106  228 1    
   212  106  229 1    
   213  107  108 2    
   214  107  109 am   BACKBONE|DICT|INTERRES
   215  109  110 1    
   216  109  230 1    
   217  110  111 1    
   218  110  112 1    
   219  110  231 1    
   220  111  232 1    
   221  111  233 1    
   222  111  234 1    
   223  112  113 2    
   224  112  114 am   BACKBONE|DICT|INTERRES
   225  114  115 1    
   226  114  235 1    
   227  115  116 1    
   228  115  117 1    
   229  115  236 1    
   230  116  237 1    
   231  116  238 1    
   232  116  239 1    
   233  117  118 2    
   234  117  119 am   BACKBONE|DICT|INTERRES
   235  119  120 1    
   236  119  240 1    
   237  120  121 1    
   238  120  124 1    
   239  120  241 1    
   240  121  122 am   BACKBONE|DICT|INTERRES
   241  121  123 2    
   242  122  242 1    
   243  122  243 1    
   244  124  125 1    
   245  124  244 1    
   246  124  245 1    
   247  125  126 1    
   248  126  246 1    
   249  126  247 1    
@<TRIPOS>SUBSTRUCTURE
     1 UNK         1 GROUP             0       ****    0 ROOT    
