@<TRIPOS>MOLECULE
3R540
247   249    1
SMALL
USER_CHARGES


@<TRIPOS>ATOM
      1 CA         -2.3830  -15.9390  -44.5856 C.3       0 UNK        -0.1800 
      2 C          -3.1741  -14.6536  -44.4396 C.2       0 UNK         0.5000 
      3 O          -3.1876  -14.0617  -43.3602 O.2       0 UNK        -0.5000 
      4 N          -3.8182  -14.2089  -45.5256 N.am      1 UNK        -0.5000 
      5 CA         -4.4335  -12.8812  -45.6205 C.3       1 UNK         0.1400 
      6 C6         -5.5179  -12.8146  -46.7213 C.3       23 UNK        -0.0398 
      7 S7         -4.9237  -13.2031  -48.4068 S.3       23 UNK        -0.2404 
      8 C8         -5.9111  -14.6703  -48.8405 C.3       23 UNK        -0.0205 
      9 C9         -5.2071  -15.9726  -48.4880 C.ar      23 UNK        -0.0193 
     10 C10        -4.1265  -16.4002  -49.2647 C.ar      23 UNK        -0.1150 
     11 C11        -3.5139  -17.6310  -49.0178 C.ar      23 UNK        -0.0193 
     12 C12        -3.9992  -18.4385  -47.9880 C.ar      23 UNK        -0.1150 
     13 C13        -5.0847  -18.0333  -47.2068 C.ar      23 UNK        -0.0193 
     14 C14        -5.6743  -16.7869  -47.4494 C.ar      23 UNK        -0.1150 
     15 C15        -5.6802  -18.9917  -46.1807 C.3       23 UNK        -0.0205 
     16 S16        -4.9056  -18.9056  -44.5308 S.3       23 UNK        -0.2404 
     17 C17        -3.1578  -19.3408  -44.8302 C.3       23 UNK        -0.0398 
     18 CA         -2.8901  -20.7553  -45.3947 C.3       11 UNK         0.1400 
     19 N          -1.5654  -20.8191  -46.0112 N.am      11 UNK        -0.5000 
     20 C          -1.1288  -21.8003  -46.8084 C.2       10 UNK         0.5000 
     21 O          -1.8168  -22.7610  -47.1512 O.2       10 UNK        -0.5000 
     22 CA          0.3347  -21.7080  -47.2742 C.3       10 UNK         0.1400 
     23 CB          0.4585  -20.7586  -48.4757 C.3       10 UNK        -0.1800 
     24 N           1.2443  -21.2820  -46.2072 N.am      10 UNK        -0.5000 
     25 C           1.4495  -21.9628  -45.0695 C.2       9 UNK         0.5000 
     26 O           0.9193  -23.0441  -44.8172 O.2       9 UNK        -0.5000 
     27 CA          2.3581  -21.3097  -44.0126 C.3       9 UNK         0.1400 
     28 CB          3.8392  -21.4834  -44.3798 C.3       9 UNK        -0.1800 
     29 N           2.0606  -19.8924  -43.8061 N.am      9 UNK        -0.5000 
     30 C           0.8930  -19.4160  -43.3498 C.2       8 UNK         0.5000 
     31 O          -0.0537  -20.1273  -43.0139 O.2       8 UNK        -0.5000 
     32 CA          0.7293  -17.8853  -43.3270 C.3       8 UNK         0.1400 
     33 CB          1.4364  -17.2649  -42.1136 C.3       8 UNK        -0.1800 
     34 N           1.2106  -17.2546  -44.5562 N.am      8 UNK        -0.5000 
     35 C           0.7192  -17.5080  -45.7777 C.2       7 UNK         0.5000 
     36 O          -0.2304  -18.2603  -45.9911 O.2       7 UNK        -0.5000 
     37 CA          1.4491  -16.8567  -46.9607 C.3       7 UNK         0.1400 
     38 CB          1.0091  -15.3963  -47.1461 C.3       7 UNK        -0.1800 
     39 N           2.9012  -16.9358  -46.8091 N.am      7 UNK        -0.5000 
     40 C           3.6003  -18.0774  -46.8959 C.2       6 UNK         0.5000 
     41 O           3.0968  -19.1707  -47.1527 O.2       6 UNK        -0.5000 
     42 CA          5.1092  -17.9896  -46.6040 C.3       6 UNK         0.1400 
     43 CB          5.8804  -17.5639  -47.8622 C.3       6 UNK        -0.1800 
     44 N           5.4157  -17.0659  -45.5115 N.am      6 UNK        -0.5000 
     45 C           5.0492  -17.2515  -44.2353 C.2       5 UNK         0.5000 
     46 O           4.4566  -18.2517  -43.8330 O.2       5 UNK        -0.5000 
     47 CA          5.3508  -16.1013  -43.2567 C.3       5 UNK         0.1400 
     48 CB          6.7524  -16.2615  -42.6498 C.3       5 UNK        -0.1800 
     49 N           5.2359  -14.7777  -43.8766 N.am      5 UNK        -0.5000 
     50 C           4.0980  -14.2674  -44.3657 C.2       4 UNK         0.5000 
     51 O           3.0217  -14.8693  -44.3586 O.2       4 UNK        -0.5000 
     52 CA          4.2033  -12.8859  -45.0384 C.3       4 UNK         0.1400 
     53 CB          4.3416  -13.0489  -46.5604 C.3       4 UNK        -0.1800 
     54 N           3.0515  -12.0293  -44.7588 N.am      4 UNK        -0.5000 
     55 C           2.7070  -11.5668  -43.5491 C.2       3 UNK         0.5000 
     56 O           3.3514  -11.7994  -42.5248 O.2       3 UNK        -0.5000 
     57 CA          1.4597  -10.6607  -43.4591 C.3       3 UNK         0.1400 
     58 CB          1.8652   -9.2229  -43.0946 C.3       3 UNK        -0.1800 
     59 N           0.6452  -10.6169  -44.6787 N.am      3 UNK        -0.5000 
     60 C          -0.1673  -11.5985  -45.0864 C.2       2 UNK         0.5000 
     61 O          -0.2574  -12.6889  -44.5192 O.2       2 UNK        -0.5000 
     62 CA         -0.9908  -11.3191  -46.3566 C.3       2 UNK         0.1400 
     63 CB         -0.1794  -11.6674  -47.6144 C.3       2 UNK        -0.1800 
     64 N          -2.2079  -12.1243  -46.3444 N.am      2 UNK        -0.5000 
     65 C          -3.3652  -11.7710  -45.7673 C.2       1 UNK         0.5000 
     66 O          -3.5952  -10.6423  -45.3301 O.2       1 UNK        -0.5000 
     67 C          -3.0971  -21.8708  -44.3512 C.2       11 UNK         0.5000 
     68 O          -4.1392  -22.5262  -44.3723 O.2       11 UNK        -0.5000 
     69 N          -2.0856  -22.1151  -43.5048 N.am      12 UNK        -0.5000 
     70 CA         -2.0698  -23.1978  -42.5170 C.3       12 UNK         0.1400 
     71 CB         -0.8511  -23.0348  -41.5963 C.3       12 UNK        -0.1800 
     72 C          -2.0859  -24.5994  -43.1576 C.2       12 UNK         0.5000 
     73 O          -2.7712  -25.4904  -42.6546 O.2       12 UNK        -0.5000 
     74 N          -1.3583  -24.7598  -44.2711 N.am      13 UNK        -0.5000 
     75 CA         -1.3237  -25.9782  -45.0833 C.3       13 UNK         0.1400 
     76 CB         -0.0807  -25.9310  -45.9865 C.3       13 UNK        -0.1800 
     77 C          -2.5898  -26.1879  -45.9397 C.2       13 UNK         0.5000 
     78 O          -2.7833  -27.2881  -46.4580 O.2       13 UNK        -0.5000 
     79 N          -3.4027  -25.1318  -46.0968 N.am      14 UNK        -0.5000 
     80 CA         -4.5748  -25.0221  -46.9720 C.3       14 UNK         0.1400 
     81 CB         -5.6989  -25.9795  -46.5263 C.3       14 UNK        -0.1800 
     82 C          -4.2162  -25.1612  -48.4677 C.2       14 UNK         0.5000 
     83 O          -5.0219  -25.6537  -49.2593 O.2       14 UNK        -0.5000 
     84 N          -3.0149  -24.6941  -48.8380 N.am      15 UNK        -0.5000 
     85 CA         -2.4671  -24.7397  -50.1956 C.3       15 UNK         0.1400 
     86 CB         -0.9874  -24.3320  -50.1554 C.3       15 UNK        -0.1800 
     87 C          -3.2460  -23.8580  -51.1874 C.2       15 UNK         0.5000 
     88 O          -3.2810  -24.1702  -52.3769 O.2       15 UNK        -0.5000 
     89 N          -3.9052  -22.8129  -50.6663 N.am      16 UNK        -0.5000 
     90 CA         -4.7908  -21.8989  -51.3911 C.3       16 UNK         0.1400 
     91 CB         -5.2693  -20.8119  -50.4199 C.3       16 UNK        -0.1800 
     92 C          -5.9989  -22.5829  -52.0658 C.2       16 UNK         0.5000 
     93 O          -6.5439  -22.0377  -53.0259 O.2       16 UNK        -0.5000 
     94 N          -6.3995  -23.7581  -51.5592 N.am      17 UNK        -0.5000 
     95 CA         -7.4517  -24.5873  -52.1448 C.3       17 UNK         0.1400 
     96 CB         -8.0407  -25.4902  -51.0498 C.3       17 UNK        -0.1800 
     97 C          -6.9487  -25.4370  -53.3288 C.2       17 UNK         0.5000 
     98 O          -7.7641  -25.8555  -54.1517 O.2       17 UNK        -0.5000 
     99 N          -5.6347  -25.6951  -53.3911 N.am      18 UNK        -0.5000 
    100 CA        -5.0019  -26.5238  -54.4160 C.3       18 UNK         0.1400 
    101 CB        -3.8403  -27.3092  -53.7855 C.3       18 UNK        -0.1800 
    102 C         -4.5049  -25.6888  -55.6070 C.2       18 UNK         0.5000 
    103 O         -4.6251  -26.1371  -56.7482 O.2       18 UNK        -0.5000 
    104 N         -3.9573  -24.4996  -55.3322 N.am      19 UNK        -0.5000 
    105 CA        -3.3882  -23.5848  -56.3186 C.3       19 UNK         0.1400 
    106 CB        -1.9759  -24.0627  -56.7105 C.3       19 UNK        -0.1800 
    107 C         -3.3435  -22.1659  -55.7357 C.2       19 UNK         0.5000 
    108 O         -3.5769  -21.9824  -54.5403 O.2       19 UNK        -0.5000 
    109 N         -3.0005  -21.1786  -56.5724 N.am      20 UNK        -0.5000 
    110 CA        -2.7987  -19.7773  -56.1891 C.3       20 UNK         0.1400 
    111 CB        -2.9070  -18.8991  -57.4486 C.3       20 UNK        -0.1800 
    112 C         -1.4636  -19.5752  -55.4363 C.2       20 UNK         0.5000 
    113 O         -0.5853  -18.8484  -55.9047 O.2       20 UNK        -0.5000 
    114 N         -1.3324  -20.2452  -54.2841 N.am      21 UNK        -0.5000 
    115 CA        -0.1243  -20.3513  -53.4601 C.3       21 UNK         0.1400 
    116 CB        -0.4262  -21.2808  -52.2739 C.3       21 UNK        -0.1800 
    117 C          0.4482  -19.0087  -52.9632 C.2       21 UNK         0.5000 
    118 O          1.6579  -18.9102  -52.7540 O.2       21 UNK        -0.5000 
    119 N         -0.4242  -18.0078  -52.8036 N.am      22 UNK        -0.5000 
    120 CA        -0.0757  -16.6284  -52.4239 C.3       22 UNK         0.1400 
    121 C          0.0112  -15.6596  -53.6412 C.2       22 UNK         0.5000 
    122 N         -0.1053  -16.1205  -54.8819 N.am      22 UNK        -0.7600 
    123 O          0.2058  -14.4606  -53.4618 O.2       22 UNK        -0.5000 
    124 C124       -1.0231  -16.0872  -51.3209 C.3       23 UNK        -0.0398 
    125 S125       -0.9039  -17.0668  -49.7849 S.3       23 UNK        -0.2404 
    126 C126       -2.3744  -18.1285  -49.8959 C.3       23 UNK        -0.0205 
    127 H127       -1.3306  -15.7405  -44.3853 H         1 UNK         0.0600 
    128 H128       -2.4649  -16.3483  -45.5926 H         1 UNK         0.0600 
    129 H129       -2.7366  -16.6797  -43.8700 H         1 UNK         0.0600 
    130 H130       -3.8151  -14.7532  -46.3776 H         1 UNK         0.3000 
    131 H131       -4.9442  -12.6862  -44.6747 H         1 UNK         0.0600 
    132 H132       -6.3295  -13.4926  -46.4557 H         1 UNK         0.0800 
    133 H133       -5.9697  -11.8213  -46.7425 H         1 UNK         0.0800 
    134 H134       -6.0892  -14.6540  -49.9168 H         1 UNK         0.0800 
    135 H135       -6.8986  -14.6185  -48.3800 H         1 UNK         0.0800 
    136 H136       -3.7759  -15.7788  -50.0758 H         1 UNK         0.1150 
    137 H137       -3.5502  -19.4057  -47.8233 H         1 UNK         0.1150 
    138 H138       -6.5272  -16.4746  -46.8633 H         1 UNK         0.1150 
    139 H139       -6.7432  -18.7764  -46.0629 H         1 UNK         0.0800 
    140 H140       -5.6370  -20.0143  -46.5564 H         1 UNK         0.0800 
    141 H141       -2.5978  -19.1858  -43.9065 H         1 UNK         0.0800 
    142 H142       -2.7713  -18.6006  -45.5273 H         1 UNK         0.0800 
    143 H143       -3.6044  -20.9517  -46.1937 H         1 UNK         0.0600 
    144 H144       -0.9449  -20.0337  -45.8306 H         1 UNK         0.3000 
    145 H145        0.6409  -22.7056  -47.5952 H         1 UNK         0.0600 
    146 H146        0.2354  -19.7276  -48.2017 H         1 UNK         0.0600 
    147 H147        1.4644  -20.7811  -48.8949 H         1 UNK         0.0600 
    148 H148       -0.2327  -21.0380  -49.2703 H         1 UNK         0.0600 
    149 H149        1.7504  -20.4153  -46.3615 H         1 UNK         0.3000 
    150 H150        2.1838  -21.8237  -43.0652 H         1 UNK         0.0600 
    151 H151        4.0858  -22.5364  -44.5210 H         1 UNK         0.0600 
    152 H152        4.4874  -21.1004  -43.5915 H         1 UNK         0.0600 
    153 H153        4.0908  -20.9601  -45.3023 H         1 UNK         0.0600 
    154 H154        2.8085  -19.2369  -44.0146 H         1 UNK         0.3000 
    155 H155       -0.3373  -17.6718  -43.2406 H         1 UNK         0.0600 
    156 H156        1.2863  -16.1855  -42.0798 H         1 UNK         0.0600 
    157 H157        1.0462  -17.6787  -41.1830 H         1 UNK         0.0600 
    158 H158        2.5096  -17.4526  -42.1306 H         1 UNK         0.0600 
    159 H159        1.9662  -16.5825  -44.4656 H         1 UNK         0.3000 
    160 H160        1.1811  -17.4114  -47.8605 H         1 UNK         0.0600 
    161 H161       -0.0699  -15.3353  -47.2936 H         1 UNK         0.0600 
    162 H162        1.4812  -14.9511  -48.0218 H         1 UNK         0.0600 
    163 H163        1.2506  -14.7802  -46.2801 H         1 UNK         0.0600 
    164 H164        3.3772  -16.0907  -46.5329 H         1 UNK         0.3000 
    165 H165        5.4513  -18.9850  -46.3130 H         1 UNK         0.0600 
    166 H166        6.9564  -17.5720  -47.6867 H         1 UNK         0.0600 
    167 H167        5.6821  -18.2463  -48.6899 H         1 UNK         0.0600 
    168 H168        5.6003  -16.5616  -48.1886 H         1 UNK         0.0600 
    169 H169        5.9067  -16.2180  -45.7527 H         1 UNK         0.3000 
    170 H170        4.6203  -16.1561  -42.4471 H         1 UNK         0.0600 
    171 H171        6.8578  -17.2323  -42.1634 H         1 UNK         0.0600 
    172 H172        7.5323  -16.1882  -43.4088 H         1 UNK         0.0600 
    173 H173        6.9448  -15.4991  -41.8948 H         1 UNK         0.0600 
    174 H174        6.0822  -14.2286  -43.9244 H         1 UNK         0.3000 
    175 H175        5.0939  -12.3789  -44.6612 H         1 UNK         0.0600 
    176 H176        3.4583  -13.5153  -46.9981 H         1 UNK         0.0600 
    177 H177        4.4864  -12.0847  -47.0482 H         1 UNK         0.0600 
    178 H178        5.2014  -13.6705  -46.8135 H         1 UNK         0.0600 
    179 H179        2.4498  -11.8089  -45.5369 H         1 UNK         0.3000 
    180 H180        0.8405  -11.0520  -42.6491 H         1 UNK         0.0600 
    181 H181        2.4838   -8.7708  -43.8708 H         1 UNK         0.0600 
    182 H182        2.4357   -9.1986  -42.1651 H         1 UNK         0.0600 
    183 H183        0.9894   -8.5898  -42.9504 H         1 UNK         0.0600 
    184 H184        0.6824   -9.7577  -45.2086 H         1 UNK         0.3000 
    185 H185       -1.2508  -10.2589  -46.3884 H         1 UNK         0.0600 
    186 H186        0.1156  -12.7164  -47.6275 H         1 UNK         0.0600 
    187 H187       -0.7551  -11.4722  -48.5194 H         1 UNK         0.0600 
    188 H188        0.7305  -11.0692  -47.6739 H         1 UNK         0.0600 
    189 H189       -2.1000  -13.0891  -46.6180 H         1 UNK         0.3000 
    190 H190       -1.2702  -21.5074  -43.5210 H         1 UNK         0.3000 
    191 H191       -2.9702  -23.1034  -41.9066 H         1 UNK         0.0600 
    192 H192        0.0845  -23.0863  -42.1538 H         1 UNK         0.0600 
    193 H193       -0.8259  -23.8182  -40.8378 H         1 UNK         0.0600 
    194 H194       -0.8766  -22.0778  -41.0749 H         1 UNK         0.0600 
    195 H195       -0.7570  -23.9984  -44.5746 H         1 UNK         0.3000 
    196 H196       -1.2309  -26.8378  -44.4166 H         1 UNK         0.0600 
    197 H197       -0.1156  -25.0830  -46.6717 H         1 UNK         0.0600 
    198 H198        0.0038  -26.8365  -46.5886 H         1 UNK         0.0600 
    199 H199        0.8324  -25.8472  -45.3969 H         1 UNK         0.0600 
    200 H200       -3.1349  -24.2735  -45.6332 H         1 UNK         0.3000 
    201 H201       -4.9446  -24.0035  -46.8470 H         1 UNK         0.0600 
    202 H202       -5.9255  -25.8540  -45.4675 H         1 UNK         0.0600 
    203 H203       -5.4340  -27.0239  -46.6924 H         1 UNK         0.0600 
    204 H204       -6.6184  -25.7856  -47.0797 H         1 UNK         0.0600 
    205 H205       -2.4526  -24.2172  -48.1368 H         1 UNK         0.3000 
    206 H206       -2.5314  -25.7707  -50.5495 H         1 UNK         0.0600 
    207 H207       -0.4187  -24.9735  -49.4821 H         1 UNK         0.0600 
    208 H208       -0.5333  -24.4129  -51.1438 H         1 UNK         0.0600 
    209 H209       -0.8648  -23.3023  -49.8208 H         1 UNK         0.0600 
    210 H210       -3.8126  -22.6554  -49.6740 H         1 UNK         0.3000 
    211 H211       -4.2008  -21.4148  -52.1689 H         1 UNK         0.0600 
    212 H212       -5.8387  -21.2309  -49.5893 H         1 UNK         0.0600 
    213 H213       -5.9064  -20.0843  -50.9245 H         1 UNK         0.0600 
    214 H214       -4.4223  -20.2679  -50.0085 H         1 UNK         0.0600 
    215 H215       -5.9036  -24.1495  -50.7683 H         1 UNK         0.3000 
    216 H216       -8.2512  -23.9418  -52.5146 H         1 UNK         0.0600 
    217 H217       -8.8717  -26.0811  -51.4370 H         1 UNK         0.0600 
    218 H218       -8.4216  -24.9023  -50.2145 H         1 UNK         0.0600 
    219 H219       -7.2983  -26.1870  -50.6592 H         1 UNK         0.0600 
    220 H220       -5.0132  -25.2548  -52.7238 H         1 UNK         0.3000 
    221 H221       -5.7226  -27.2513  -54.7958 H         1 UNK         0.0600 
    222 H222       -3.0624  -26.6483  -53.4020 H         1 UNK         0.0600 
    223 H223       -4.1876  -27.9314  -52.9605 H         1 UNK         0.0600 
    224 H224       -3.3753  -27.9700  -54.5180 H         1 UNK         0.0600 
    225 H225       -3.8951  -24.1761  -54.3699 H         1 UNK         0.3000 
    226 H226       -4.0292  -23.5626  -57.2023 H         1 UNK         0.0600 
    227 H227       -1.9993  -25.0629  -57.1432 H         1 UNK         0.0600 
    228 H228       -1.5238  -23.4050  -57.4535 H         1 UNK         0.0600 
    229 H229       -1.3109  -24.0891  -55.8461 H         1 UNK         0.0600 
    230 H230       -2.7921  -21.4078  -57.5336 H         1 UNK         0.3000 
    231 H231       -3.6008  -19.4803  -55.5099 H         1 UNK         0.0600 
    232 H232       -2.7930  -17.8430  -57.2003 H         1 UNK         0.0600 
    233 H233       -3.8798  -19.0147  -57.9270 H         1 UNK         0.0600 
    234 H234       -2.1401  -19.1494  -58.1828 H         1 UNK         0.0600 
    235 H235       -2.1086  -20.8470  -54.0227 H         1 UNK         0.3000 
    236 H236        0.6452  -20.8216  -54.0754 H         1 UNK         0.0600 
    237 H237        0.4598  -21.4267  -51.6549 H         1 UNK         0.0600 
    238 H238       -0.7477  -22.2645  -52.6170 H         1 UNK         0.0600 
    239 H239       -1.2135  -20.8762  -51.6365 H         1 UNK         0.0600 
    240 H240       -1.3920  -18.1786  -53.0292 H         1 UNK         0.3000 
    241 H241        0.9303  -16.6233  -52.0004 H         1 UNK         0.0600 
    242 H242       -0.0375  -15.4738  -55.6516 H         1 UNK         0.3800 
    243 H243       -0.2268  -17.1095  -55.0756 H         1 UNK         0.3800 
    244 H244       -2.0533  -16.0569  -51.6769 H         1 UNK         0.0800 
    245 H245       -0.7631  -15.0598  -51.0610 H         1 UNK         0.0800 
    246 H246       -2.0781  -19.1357  -49.5996 H         1 UNK         0.0800 
    247 H247       -2.7179  -18.2099  -50.9274 H         1 UNK         0.0800 
@<TRIPOS>BOND
     1    1    2 1    
     2    1  127 1    
     3    1  128 1    
     4    1  129 1    
     5    2    3 2    
     6    2    4 am   BACKBONE|DICT|INTERRES
     7    4    5 1    
     8    4  130 1    
     9    5    6 1    
    10    5   65 1    
    11    5  131 1    
    12    6    7 1    
    13    6  132 1    
    14    6  133 1    
    15    7    8 1    
    16    8    9 1    
    17    8  134 1    
    18    8  135 1    
    19    9   10 ar   
    20    9   14 ar   
    21   10   11 ar   
    22   10  136 1    
    23   11   12 ar   
    24   11  126 1    
    25   12   13 ar   
    26   12  137 1    
    27   13   14 ar   
    28   13   15 1    
    29   14  138 1    
    30   15   16 1    
    31   15  139 1    
    32   15  140 1    
    33   16   17 1    
    34   17   18 1    
    35   17  141 1    
    36   17  142 1    
    37   18   19 1    
    38   18   67 1    
    39   18  143 1    
    40   19   20 am   BACKBONE|DICT|INTERRES
    41   19  144 1    
    42   20   21 2    
    43   20   22 1    
    44   22   23 1    
    45   22   24 1    
    46   22  145 1    
    47   23  146 1    
    48   23  147 1    
    49   23  148 1    
    50   24   25 am   BACKBONE|DICT|INTERRES
    51   24  149 1    
    52   25   26 2    
    53   25   27 1    
    54   27   28 1    
    55   27   29 1    
    56   27  150 1    
    57   28  151 1    
    58   28  152 1    
    59   28  153 1    
    60   29   30 am   BACKBONE|DICT|INTERRES
    61   29  154 1    
    62   30   31 2    
    63   30   32 1    
    64   32   33 1    
    65   32   34 1    
    66   32  155 1    
    67   33  156 1    
    68   33  157 1    
    69   33  158 1    
    70   34   35 am   BACKBONE|DICT|INTERRES
    71   34  159 1    
    72   35   36 2    
    73   35   37 1    
    74   37   38 1    
    75   37   39 1    
    76   37  160 1    
    77   38  161 1    
    78   38  162 1    
    79   38  163 1    
    80   39   40 am   BACKBONE|DICT|INTERRES
    81   39  164 1    
    82   40   41 2    
    83   40   42 1    
    84   42   43 1    
    85   42   44 1    
    86   42  165 1    
    87   43  166 1    
    88   43  167 1    
    89   43  168 1    
    90   44   45 am   BACKBONE|DICT|INTERRES
    91   44  169 1    
    92   45   46 2    
    93   45   47 1    
    94   47   48 1    
    95   47   49 1    
    96   47  170 1    
    97   48  171 1    
    98   48  172 1    
    99   48  173 1    
   100   49   50 am   BACKBONE|DICT|INTERRES
   101   49  174 1    
   102   50   51 2    
   103   50   52 1    
   104   52   53 1    
   105   52   54 1    
   106   52  175 1    
   107   53  176 1    
   108   53  177 1    
   109   53  178 1    
   110   54   55 am   BACKBONE|DICT|INTERRES
   111   54  179 1    
   112   55   56 2    
   113   55   57 1    
   114   57   58 1    
   115   57   59 1    
   116   57  180 1    
   117   58  181 1    
   118   58  182 1    
   119   58  183 1    
   120   59   60 am   BACKBONE|DICT|INTERRES
   121   59  184 1    
   122   60   61 2    
   123   60   62 1    
   124   62   63 1    
   125   62   64 1    
   126   62  185 1    
   127   63  186 1    
   128   63  187 1    
   129   63  188 1    
   130   64   65 am   BACKBONE|DICT|INTERRES
   131   64  189 1    
   132   65   66 2    
   133   67   68 2    
   134   67   69 am   BACKBONE|DICT|INTERRES
   135   69   70 1    
   136   69  190 1    
   137   70   71 1    
   138   70   72 1    
   139   70  191 1    
   140   71  192 1    
   141   71  193 1    
   142   71  194 1    
   143   72   73 2    
   144   72   74 am   BACKBONE|DICT|INTERRES
   145   74   75 1    
   146   74  195 1    
   147   75   76 1    
   148   75   77 1    
   149   75  196 1    
   150   76  197 1    
   151   76  198 1    
   152   76  199 1    
   153   77   78 2    
   154   77   79 am   BACKBONE|DICT|INTERRES
   155   79   80 1    
   156   79  200 1    
   157   80   81 1    
   158   80   82 1    
   159   80  201 1    
   160   81  202 1    
   161   81  203 1    
   162   81  204 1    
   163   82   83 2    
   164   82   84 am   BACKBONE|DICT|INTERRES
   165   84   85 1    
   166   84  205 1    
   167   85   86 1    
   168   85   87 1    
   169   85  206 1    
   170   86  207 1    
   171   86  208 1    
   172   86  209 1    
   173   87   88 2    
   174   87   89 am   BACKBONE|DICT|INTERRES
   175   89   90 1    
   176   89  210 1    
   177   90   91 1    
   178   90   92 1    
   179   90  211 1    
   180   91  212 1    
   181   91  213 1    
   182   91  214 1    
   183   92   93 2    
   184   92   94 am   BACKBONE|DICT|INTERRES
   185   94   95 1    
   186   94  215 1    
   187   95   96 1    
   188   95   97 1    
   189   95  216 1    
   190   96  217 1    
   191   96  218 1    
   192   96  219 1    
   193   97   98 2    
   194   97   99 am   BACKBONE|DICT|INTERRES
   195   99  100 1    
   196   99  220 1    
   197  100  101 1    
   198  100  102 1    
   199  100  221 1    
   200  101  222 1    
   201  101  223 1    
   202  101  224 1    
   203  102  103 2    
   204  102  104 am   BACKBONE|DICT|INTERRES
   205  104  105 1    
   206  104  225 1    
   207  105  106 1    
   208  105  107 1    
   209  105  226 1    
   210  106  227 1    
   211  106  228 1    
   212  106  229 1    
   213  107  108 2    
   214  107  109 am   BACKBONE|DICT|INTERRES
   215  109  110 1    
   216  109  230 1    
   217  110  111 1    
   218  110  112 1    
   219  110  231 1    
   220  111  232 1    
   221  111  233 1    
   222  111  234 1    
   223  112  113 2    
   224  112  114 am   BACKBONE|DICT|INTERRES
   225  114  115 1    
   226  114  235 1    
   227  115  116 1    
   228  115  117 1    
   229  115  236 1    
   230  116  237 1    
   231  116  238 1    
   232  116  239 1    
   233  117  118 2    
   234  117  119 am   BACKBONE|DICT|INTERRES
   235  119  120 1    
   236  119  240 1    
   237  120  121 1    
   238  120  124 1    
   239  120  241 1    
   240  121  122 am   BACKBONE|DICT|INTERRES
   241  121  123 2    
   242  122  242 1    
   243  122  243 1    
   244  124  125 1    
   245  124  244 1    
   246  124  245 1    
   247  125  126 1    
   248  126  246 1    
   249  126  247 1    
@<TRIPOS>SUBSTRUCTURE
     1 UNK         1 GROUP             0       ****    0 ROOT    
