@<TRIPOS>MOLECULE
3R540
247   249    1
SMALL
USER_CHARGES


@<TRIPOS>ATOM
      1 CA         -5.1131  -12.9334  -42.5259 C.3       0 UNK        -0.1800 
      2 C          -4.3087  -11.9609  -43.3769 C.2       0 UNK         0.5000 
      3 O          -4.4599  -10.7481  -43.2297 O.2       0 UNK        -0.5000 
      4 N          -3.4569  -12.4898  -44.2658 N.am      1 UNK        -0.5000 
      5 CA         -2.5774  -11.7188  -45.1553 C.3       1 UNK         0.1400 
      6 C6         -1.9976  -12.6243  -46.2699 C.3       23 UNK        -0.0398 
      7 S7         -1.4060  -11.7042  -47.7311 S.3       23 UNK        -0.2404 
      8 C8         -0.3288  -12.9419  -48.5228 C.3       23 UNK        -0.0205 
      9 C9         -1.1264  -14.0806  -49.1436 C.ar      23 UNK        -0.0193 
     10 C10        -1.4971  -14.0304  -50.4911 C.ar      23 UNK        -0.1150 
     11 C11        -2.2390  -15.0679  -51.0664 C.ar      23 UNK        -0.0193 
     12 C12        -2.6159  -16.1566  -50.2740 C.ar      23 UNK        -0.1150 
     13 C13        -2.2500  -16.2220  -48.9271 C.ar      23 UNK        -0.0193 
     14 C14        -1.4934  -15.1869  -48.3724 C.ar      23 UNK        -0.1150 
     15 C15        -2.6564  -17.4116  -48.0706 C.3       23 UNK        -0.0205 
     16 S16        -4.4537  -17.6892  -48.0737 S.3       23 UNK        -0.2404 
     17 C17        -4.6875  -18.6669  -46.5533 C.3       23 UNK        -0.0398 
     18 CA         -4.3889  -20.1716  -46.7570 C.3       11 UNK         0.1400 
     19 N          -2.9503  -20.4718  -46.7486 N.am      11 UNK        -0.5000 
     20 C          -2.4157  -21.6585  -47.0717 C.2       10 UNK         0.5000 
     21 O          -3.0775  -22.6228  -47.4497 O.2       10 UNK        -0.5000 
     22 CA         -0.9000  -21.8196  -46.8903 C.3       10 UNK         0.1400 
     23 CB         -0.1423  -21.2551  -48.1011 C.3       10 UNK        -0.1800 
     24 N          -0.4448  -21.1856  -45.6529 N.am      10 UNK        -0.5000 
     25 C          -0.6692  -21.6997  -44.4327 C.2       9 UNK         0.5000 
     26 O          -1.2191  -22.7849  -44.2475 O.2       9 UNK        -0.5000 
     27 CA         -0.2456  -20.8601  -43.2107 C.3       9 UNK         0.1400 
     28 CB          1.1689  -21.2498  -42.7580 C.3       9 UNK        -0.1800 
     29 N          -0.2968  -19.4172  -43.4472 N.am      9 UNK        -0.5000 
     30 C          -1.4158  -18.7260  -43.7143 C.2       8 UNK         0.5000 
     31 O          -2.5383  -19.2320  -43.7379 O.2       8 UNK        -0.5000 
     32 CA         -1.2529  -17.2367  -44.0873 C.3       8 UNK         0.1400 
     33 CB         -1.4356  -16.3459  -42.8500 C.3       8 UNK        -0.1800 
     34 N           0.0301  -16.9167  -44.7211 N.am      8 UNK        -0.5000 
     35 C           0.5390  -17.5119  -45.8106 C.2       7 UNK         0.5000 
     36 O          -0.0635  -18.3645  -46.4609 O.2       7 UNK        -0.5000 
     37 CA          1.9807  -17.1438  -46.2073 C.3       7 UNK         0.1400 
     38 CB          1.9736  -16.1231  -47.3534 C.3       7 UNK        -0.1800 
     39 N           2.8028  -16.6232  -45.1097 N.am      7 UNK        -0.5000 
     40 C           3.0948  -17.2606  -43.9648 C.2       6 UNK         0.5000 
     41 O           2.6229  -18.3560  -43.6549 O.2       6 UNK        -0.5000 
     42 CA          4.0548  -16.5231  -43.0082 C.3       6 UNK         0.1400 
     43 CB          4.7001  -17.4516  -41.9584 C.3       6 UNK        -0.1800 
     44 N           5.0647  -15.7331  -43.7240 N.am      6 UNK        -0.5000 
     45 C           6.0454  -16.1916  -44.5212 C.2       5 UNK         0.5000 
     46 O           6.2617  -17.3876  -44.7186 O.2       5 UNK        -0.5000 
     47 CA          6.9192  -15.1500  -45.2554 C.3       5 UNK         0.1400 
     48 CB          6.6788  -15.2259  -46.7725 C.3       5 UNK        -0.1800 
     49 N           6.6828  -13.7719  -44.8233 N.am      5 UNK        -0.5000 
     50 C           7.0954  -13.2359  -43.6669 C.2       4 UNK         0.5000 
     51 O           7.8103  -13.8261  -42.8567 O.2       4 UNK        -0.5000 
     52 CA          6.5954  -11.8112  -43.3483 C.3       4 UNK         0.1400 
     53 CB          7.6871  -10.7769  -43.6625 C.3       4 UNK        -0.1800 
     54 N           5.3629  -11.4329  -44.0535 N.am      4 UNK        -0.5000 
     55 C           4.1722  -12.0289  -43.9037 C.2       3 UNK         0.5000 
     56 O           3.9851  -13.0168  -43.1887 O.2       3 UNK        -0.5000 
     57 CA          3.0141  -11.4703  -44.7487 C.3       3 UNK         0.1400 
     58 CB          2.8954  -12.2463  -46.0699 C.3       3 UNK        -0.1800 
     59 N           1.7411  -11.5575  -44.0367 N.am      3 UNK        -0.5000 
     60 C           1.3977  -10.7999  -42.9866 C.2       2 UNK         0.5000 
     61 O           2.1150   -9.9063  -42.5315 O.2       2 UNK        -0.5000 
     62 CA          0.0243  -11.0972  -42.3425 C.3       2 UNK         0.1400 
     63 CB         -0.5356   -9.8996  -41.5463 C.3       2 UNK        -0.1800 
     64 N          -0.9830  -11.6022  -43.2868 N.am      2 UNK        -0.5000 
     65 C          -1.4645  -10.9786  -44.3763 C.2       1 UNK         0.5000 
     66 O          -1.0878   -9.8702  -44.7591 O.2       1 UNK        -0.5000 
     67 C          -5.1475  -21.0288  -45.7240 C.2       11 UNK         0.5000 
     68 O          -6.2032  -21.5721  -46.0510 O.2       11 UNK        -0.5000 
     69 N          -4.5640  -21.2003  -44.5285 N.am      12 UNK        -0.5000 
     70 CA         -5.0606  -22.0927  -43.4755 C.3       12 UNK         0.1400 
     71 CB         -4.2134  -21.8954  -42.2098 C.3       12 UNK        -0.1800 
     72 C          -5.0831  -23.5812  -43.8869 C.2       12 UNK         0.5000 
     73 O          -5.8993  -24.3422  -43.3672 O.2       12 UNK        -0.5000 
     74 N          -4.2156  -23.9557  -44.8354 N.am      13 UNK        -0.5000 
     75 CA         -4.1323  -25.2767  -45.4552 C.3       13 UNK         0.1400 
     76 CB         -2.6472  -25.6250  -45.6601 C.3       13 UNK        -0.1800 
     77 C          -4.9247  -25.3596  -46.7789 C.2       13 UNK         0.5000 
     78 O          -4.6717  -26.2696  -47.5682 O.2       13 UNK        -0.5000 
     79 N          -5.8536  -24.4191  -47.0166 N.am      14 UNK        -0.5000 
     80 CA         -6.7258  -24.3109  -48.1930 C.3       14 UNK         0.1400 
     81 CB         -7.7051  -25.5017  -48.2640 C.3       14 UNK        -0.1800 
     82 C          -5.9274  -24.1065  -49.4959 C.2       14 UNK         0.5000 
     83 O          -6.0691  -24.8782  -50.4463 O.2       14 UNK        -0.5000 
     84 N          -5.0625  -23.0829  -49.4848 N.am      15 UNK        -0.5000 
     85 CA         -4.0956  -22.7252  -50.5295 C.3       15 UNK         0.1400 
     86 CB         -4.8113  -22.2488  -51.8102 C.3       15 UNK        -0.1800 
     87 C          -3.0776  -23.8572  -50.7738 C.2       15 UNK         0.5000 
     88 O          -2.7805  -24.1915  -51.9214 O.2       15 UNK        -0.5000 
     89 N          -2.5951  -24.4457  -49.6686 N.am      16 UNK        -0.5000 
     90 CA         -1.7117  -25.6137  -49.5972 C.3       16 UNK         0.1400 
     91 CB         -0.2965  -25.2413  -50.0869 C.3       16 UNK        -0.1800 
     92 C          -2.3082  -26.8323  -50.3334 C.2       16 UNK         0.5000 
     93 O          -1.6561  -27.4101  -51.2018 O.2       16 UNK        -0.5000 
     94 N          -3.5677  -27.1591  -50.0086 N.am      17 UNK        -0.5000 
     95 CA         -4.4215  -28.1551  -50.6671 C.3       17 UNK         0.1400 
     96 CB         -3.9104  -29.5833  -50.3866 C.3       17 UNK        -0.1800 
     97 C          -4.6136  -27.8595  -52.1717 C.2       17 UNK         0.5000 
     98 O          -4.5183  -28.7631  -53.0044 O.2       17 UNK        -0.5000 
     99 N          -4.8543  -26.5772  -52.4792 N.am      18 UNK        -0.5000 
    100 CA        -5.0078  -25.9749  -53.8071 C.3       18 UNK         0.1400 
    101 CB        -6.2808  -26.5050  -54.4990 C.3       18 UNK        -0.1800 
    102 C         -3.7569  -26.0640  -54.7121 C.2       18 UNK         0.5000 
    103 O         -3.8828  -25.9098  -55.9286 O.2       18 UNK        -0.5000 
    104 N         -2.5732  -26.2966  -54.1270 N.am      19 UNK        -0.5000 
    105 CA        -1.3000  -26.3423  -54.8473 C.3       19 UNK         0.1400 
    106 CB        -0.2953  -27.2044  -54.0696 C.3       19 UNK        -0.1800 
    107 C         -0.7115  -24.9432  -55.1018 C.2       19 UNK         0.5000 
    108 O          0.0228  -24.7738  -56.0769 O.2       19 UNK        -0.5000 
    109 N         -1.0178  -23.9714  -54.2303 N.am      20 UNK        -0.5000 
    110 CA        -0.5664  -22.5871  -54.3622 C.3       20 UNK         0.1400 
    111 CB        -0.7017  -21.8731  -53.0076 C.3       20 UNK        -0.1800 
    112 C         -1.3650  -21.8418  -55.4454 C.2       20 UNK         0.5000 
    113 O         -2.5567  -22.1063  -55.6268 O.2       20 UNK        -0.5000 
    114 N         -0.7083  -20.8780  -56.1058 N.am      21 UNK        -0.5000 
    115 CA        -1.2784  -20.0363  -57.1667 C.3       21 UNK         0.1400 
    116 CB        -0.1659  -19.1563  -57.7571 C.3       21 UNK        -0.1800 
    117 C         -2.4694  -19.1669  -56.7124 C.2       21 UNK         0.5000 
    118 O         -3.3041  -18.7981  -57.5395 O.2       21 UNK        -0.5000 
    119 N         -2.5356  -18.8822  -55.4067 N.am      22 UNK        -0.5000 
    120 CA        -3.6684  -18.2328  -54.7321 C.3       22 UNK         0.1400 
    121 C         -4.9309  -19.1363  -54.5815 C.2       22 UNK         0.5000 
    122 N         -4.8796  -20.4313  -54.8744 N.am      22 UNK        -0.7600 
    123 O         -5.9889  -18.6450  -54.1985 O.2       22 UNK        -0.5000 
    124 C124       -3.2417  -17.6490  -53.3615 C.3       23 UNK        -0.0398 
    125 S125       -1.9545  -16.3592  -53.5232 S.3       23 UNK        -0.2404 
    126 C126       -2.6502  -14.9940  -52.5329 C.3       23 UNK        -0.0205 
    127 H127       -6.1799  -12.7850  -42.6937 H         1 UNK         0.0600 
    128 H128       -4.9066  -12.7659  -41.4689 H         1 UNK         0.0600 
    129 H129       -4.8735  -13.9714  -42.7583 H         1 UNK         0.0600 
    130 H130       -3.4004  -13.4945  -44.3484 H         1 UNK         0.3000 
    131 H131       -3.2001  -10.9570  -45.6302 H         1 UNK         0.0600 
    132 H132       -2.7744  -13.3016  -46.6280 H         1 UNK         0.0800 
    133 H133       -1.1987  -13.2575  -45.8802 H         1 UNK         0.0800 
    134 H134        0.3824  -13.3276  -47.7934 H         1 UNK         0.0800 
    135 H135        0.2676  -12.4463  -49.2902 H         1 UNK         0.0800 
    136 H136       -1.2117  -13.1767  -51.0898 H         1 UNK         0.1150 
    137 H137       -3.2003  -16.9584  -50.6985 H         1 UNK         0.1150 
    138 H138       -1.1982  -15.2372  -47.3345 H         1 UNK         0.1150 
    139 H139       -2.1460  -18.3046  -48.4328 H         1 UNK         0.0800 
    140 H140       -2.3322  -17.2550  -47.0444 H         1 UNK         0.0800 
    141 H141       -5.7298  -18.5170  -46.2643 H         1 UNK         0.0800 
    142 H142       -4.0950  -18.2483  -45.7393 H         1 UNK         0.0800 
    143 H143       -4.7747  -20.4624  -47.7366 H         1 UNK         0.0600 
    144 H144       -2.3328  -19.7440  -46.4193 H         1 UNK         0.3000 
    145 H145       -0.6805  -22.8879  -46.8322 H         1 UNK         0.0600 
    146 H146       -0.3663  -20.2023  -48.2717 H         1 UNK         0.0600 
    147 H147        0.9357  -21.3526  -47.9728 H         1 UNK         0.0600 
    148 H148       -0.4117  -21.7944  -49.0104 H         1 UNK         0.0600 
    149 H149       -0.0389  -20.2604  -45.7394 H         1 UNK         0.3000 
    150 H150       -0.9376  -21.0877  -42.3976 H         1 UNK         0.0600 
    151 H151        1.2242  -22.3130  -42.5204 H         1 UNK         0.0600 
    152 H152        1.4634  -20.7004  -41.8636 H         1 UNK         0.0600 
    153 H153        1.9086  -21.0475  -43.5337 H         1 UNK         0.0600 
    154 H154        0.5961  -18.9365  -43.4761 H         1 UNK         0.3000 
    155 H155       -2.0439  -16.9902  -44.7957 H         1 UNK         0.0600 
    156 H156       -2.3944  -16.5398  -42.3669 H         1 UNK         0.0600 
    157 H157       -1.4157  -15.2893  -43.1167 H         1 UNK         0.0600 
    158 H158       -0.6537  -16.5214  -42.1099 H         1 UNK         0.0600 
    159 H159        0.6110  -16.2451  -44.2427 H         1 UNK         0.3000 
    160 H160        2.4564  -18.0587  -46.5659 H         1 UNK         0.0600 
    161 H161        2.9821  -15.9319  -47.7205 H         1 UNK         0.0600 
    162 H162        1.5452  -15.1739  -47.0353 H         1 UNK         0.0600 
    163 H163        1.3842  -16.4835  -48.1980 H         1 UNK         0.0600 
    164 H164        3.2415  -15.7288  -45.2668 H         1 UNK         0.3000 
    165 H165        3.4403  -15.8018  -42.4675 H         1 UNK         0.0600 
    166 H166        5.2654  -18.2608  -42.4210 H         1 UNK         0.0600 
    167 H167        5.3762  -16.8988  -41.3061 H         1 UNK         0.0600 
    168 H168        3.9401  -17.9092  -41.3241 H         1 UNK         0.0600 
    169 H169        4.9610  -14.7286  -43.6215 H         1 UNK         0.3000 
    170 H170        7.9632  -15.4024  -45.0588 H         1 UNK         0.0600 
    171 H171        5.6461  -14.9861  -47.0293 H         1 UNK         0.0600 
    172 H172        7.3284  -14.5351  -47.3103 H         1 UNK         0.0600 
    173 H173        6.8873  -16.2264  -47.1540 H         1 UNK         0.0600 
    174 H174        6.1139  -13.2013  -45.4304 H         1 UNK         0.3000 
    175 H175        6.3879  -11.7747  -42.2769 H         1 UNK         0.0600 
    176 H176        7.9196  -10.7483  -44.7277 H         1 UNK         0.0600 
    177 H177        7.3827   -9.7757  -43.3569 H         1 UNK         0.0600 
    178 H178        8.6111  -11.0093  -43.1311 H         1 UNK         0.0600 
    179 H179        5.4347  -10.6395  -44.6746 H         1 UNK         0.3000 
    180 H180        3.2122  -10.4204  -44.9754 H         1 UNK         0.0600 
    181 H181        2.6830  -13.3019  -45.8992 H         1 UNK         0.0600 
    182 H182        3.8194  -12.1858  -46.6463 H         1 UNK         0.0600 
    183 H183        2.0994  -11.8388  -46.6935 H         1 UNK         0.0600 
    184 H184        1.1067  -12.2842  -44.3281 H         1 UNK         0.3000 
    185 H185        0.2019  -11.9049  -41.6310 H         1 UNK         0.0600 
    186 H186        0.1403   -9.6131  -40.7397 H         1 UNK         0.0600 
    187 H187       -0.6783   -9.0238  -42.1800 H         1 UNK         0.0600 
    188 H188       -1.4957  -10.1433  -41.0913 H         1 UNK         0.0600 
    189 H189       -1.3810  -12.5004  -43.0532 H         1 UNK         0.3000 
    190 H190       -3.7220  -20.6726  -44.3155 H         1 UNK         0.3000 
    191 H191       -6.0876  -21.7992  -43.2490 H         1 UNK         0.0600 
    192 H192       -3.1758  -22.1862  -42.3729 H         1 UNK         0.0600 
    193 H193       -4.2232  -20.8548  -41.8849 H         1 UNK         0.0600 
    194 H194       -4.5968  -22.4979  -41.3854 H         1 UNK         0.0600 
    195 H195       -3.5818  -23.2599  -45.2049 H         1 UNK         0.3000 
    196 H196       -4.5600  -26.0245  -44.7848 H         1 UNK         0.0600 
    197 H197       -2.1040  -25.5930  -44.7154 H         1 UNK         0.0600 
    198 H198       -2.1613  -24.9294  -46.3436 H         1 UNK         0.0600 
    199 H199       -2.5260  -26.6296  -46.0669 H         1 UNK         0.0600 
    200 H200       -5.9546  -23.6718  -46.3400 H         1 UNK         0.3000 
    201 H201       -7.3206  -23.4071  -48.0527 H         1 UNK         0.0600 
    202 H202       -8.4231  -25.3659  -49.0735 H         1 UNK         0.0600 
    203 H203       -8.2733  -25.5996  -47.3391 H         1 UNK         0.0600 
    204 H204       -7.1900  -26.4460  -48.4426 H         1 UNK         0.0600 
    205 H205       -4.9390  -22.5943  -48.6079 H         1 UNK         0.3000 
    206 H206       -3.5199  -21.8814  -50.1466 H         1 UNK         0.0600 
    207 H207       -5.4540  -21.3930  -51.6045 H         1 UNK         0.0600 
    208 H208       -5.4293  -23.0303  -52.2496 H         1 UNK         0.0600 
    209 H209       -4.0942  -21.9373  -52.5692 H         1 UNK         0.0600 
    210 H210       -2.9021  -24.0656  -48.7787 H         1 UNK         0.3000 
    211 H211       -1.6383  -25.8927  -48.5458 H         1 UNK         0.0600 
    212 H212        0.1053  -24.3991  -49.5238 H         1 UNK         0.0600 
    213 H213        0.3928  -26.0765  -49.9589 H         1 UNK         0.0600 
    214 H214       -0.2894  -24.9710  -51.1434 H         1 UNK         0.0600 
    215 H215       -4.0108  -26.6546  -49.2427 H         1 UNK         0.3000 
    216 H216       -5.4071  -28.0601  -50.2087 H         1 UNK         0.0600 
    217 H217       -4.6069  -30.3292  -50.7710 H         1 UNK         0.0600 
    218 H218       -2.9429  -29.7679  -50.8545 H         1 UNK         0.0600 
    219 H219       -3.8047  -29.7597  -49.3162 H         1 UNK         0.0600 
    220 H220       -4.9619  -25.9266  -51.7060 H         1 UNK         0.3000 
    221 H221       -5.1570  -24.9103  -53.6283 H         1 UNK         0.0600 
    222 H222       -6.1834  -27.5549  -54.7762 H         1 UNK         0.0600 
    223 H223       -7.1510  -26.4076  -53.8498 H         1 UNK         0.0600 
    224 H224       -6.4953  -25.9453  -55.4101 H         1 UNK         0.0600 
    225 H225       -2.5350  -26.3929  -53.1195 H         1 UNK         0.3000 
    226 H226       -1.4615  -26.8180  -55.8170 H         1 UNK         0.0600 
    227 H227       -0.7066  -28.1886  -53.8443 H         1 UNK         0.0600 
    228 H228        0.6161  -27.3559  -54.6490 H         1 UNK         0.0600 
    229 H229       -0.0070  -26.7349  -53.1286 H         1 UNK         0.0600 
    230 H230       -1.6688  -24.1672  -53.4737 H         1 UNK         0.3000 
    231 H231        0.4895  -22.5935  -54.6410 H         1 UNK         0.0600 
    232 H232       -0.2664  -20.8740  -53.0472 H         1 UNK         0.0600 
    233 H233       -0.1875  -22.4208  -52.2174 H         1 UNK         0.0600 
    234 H234       -1.7446  -21.7615  -52.7131 H         1 UNK         0.0600 
    235 H235        0.2635  -20.7135  -55.8856 H         1 UNK         0.3000 
    236 H236       -1.6442  -20.6998  -57.9530 H         1 UNK         0.0600 
    237 H237        0.2581  -18.4875  -57.0069 H         1 UNK         0.0600 
    238 H238        0.6434  -19.7622  -58.1649 H         1 UNK         0.0600 
    239 H239       -0.5472  -18.5372  -58.5703 H         1 UNK         0.0600 
    240 H240       -1.7928  -19.2123  -54.8102 H         1 UNK         0.3000 
    241 H241       -3.9839  -17.3968  -55.3592 H         1 UNK         0.0600 
    242 H242       -4.0241  -20.8755  -55.1926 H         1 UNK         0.3800 
    243 H243       -5.7152  -20.9846  -54.7786 H         1 UNK         0.3800 
    244 H244       -4.1076  -17.2258  -52.8504 H         1 UNK         0.0800 
    245 H245       -2.8630  -18.4394  -52.7113 H         1 UNK         0.0800 
    246 H246       -3.7378  -14.9752  -52.6107 H         1 UNK         0.0800 
    247 H247       -2.3055  -14.0562  -52.9711 H         1 UNK         0.0800 
@<TRIPOS>BOND
     1    1    2 1    
     2    1  127 1    
     3    1  128 1    
     4    1  129 1    
     5    2    3 2    
     6    2    4 am   BACKBONE|DICT|INTERRES
     7    4    5 1    
     8    4  130 1    
     9    5    6 1    
    10    5   65 1    
    11    5  131 1    
    12    6    7 1    
    13    6  132 1    
    14    6  133 1    
    15    7    8 1    
    16    8    9 1    
    17    8  134 1    
    18    8  135 1    
    19    9   10 ar   
    20    9   14 ar   
    21   10   11 ar   
    22   10  136 1    
    23   11   12 ar   
    24   11  126 1    
    25   12   13 ar   
    26   12  137 1    
    27   13   14 ar   
    28   13   15 1    
    29   14  138 1    
    30   15   16 1    
    31   15  139 1    
    32   15  140 1    
    33   16   17 1    
    34   17   18 1    
    35   17  141 1    
    36   17  142 1    
    37   18   19 1    
    38   18   67 1    
    39   18  143 1    
    40   19   20 am   BACKBONE|DICT|INTERRES
    41   19  144 1    
    42   20   21 2    
    43   20   22 1    
    44   22   23 1    
    45   22   24 1    
    46   22  145 1    
    47   23  146 1    
    48   23  147 1    
    49   23  148 1    
    50   24   25 am   BACKBONE|DICT|INTERRES
    51   24  149 1    
    52   25   26 2    
    53   25   27 1    
    54   27   28 1    
    55   27   29 1    
    56   27  150 1    
    57   28  151 1    
    58   28  152 1    
    59   28  153 1    
    60   29   30 am   BACKBONE|DICT|INTERRES
    61   29  154 1    
    62   30   31 2    
    63   30   32 1    
    64   32   33 1    
    65   32   34 1    
    66   32  155 1    
    67   33  156 1    
    68   33  157 1    
    69   33  158 1    
    70   34   35 am   BACKBONE|DICT|INTERRES
    71   34  159 1    
    72   35   36 2    
    73   35   37 1    
    74   37   38 1    
    75   37   39 1    
    76   37  160 1    
    77   38  161 1    
    78   38  162 1    
    79   38  163 1    
    80   39   40 am   BACKBONE|DICT|INTERRES
    81   39  164 1    
    82   40   41 2    
    83   40   42 1    
    84   42   43 1    
    85   42   44 1    
    86   42  165 1    
    87   43  166 1    
    88   43  167 1    
    89   43  168 1    
    90   44   45 am   BACKBONE|DICT|INTERRES
    91   44  169 1    
    92   45   46 2    
    93   45   47 1    
    94   47   48 1    
    95   47   49 1    
    96   47  170 1    
    97   48  171 1    
    98   48  172 1    
    99   48  173 1    
   100   49   50 am   BACKBONE|DICT|INTERRES
   101   49  174 1    
   102   50   51 2    
   103   50   52 1    
   104   52   53 1    
   105   52   54 1    
   106   52  175 1    
   107   53  176 1    
   108   53  177 1    
   109   53  178 1    
   110   54   55 am   BACKBONE|DICT|INTERRES
   111   54  179 1    
   112   55   56 2    
   113   55   57 1    
   114   57   58 1    
   115   57   59 1    
   116   57  180 1    
   117   58  181 1    
   118   58  182 1    
   119   58  183 1    
   120   59   60 am   BACKBONE|DICT|INTERRES
   121   59  184 1    
   122   60   61 2    
   123   60   62 1    
   124   62   63 1    
   125   62   64 1    
   126   62  185 1    
   127   63  186 1    
   128   63  187 1    
   129   63  188 1    
   130   64   65 am   BACKBONE|DICT|INTERRES
   131   64  189 1    
   132   65   66 2    
   133   67   68 2    
   134   67   69 am   BACKBONE|DICT|INTERRES
   135   69   70 1    
   136   69  190 1    
   137   70   71 1    
   138   70   72 1    
   139   70  191 1    
   140   71  192 1    
   141   71  193 1    
   142   71  194 1    
   143   72   73 2    
   144   72   74 am   BACKBONE|DICT|INTERRES
   145   74   75 1    
   146   74  195 1    
   147   75   76 1    
   148   75   77 1    
   149   75  196 1    
   150   76  197 1    
   151   76  198 1    
   152   76  199 1    
   153   77   78 2    
   154   77   79 am   BACKBONE|DICT|INTERRES
   155   79   80 1    
   156   79  200 1    
   157   80   81 1    
   158   80   82 1    
   159   80  201 1    
   160   81  202 1    
   161   81  203 1    
   162   81  204 1    
   163   82   83 2    
   164   82   84 am   BACKBONE|DICT|INTERRES
   165   84   85 1    
   166   84  205 1    
   167   85   86 1    
   168   85   87 1    
   169   85  206 1    
   170   86  207 1    
   171   86  208 1    
   172   86  209 1    
   173   87   88 2    
   174   87   89 am   BACKBONE|DICT|INTERRES
   175   89   90 1    
   176   89  210 1    
   177   90   91 1    
   178   90   92 1    
   179   90  211 1    
   180   91  212 1    
   181   91  213 1    
   182   91  214 1    
   183   92   93 2    
   184   92   94 am   BACKBONE|DICT|INTERRES
   185   94   95 1    
   186   94  215 1    
   187   95   96 1    
   188   95   97 1    
   189   95  216 1    
   190   96  217 1    
   191   96  218 1    
   192   96  219 1    
   193   97   98 2    
   194   97   99 am   BACKBONE|DICT|INTERRES
   195   99  100 1    
   196   99  220 1    
   197  100  101 1    
   198  100  102 1    
   199  100  221 1    
   200  101  222 1    
   201  101  223 1    
   202  101  224 1    
   203  102  103 2    
   204  102  104 am   BACKBONE|DICT|INTERRES
   205  104  105 1    
   206  104  225 1    
   207  105  106 1    
   208  105  107 1    
   209  105  226 1    
   210  106  227 1    
   211  106  228 1    
   212  106  229 1    
   213  107  108 2    
   214  107  109 am   BACKBONE|DICT|INTERRES
   215  109  110 1    
   216  109  230 1    
   217  110  111 1    
   218  110  112 1    
   219  110  231 1    
   220  111  232 1    
   221  111  233 1    
   222  111  234 1    
   223  112  113 2    
   224  112  114 am   BACKBONE|DICT|INTERRES
   225  114  115 1    
   226  114  235 1    
   227  115  116 1    
   228  115  117 1    
   229  115  236 1    
   230  116  237 1    
   231  116  238 1    
   232  116  239 1    
   233  117  118 2    
   234  117  119 am   BACKBONE|DICT|INTERRES
   235  119  120 1    
   236  119  240 1    
   237  120  121 1    
   238  120  124 1    
   239  120  241 1    
   240  121  122 am   BACKBONE|DICT|INTERRES
   241  121  123 2    
   242  122  242 1    
   243  122  243 1    
   244  124  125 1    
   245  124  244 1    
   246  124  245 1    
   247  125  126 1    
   248  126  246 1    
   249  126  247 1    
@<TRIPOS>SUBSTRUCTURE
     1 UNK         1 GROUP             0       ****    0 ROOT    
