@<TRIPOS>MOLECULE
3R540
247   249    1
SMALL
USER_CHARGES


@<TRIPOS>ATOM
      1 CA         -5.0292  -13.1334  -48.1469 C.3       0 UNK        -0.1800 
      2 C          -3.6717  -12.5930  -47.7193 C.2       0 UNK         0.5000 
      3 O          -3.5740  -11.4387  -47.3011 O.2       0 UNK        -0.5000 
      4 N          -2.6268  -13.4204  -47.8322 N.am      1 UNK        -0.5000 
      5 CA         -1.2567  -13.1085  -47.4108 C.3       1 UNK         0.1400 
      6 C6         -0.2236  -14.0680  -48.0500 C.3       23 UNK        -0.0398 
      7 S7         -0.2327  -14.0137  -49.8754 S.3       23 UNK        -0.2404 
      8 C8         -1.2242  -15.4836  -50.2916 C.3       23 UNK        -0.0205 
      9 C9         -0.3988  -16.5588  -50.9794 C.ar      23 UNK        -0.0193 
     10 C10        -0.4611  -16.6962  -52.3680 C.ar      23 UNK        -0.1150 
     11 C11         0.2375  -17.7175  -53.0207 C.ar      23 UNK        -0.0193 
     12 C12         1.0326  -18.5843  -52.2640 C.ar      23 UNK        -0.1150 
     13 C13         1.1278  -18.4427  -50.8752 C.ar      23 UNK        -0.0193 
     14 C14         0.4015  -17.4318  -50.2358 C.ar      23 UNK        -0.1150 
     15 C15         2.0458  -19.3645  -50.0840 C.3       23 UNK        -0.0205 
     16 S16         1.1643  -20.8018  -49.3968 S.3       23 UNK        -0.2404 
     17 C17         0.7802  -20.2047  -47.7204 C.3       23 UNK        -0.0398 
     18 CA         -0.4528  -20.8783  -47.0741 C.3       11 UNK         0.1400 
     19 N          -0.4744  -20.6726  -45.6235 N.am      11 UNK        -0.5000 
     20 C          -1.3670  -21.2075  -44.7774 C.2       10 UNK         0.5000 
     21 O          -2.2223  -22.0273  -45.1078 O.2       10 UNK        -0.5000 
     22 CA         -1.3366  -20.6864  -43.3312 C.3       10 UNK         0.1400 
     23 CB         -0.3246  -21.4720  -42.4846 C.3       10 UNK        -0.1800 
     24 N          -1.0378  -19.2530  -43.2866 N.am      10 UNK        -0.5000 
     25 C          -1.8992  -18.3018  -43.6786 C.2       9 UNK         0.5000 
     26 O          -3.0500  -18.5401  -44.0460 O.2       9 UNK        -0.5000 
     27 CA         -1.3785  -16.8527  -43.7196 C.3       9 UNK         0.1400 
     28 CB         -1.5173  -16.1870  -42.3460 C.3       9 UNK        -0.1800 
     29 N           0.0128  -16.7675  -44.1640 N.am      9 UNK        -0.5000 
     30 C           0.4180  -17.0468  -45.4095 C.2       8 UNK         0.5000 
     31 O          -0.3555  -17.3308  -46.3221 O.2       8 UNK        -0.5000 
     32 CA          1.9346  -17.0901  -45.6829 C.3       8 UNK         0.1400 
     33 CB          2.4353  -15.8026  -46.3496 C.3       8 UNK        -0.1800 
     34 N           2.7422  -17.3835  -44.4995 N.am      8 UNK        -0.5000 
     35 C           2.7068  -18.5429  -43.8293 C.2       7 UNK         0.5000 
     36 O           1.9217  -19.4519  -44.1062 O.2       7 UNK        -0.5000 
     37 CA          3.7094  -18.7303  -42.6775 C.3       7 UNK         0.1400 
     38 CB          4.6766  -17.5440  -42.4884 C.3       7 UNK        -0.1800 
     39 N           2.9847  -18.9584  -41.4297 N.am      7 UNK        -0.5000 
     40 C           2.8510  -20.1466  -40.8237 C.2       6 UNK         0.5000 
     41 O           3.3107  -21.1953  -41.2782 O.2       6 UNK        -0.5000 
     42 CA          2.1139  -20.1877  -39.4684 C.3       6 UNK         0.1400 
     43 CB          3.0438  -20.7196  -38.3645 C.3       6 UNK        -0.1800 
     44 N           1.6148  -18.8775  -39.0493 N.am      6 UNK        -0.5000 
     45 C           0.3602  -18.4402  -39.2117 C.2       5 UNK         0.5000 
     46 O          -0.5395  -19.1017  -39.7277 O.2       5 UNK        -0.5000 
     47 CA          0.0634  -17.0075  -38.7246 C.3       5 UNK         0.1400 
     48 CB         -0.4196  -17.0326  -37.2664 C.3       5 UNK        -0.1800 
     49 N           1.1923  -16.0758  -38.8370 N.am      5 UNK        -0.5000 
     50 C           1.8535  -15.7815  -39.9639 C.2       4 UNK         0.5000 
     51 O           1.6491  -16.3342  -41.0492 O.2       4 UNK        -0.5000 
     52 CA          2.9584  -14.7246  -39.8458 C.3       4 UNK         0.1400 
     53 CB          4.2568  -15.3509  -39.3013 C.3       4 UNK        -0.1800 
     54 N           3.1648  -14.1469  -41.1676 N.am      4 UNK        -0.5000 
     55 C           3.8570  -13.0460  -41.4690 C.2       3 UNK         0.5000 
     56 O           4.4760  -12.3750  -40.6423 O.2       3 UNK        -0.5000 
     57 CA          3.8220  -12.5931  -42.9415 C.3       3 UNK         0.1400 
     58 CB          4.4487  -13.6395  -43.8864 C.3       3 UNK        -0.1800 
     59 N           2.4795  -12.1863  -43.3787 N.am      3 UNK        -0.5000 
     60 C           1.3864  -12.9462  -43.5414 C.2       2 UNK         0.5000 
     61 O           1.3789  -14.1697  -43.4093 O.2       2 UNK        -0.5000 
     62 CA          0.0778  -12.2232  -43.9048 C.3       2 UNK         0.1400 
     63 CB          0.0752  -10.7239  -43.5434 C.3       2 UNK        -0.1800 
     64 N          -0.1781  -12.3643  -45.3371 N.am      2 UNK        -0.5000 
     65 C          -1.1416  -13.1255  -45.8696 C.2       1 UNK         0.5000 
     66 O          -1.9148  -13.8180  -45.2042 O.2       1 UNK        -0.5000 
     67 C          -1.7758  -20.4161  -47.7214 C.2       11 UNK         0.5000 
     68 O          -2.3944  -21.1947  -48.4476 O.2       11 UNK        -0.5000 
     69 N          -2.2127  -19.1898  -47.3941 N.am      12 UNK        -0.5000 
     70 CA         -3.4752  -18.5905  -47.8307 C.3       12 UNK         0.1400 
     71 CB         -3.5790  -17.1521  -47.2961 C.3       12 UNK        -0.1800 
     72 C          -4.7052  -19.4103  -47.4027 C.2       12 UNK         0.5000 
     73 O          -5.5690  -19.6843  -48.2365 O.2       12 UNK        -0.5000 
     74 N          -4.7380  -19.8290  -46.1285 N.am      13 UNK        -0.5000 
     75 CA         -5.7852  -20.6794  -45.5528 C.3       13 UNK         0.1400 
     76 CB         -5.5546  -20.8182  -44.0409 C.3       13 UNK        -0.1800 
     77 C          -5.8807  -22.0683  -46.2157 C.2       13 UNK         0.5000 
     78 O          -6.9769  -22.6180  -46.3232 O.2       13 UNK        -0.5000 
     79 N          -4.7397  -22.5858  -46.6866 N.am      14 UNK        -0.5000 
     80 CA         -4.6127  -23.8269  -47.4486 C.3       14 UNK         0.1400 
     81 CB         -3.2332  -24.4397  -47.1532 C.3       14 UNK        -0.1800 
     82 C          -4.8366  -23.6385  -48.9659 C.2       14 UNK         0.5000 
     83 O          -4.4977  -24.5408  -49.7315 O.2       14 UNK        -0.5000 
     84 N          -5.3791  -22.4852  -49.3879 N.am      15 UNK        -0.5000 
     85 CA         -5.6810  -22.1016  -50.7725 C.3       15 UNK         0.1400 
     86 CB         -6.7802  -23.0036  -51.3724 C.3       15 UNK        -0.1800 
     87 C          -4.4171  -22.0296  -51.6507 C.2       15 UNK         0.5000 
     88 O          -4.4021  -22.5586  -52.7658 O.2       15 UNK        -0.5000 
     89 N          -3.3802  -21.3778  -51.1077 N.am      16 UNK        -0.5000 
     90 CA         -2.0207  -21.2560  -51.6374 C.3       16 UNK         0.1400 
     91 CB         -2.0110  -20.5761  -53.0174 C.3       16 UNK        -0.1800 
     92 C          -1.2911  -22.6111  -51.6098 C.2       16 UNK         0.5000 
     93 O          -0.7195  -23.0281  -52.6163 O.2       16 UNK        -0.5000 
     94 N          -1.3580  -23.2843  -50.4509 N.am      17 UNK        -0.5000 
     95 CA         -0.7661  -24.5967  -50.1589 C.3       17 UNK         0.1400 
     96 CB          0.7677  -24.4863  -50.0443 C.3       17 UNK        -0.1800 
     97 C          -1.2229  -25.6924  -51.1460 C.2       17 UNK         0.5000 
     98 O          -0.3964  -26.4029  -51.7211 O.2       17 UNK        -0.5000 
     99 N          -2.5467  -25.7818  -51.3309 N.am      18 UNK        -0.5000 
    100 CA        -3.2733  -26.7091  -52.2017 C.3       18 UNK         0.1400 
    101 CB        -3.0369  -28.1740  -51.7776 C.3       18 UNK        -0.1800 
    102 C         -3.0555  -26.4831  -53.7136 C.2       18 UNK         0.5000 
    103 O         -3.4183  -27.3530  -54.5074 O.2       18 UNK        -0.5000 
    104 N         -2.5217  -25.3159  -54.1072 N.am      19 UNK        -0.5000 
    105 CA        -2.4053  -24.9016  -55.5108 C.3       19 UNK         0.1400 
    106 CB        -1.3682  -23.7759  -55.6358 C.3       19 UNK        -0.1800 
    107 C         -3.7510  -24.4621  -56.1243 C.2       19 UNK         0.5000 
    108 O         -3.8434  -24.3667  -57.3479 O.2       19 UNK        -0.5000 
    109 N         -4.7540  -24.2109  -55.2684 N.am      20 UNK        -0.5000 
    110 CA        -6.1046  -23.7374  -55.5754 C.3       20 UNK         0.1400 
    111 CB        -6.8549  -24.7019  -56.5190 C.3       20 UNK        -0.1800 
    112 C         -6.0764  -22.2793  -56.0649 C.2       20 UNK         0.5000 
    113 O         -6.4938  -21.9847  -57.1861 O.2       20 UNK        -0.5000 
    114 N         -5.5731  -21.4035  -55.1837 N.am      21 UNK        -0.5000 
    115 CA        -5.4225  -19.9554  -55.3565 C.3       21 UNK         0.1400 
    116 CB        -6.7823  -19.2643  -55.5951 C.3       21 UNK        -0.1800 
    117 C         -4.3488  -19.5946  -56.4023 C.2       21 UNK         0.5000 
    118 O         -4.5825  -18.7655  -57.2842 O.2       21 UNK        -0.5000 
    119 N         -3.1706  -20.2051  -56.2269 N.am      22 UNK        -0.5000 
    120 CA        -1.9079  -19.9364  -56.9374 C.3       22 UNK         0.1400 
    121 C         -1.8751  -20.4724  -58.4003 C.2       22 UNK         0.5000 
    122 N         -0.7447  -20.3561  -59.0856 N.am      22 UNK        -0.7600 
    123 O         -2.8442  -21.0151  -58.9252 O.2       22 UNK        -0.5000 
    124 C124       -1.4404  -18.4497  -56.8405 C.3       23 UNK        -0.0398 
    125 S125       -1.5590  -17.7451  -55.1581 S.3       23 UNK        -0.2404 
    126 C126        0.1495  -17.8875  -54.5368 C.3       23 UNK        -0.0205 
    127 H127       -5.4583  -12.4997  -48.9230 H         1 UNK         0.0600 
    128 H128       -5.7123  -13.1447  -47.2975 H         1 UNK         0.0600 
    129 H129       -4.9572  -14.1482  -48.5390 H         1 UNK         0.0600 
    130 H130       -2.7791  -14.3620  -48.1559 H         1 UNK         0.3000 
    131 H131       -1.0282  -12.0952  -47.7490 H         1 UNK         0.0600 
    132 H132       -0.3750  -15.0916  -47.7075 H         1 UNK         0.0800 
    133 H133        0.7815  -13.7855  -47.7352 H         1 UNK         0.0800 
    134 H134       -2.0471  -15.1714  -50.9366 H         1 UNK         0.0800 
    135 H135       -1.6909  -15.9062  -49.4048 H         1 UNK         0.0800 
    136 H136       -1.0730  -16.0149  -52.9422 H         1 UNK         0.1150 
    137 H137        1.5875  -19.3697  -52.7578 H         1 UNK         0.1150 
    138 H138        0.4613  -17.3143  -49.1633 H         1 UNK         0.1150 
    139 H139        2.8437  -19.7312  -50.7316 H         1 UNK         0.0800 
    140 H140        2.5447  -18.8083  -49.2887 H         1 UNK         0.0800 
    141 H141        0.6543  -19.1259  -47.7543 H         1 UNK         0.0800 
    142 H142        1.6649  -20.3877  -47.1084 H         1 UNK         0.0800 
    143 H143       -0.3707  -21.9558  -47.2327 H         1 UNK         0.0600 
    144 H144        0.2201  -20.0439  -45.2371 H         1 UNK         0.3000 
    145 H145       -2.3264  -20.8431  -42.8977 H         1 UNK         0.0600 
    146 H146       -0.3383  -21.1399  -41.4478 H         1 UNK         0.0600 
    147 H147       -0.5634  -22.5361  -42.4853 H         1 UNK         0.0600 
    148 H148        0.6933  -21.3680  -42.8589 H         1 UNK         0.0600 
    149 H149       -0.0900  -18.9920  -43.0520 H         1 UNK         0.3000 
    150 H150       -1.9975  -16.3027  -44.4299 H         1 UNK         0.0600 
    151 H151       -2.5567  -16.1814  -42.0161 H         1 UNK         0.0600 
    152 H152       -1.1737  -15.1527  -42.3711 H         1 UNK         0.0600 
    153 H153       -0.9348  -16.7186  -41.5963 H         1 UNK         0.0600 
    154 H154        0.6979  -16.4724  -43.4790 H         1 UNK         0.3000 
    155 H155        2.1126  -17.9035  -46.3873 H         1 UNK         0.0600 
    156 H156        2.1438  -14.9120  -45.7946 H         1 UNK         0.0600 
    157 H157        2.0299  -15.7177  -47.3572 H         1 UNK         0.0600 
    158 H158        3.5211  -15.7987  -46.4457 H         1 UNK         0.0600 
    159 H159        3.3894  -16.6693  -44.2023 H         1 UNK         0.3000 
    160 H160        4.3133  -19.6029  -42.9336 H         1 UNK         0.0600 
    161 H161        4.1505  -16.6191  -42.2539 H         1 UNK         0.0600 
    162 H162        5.2749  -17.3728  -43.3842 H         1 UNK         0.0600 
    163 H163        5.3759  -17.7417  -41.6759 H         1 UNK         0.0600 
    164 H164        2.5006  -18.1528  -41.0485 H         1 UNK         0.3000 
    165 H165        1.2832  -20.8882  -39.5733 H         1 UNK         0.0600 
    166 H166        2.5233  -20.7844  -37.4088 H         1 UNK         0.0600 
    167 H167        3.4055  -21.7208  -38.6021 H         1 UNK         0.0600 
    168 H168        3.9159  -20.0786  -38.2292 H         1 UNK         0.0600 
    169 H169        2.2840  -18.2578  -38.6165 H         1 UNK         0.3000 
    170 H170       -0.7491  -16.6129  -39.3357 H         1 UNK         0.0600 
    171 H171       -1.2761  -17.6980  -37.1493 H         1 UNK         0.0600 
    172 H172        0.3615  -17.3811  -36.5895 H         1 UNK         0.0600 
    173 H173       -0.7336  -16.0421  -36.9366 H         1 UNK         0.0600 
    174 H174        1.4446  -15.5880  -37.9893 H         1 UNK         0.3000 
    175 H175        2.6182  -13.9364  -39.1713 H         1 UNK         0.0600 
    176 H176        4.6282  -16.1430  -39.9499 H         1 UNK         0.0600 
    177 H177        5.0477  -14.6087  -39.1965 H         1 UNK         0.0600 
    178 H178        4.0968  -15.7865  -38.3145 H         1 UNK         0.0600 
    179 H179        2.6076  -14.5811  -41.9008 H         1 UNK         0.3000 
    180 H180        4.4382  -11.6949  -43.0073 H         1 UNK         0.0600 
    181 H181        3.9117  -14.5866  -43.8732 H         1 UNK         0.0600 
    182 H182        5.4797  -13.8500  -43.5998 H         1 UNK         0.0600 
    183 H183        4.4640  -13.2801  -44.9153 H         1 UNK         0.0600 
    184 H184        2.3621  -11.1894  -43.4926 H         1 UNK         0.3000 
    185 H185       -0.7111  -12.7005  -43.3198 H         1 UNK         0.0600 
    186 H186        0.3120  -10.5710  -42.4894 H         1 UNK         0.0600 
    187 H187        0.7898  -10.1523  -44.1367 H         1 UNK         0.0600 
    188 H188       -0.9101  -10.2897  -43.7143 H         1 UNK         0.0600 
    189 H189        0.4393  -11.8498  -45.9490 H         1 UNK         0.3000 
    190 H190       -1.6149  -18.5979  -46.8222 H         1 UNK         0.3000 
    191 H191       -3.4551  -18.5513  -48.9217 H         1 UNK         0.0600 
    192 H192       -3.7131  -17.1287  -46.2149 H         1 UNK         0.0600 
    193 H193       -4.4290  -16.6333  -47.7404 H         1 UNK         0.0600 
    194 H194       -2.6853  -16.5741  -47.5200 H         1 UNK         0.0600 
    195 H195       -4.0054  -19.5222  -45.4951 H         1 UNK         0.3000 
    196 H196       -6.7413  -20.1753  -45.7072 H         1 UNK         0.0600 
    197 H197       -6.3418  -21.4147  -43.5782 H         1 UNK         0.0600 
    198 H198       -5.5534  -19.8446  -43.5504 H         1 UNK         0.0600 
    199 H199       -4.6034  -21.3042  -43.8234 H         1 UNK         0.0600 
    200 H200       -3.8774  -22.0801  -46.5175 H         1 UNK         0.3000 
    201 H201       -5.3701  -24.5342  -47.1056 H         1 UNK         0.0600 
    202 H202       -3.1090  -24.6258  -46.0863 H         1 UNK         0.0600 
    203 H203       -2.4260  -23.7786  -47.4682 H         1 UNK         0.0600 
    204 H204       -3.1029  -25.3953  -47.6623 H         1 UNK         0.0600 
    205 H205       -5.5729  -21.7714  -48.6953 H         1 UNK         0.3000 
    206 H206       -6.0788  -21.0868  -50.7278 H         1 UNK         0.0600 
    207 H207       -7.1042  -22.6275  -52.3433 H         1 UNK         0.0600 
    208 H208       -7.6588  -23.0348  -50.7283 H         1 UNK         0.0600 
    209 H209       -6.4343  -24.0275  -51.5180 H         1 UNK         0.0600 
    210 H210       -3.4759  -21.0679  -50.1466 H         1 UNK         0.3000 
    211 H211       -1.4777  -20.6000  -50.9560 H         1 UNK         0.0600 
    212 H212       -0.9905  -20.4214  -53.3664 H         1 UNK         0.0600 
    213 H213       -2.4962  -19.6014  -52.9759 H         1 UNK         0.0600 
    214 H214       -2.5187  -21.1762  -53.7675 H         1 UNK         0.0600 
    215 H215       -1.8589  -22.8395  -49.6907 H         1 UNK         0.3000 
    216 H216       -1.1409  -24.8997  -49.1816 H         1 UNK         0.0600 
    217 H217        1.2130  -25.4482  -49.7879 H         1 UNK         0.0600 
    218 H218        1.0523  -23.7845  -49.2613 H         1 UNK         0.0600 
    219 H219        1.2218  -24.1522  -50.9777 H         1 UNK         0.0600 
    220 H220       -3.1494  -25.1626  -50.7903 H         1 UNK         0.3000 
    221 H221       -4.3284  -26.4925  -52.0280 H         1 UNK         0.0600 
    222 H222       -2.0203  -28.5017  -51.9957 H         1 UNK         0.0600 
    223 H223       -3.2128  -28.3088  -50.7104 H         1 UNK         0.0600 
    224 H224       -3.7145  -28.8482  -52.3027 H         1 UNK         0.0600 
    225 H225       -2.2088  -24.6540  -53.4079 H         1 UNK         0.3000 
    226 H226       -2.0442  -25.7524  -56.0925 H         1 UNK         0.0600 
    227 H227       -0.4037  -24.0791  -55.2281 H         1 UNK         0.0600 
    228 H228       -1.2092  -23.5040  -56.6801 H         1 UNK         0.0600 
    229 H229       -1.6880  -22.8773  -55.1111 H         1 UNK         0.0600 
    230 H230       -4.5283  -24.2410  -54.2822 H         1 UNK         0.3000 
    231 H231       -6.6459  -23.7350  -54.6281 H         1 UNK         0.0600 
    232 H232       -6.8475  -25.7195  -56.1285 H         1 UNK         0.0600 
    233 H233       -6.4222  -24.7230  -57.5192 H         1 UNK         0.0600 
    234 H234       -7.8978  -24.4018  -56.6257 H         1 UNK         0.0600 
    235 H235       -5.2148  -21.7800  -54.3094 H         1 UNK         0.3000 
    236 H236       -5.0432  -19.5831  -54.4033 H         1 UNK         0.0600 
    237 H237       -6.6739  -18.1794  -55.5706 H         1 UNK         0.0600 
    238 H238       -7.2106  -19.5240  -56.5633 H         1 UNK         0.0600 
    239 H239       -7.5034  -19.5353  -54.8241 H         1 UNK         0.0600 
    240 H240       -3.1137  -20.9019  -55.5014 H         1 UNK         0.3000 
    241 H241       -1.1715  -20.5378  -56.4031 H         1 UNK         0.0600 
    242 H242       -0.7134  -20.7082  -60.0301 H         1 UNK         0.3800 
    243 H243        0.0847  -19.9431  -58.6889 H         1 UNK         0.3800 
    244 H244       -0.4129  -18.3429  -57.1903 H         1 UNK         0.0800 
    245 H245       -2.0439  -17.8241  -57.4999 H         1 UNK         0.0800 
    246 H246        0.7731  -17.1336  -55.0186 H         1 UNK         0.0800 
    247 H247        0.5473  -18.8607  -54.8287 H         1 UNK         0.0800 
@<TRIPOS>BOND
     1    1    2 1    
     2    1  127 1    
     3    1  128 1    
     4    1  129 1    
     5    2    3 2    
     6    2    4 am   BACKBONE|DICT|INTERRES
     7    4    5 1    
     8    4  130 1    
     9    5    6 1    
    10    5   65 1    
    11    5  131 1    
    12    6    7 1    
    13    6  132 1    
    14    6  133 1    
    15    7    8 1    
    16    8    9 1    
    17    8  134 1    
    18    8  135 1    
    19    9   10 ar   
    20    9   14 ar   
    21   10   11 ar   
    22   10  136 1    
    23   11   12 ar   
    24   11  126 1    
    25   12   13 ar   
    26   12  137 1    
    27   13   14 ar   
    28   13   15 1    
    29   14  138 1    
    30   15   16 1    
    31   15  139 1    
    32   15  140 1    
    33   16   17 1    
    34   17   18 1    
    35   17  141 1    
    36   17  142 1    
    37   18   19 1    
    38   18   67 1    
    39   18  143 1    
    40   19   20 am   BACKBONE|DICT|INTERRES
    41   19  144 1    
    42   20   21 2    
    43   20   22 1    
    44   22   23 1    
    45   22   24 1    
    46   22  145 1    
    47   23  146 1    
    48   23  147 1    
    49   23  148 1    
    50   24   25 am   BACKBONE|DICT|INTERRES
    51   24  149 1    
    52   25   26 2    
    53   25   27 1    
    54   27   28 1    
    55   27   29 1    
    56   27  150 1    
    57   28  151 1    
    58   28  152 1    
    59   28  153 1    
    60   29   30 am   BACKBONE|DICT|INTERRES
    61   29  154 1    
    62   30   31 2    
    63   30   32 1    
    64   32   33 1    
    65   32   34 1    
    66   32  155 1    
    67   33  156 1    
    68   33  157 1    
    69   33  158 1    
    70   34   35 am   BACKBONE|DICT|INTERRES
    71   34  159 1    
    72   35   36 2    
    73   35   37 1    
    74   37   38 1    
    75   37   39 1    
    76   37  160 1    
    77   38  161 1    
    78   38  162 1    
    79   38  163 1    
    80   39   40 am   BACKBONE|DICT|INTERRES
    81   39  164 1    
    82   40   41 2    
    83   40   42 1    
    84   42   43 1    
    85   42   44 1    
    86   42  165 1    
    87   43  166 1    
    88   43  167 1    
    89   43  168 1    
    90   44   45 am   BACKBONE|DICT|INTERRES
    91   44  169 1    
    92   45   46 2    
    93   45   47 1    
    94   47   48 1    
    95   47   49 1    
    96   47  170 1    
    97   48  171 1    
    98   48  172 1    
    99   48  173 1    
   100   49   50 am   BACKBONE|DICT|INTERRES
   101   49  174 1    
   102   50   51 2    
   103   50   52 1    
   104   52   53 1    
   105   52   54 1    
   106   52  175 1    
   107   53  176 1    
   108   53  177 1    
   109   53  178 1    
   110   54   55 am   BACKBONE|DICT|INTERRES
   111   54  179 1    
   112   55   56 2    
   113   55   57 1    
   114   57   58 1    
   115   57   59 1    
   116   57  180 1    
   117   58  181 1    
   118   58  182 1    
   119   58  183 1    
   120   59   60 am   BACKBONE|DICT|INTERRES
   121   59  184 1    
   122   60   61 2    
   123   60   62 1    
   124   62   63 1    
   125   62   64 1    
   126   62  185 1    
   127   63  186 1    
   128   63  187 1    
   129   63  188 1    
   130   64   65 am   BACKBONE|DICT|INTERRES
   131   64  189 1    
   132   65   66 2    
   133   67   68 2    
   134   67   69 am   BACKBONE|DICT|INTERRES
   135   69   70 1    
   136   69  190 1    
   137   70   71 1    
   138   70   72 1    
   139   70  191 1    
   140   71  192 1    
   141   71  193 1    
   142   71  194 1    
   143   72   73 2    
   144   72   74 am   BACKBONE|DICT|INTERRES
   145   74   75 1    
   146   74  195 1    
   147   75   76 1    
   148   75   77 1    
   149   75  196 1    
   150   76  197 1    
   151   76  198 1    
   152   76  199 1    
   153   77   78 2    
   154   77   79 am   BACKBONE|DICT|INTERRES
   155   79   80 1    
   156   79  200 1    
   157   80   81 1    
   158   80   82 1    
   159   80  201 1    
   160   81  202 1    
   161   81  203 1    
   162   81  204 1    
   163   82   83 2    
   164   82   84 am   BACKBONE|DICT|INTERRES
   165   84   85 1    
   166   84  205 1    
   167   85   86 1    
   168   85   87 1    
   169   85  206 1    
   170   86  207 1    
   171   86  208 1    
   172   86  209 1    
   173   87   88 2    
   174   87   89 am   BACKBONE|DICT|INTERRES
   175   89   90 1    
   176   89  210 1    
   177   90   91 1    
   178   90   92 1    
   179   90  211 1    
   180   91  212 1    
   181   91  213 1    
   182   91  214 1    
   183   92   93 2    
   184   92   94 am   BACKBONE|DICT|INTERRES
   185   94   95 1    
   186   94  215 1    
   187   95   96 1    
   188   95   97 1    
   189   95  216 1    
   190   96  217 1    
   191   96  218 1    
   192   96  219 1    
   193   97   98 2    
   194   97   99 am   BACKBONE|DICT|INTERRES
   195   99  100 1    
   196   99  220 1    
   197  100  101 1    
   198  100  102 1    
   199  100  221 1    
   200  101  222 1    
   201  101  223 1    
   202  101  224 1    
   203  102  103 2    
   204  102  104 am   BACKBONE|DICT|INTERRES
   205  104  105 1    
   206  104  225 1    
   207  105  106 1    
   208  105  107 1    
   209  105  226 1    
   210  106  227 1    
   211  106  228 1    
   212  106  229 1    
   213  107  108 2    
   214  107  109 am   BACKBONE|DICT|INTERRES
   215  109  110 1    
   216  109  230 1    
   217  110  111 1    
   218  110  112 1    
   219  110  231 1    
   220  111  232 1    
   221  111  233 1    
   222  111  234 1    
   223  112  113 2    
   224  112  114 am   BACKBONE|DICT|INTERRES
   225  114  115 1    
   226  114  235 1    
   227  115  116 1    
   228  115  117 1    
   229  115  236 1    
   230  116  237 1    
   231  116  238 1    
   232  116  239 1    
   233  117  118 2    
   234  117  119 am   BACKBONE|DICT|INTERRES
   235  119  120 1    
   236  119  240 1    
   237  120  121 1    
   238  120  124 1    
   239  120  241 1    
   240  121  122 am   BACKBONE|DICT|INTERRES
   241  121  123 2    
   242  122  242 1    
   243  122  243 1    
   244  124  125 1    
   245  124  244 1    
   246  124  245 1    
   247  125  126 1    
   248  126  246 1    
   249  126  247 1    
@<TRIPOS>SUBSTRUCTURE
     1 UNK         1 GROUP             0       ****    0 ROOT    
