@<TRIPOS>MOLECULE
3R540
247   249    1
SMALL
USER_CHARGES


@<TRIPOS>ATOM
      1 CA         -2.0349  -13.0162  -54.8615 C.3       0 UNK        -0.1800 
      2 C          -0.8804  -12.7921  -53.8948 C.2       0 UNK         0.5000 
      3 O          -0.3835  -11.6707  -53.7847 O.2       0 UNK        -0.5000 
      4 N          -0.4510  -13.8506  -53.1997 N.am      1 UNK        -0.5000 
      5 CA          0.5697  -13.8036  -52.1513 C.3       1 UNK         0.1400 
      6 C6          1.2726  -15.1766  -51.9890 C.3       23 UNK        -0.0398 
      7 S7          3.0293  -15.0506  -51.4951 S.3       23 UNK        -0.2404 
      8 C8          2.9960  -15.1034  -49.6714 C.3       23 UNK        -0.0205 
      9 C9          2.2853  -16.3305  -49.1231 C.ar      23 UNK        -0.0193 
     10 C10         0.9684  -16.2241  -48.6759 C.ar      23 UNK        -0.1150 
     11 C11         0.2930  -17.3441  -48.1971 C.ar      23 UNK        -0.0193 
     12 C12         0.9505  -18.5760  -48.1404 C.ar      23 UNK        -0.1150 
     13 C13         2.2828  -18.7003  -48.5589 C.ar      23 UNK        -0.0193 
     14 C14         2.9385  -17.5648  -49.0514 C.ar      23 UNK        -0.1150 
     15 C15         3.0688  -20.0146  -48.4791 C.3       23 UNK        -0.0205 
     16 S16         2.0895  -21.5594  -48.4344 S.3       23 UNK        -0.2404 
     17 C17         1.6405  -21.6480  -46.6719 C.3       23 UNK        -0.0398 
     18 CA          0.4839  -22.6149  -46.3212 C.3       11 UNK         0.1400 
     19 N           0.3367  -22.6994  -44.8677 N.am      11 UNK        -0.5000 
     20 C          -0.4093  -23.5905  -44.2049 C.2       10 UNK         0.5000 
     21 O          -1.0342  -24.4989  -44.7508 O.2       10 UNK        -0.5000 
     22 CA         -0.5063  -23.3966  -42.6789 C.3       10 UNK         0.1400 
     23 CB          0.7312  -23.9683  -41.9712 C.3       10 UNK        -0.1800 
     24 N          -0.6755  -21.9887  -42.3087 N.am      10 UNK        -0.5000 
     25 C          -1.7560  -21.2570  -42.6169 C.2       9 UNK         0.5000 
     26 O          -2.7514  -21.7197  -43.1755 O.2       9 UNK        -0.5000 
     27 CA         -1.6937  -19.7498  -42.2987 C.3       9 UNK         0.1400 
     28 CB         -2.0309  -19.4798  -40.8251 C.3       9 UNK        -0.1800 
     29 N          -0.3944  -19.1569  -42.6233 N.am      9 UNK        -0.5000 
     30 C           0.1103  -19.0714  -43.8616 C.2       8 UNK         0.5000 
     31 O          -0.4910  -19.4376  -44.8659 O.2       8 UNK        -0.5000 
     32 CA          1.5465  -18.5450  -44.0061 C.3       8 UNK         0.1400 
     33 CB          1.5660  -17.0133  -44.0657 C.3       8 UNK        -0.1800 
     34 N           2.4181  -19.0317  -42.9372 N.am      8 UNK        -0.5000 
     35 C           2.7994  -20.3110  -42.8047 C.2       7 UNK         0.5000 
     36 O           2.4868  -21.1999  -43.5952 O.2       7 UNK        -0.5000 
     37 CA          3.6283  -20.6661  -41.5571 C.3       7 UNK         0.1400 
     38 CB          5.1187  -20.3880  -41.8014 C.3       7 UNK        -0.1800 
     39 N           3.1865  -19.9351  -40.3699 N.am      7 UNK        -0.5000 
     40 C           1.9960  -20.1003  -39.7753 C.2       6 UNK         0.5000 
     41 O           1.1705  -20.9459  -40.1218 O.2       6 UNK        -0.5000 
     42 CA          1.6514  -19.1031  -38.6500 C.3       6 UNK         0.1400 
     43 CB          2.1922  -19.5992  -37.3011 C.3       6 UNK        -0.1800 
     44 N           2.1610  -17.7512  -38.9157 N.am      6 UNK        -0.5000 
     45 C           1.7742  -16.9973  -39.9537 C.2       5 UNK         0.5000 
     46 O           0.9138  -17.3565  -40.7597 O.2       5 UNK        -0.5000 
     47 CA          2.5319  -15.6717  -40.1711 C.3       5 UNK         0.1400 
     48 CB          3.9284  -15.9486  -40.7532 C.3       5 UNK        -0.1800 
     49 N           1.8249  -14.7725  -41.0859 N.am      5 UNK        -0.5000 
     50 C           0.6928  -14.1200  -40.7920 C.2       4 UNK         0.5000 
     51 O           0.1730  -14.1418  -39.6747 O.2       4 UNK        -0.5000 
     52 CA          0.0300  -13.3044  -41.9206 C.3       4 UNK         0.1400 
     53 CB         -0.4139  -11.9127  -41.4326 C.3       4 UNK        -0.1800 
     54 N           0.8921  -13.1378  -43.0993 N.am      4 UNK        -0.5000 
     55 C           0.4979  -13.3579  -44.3598 C.2       3 UNK         0.5000 
     56 O          -0.5990  -13.8353  -44.6648 O.2       3 UNK        -0.5000 
     57 CA          1.4772  -12.9579  -45.4762 C.3       3 UNK         0.1400 
     58 CB          2.5134  -14.0639  -45.7502 C.3       3 UNK        -0.1800 
     59 N           0.6886  -12.6831  -46.6727 N.am      3 UNK        -0.5000 
     60 C           1.1053  -12.0788  -47.7877 C.2       2 UNK         0.5000 
     61 O           2.2625  -11.7002  -47.9821 O.2       2 UNK        -0.5000 
     62 CA          0.0428  -11.8499  -48.8698 C.3       2 UNK         0.1400 
     63 CB         -0.2519  -10.3509  -49.0412 C.3       2 UNK        -0.1800 
     64 N           0.5262  -12.3923  -50.1371 N.am      2 UNK        -0.5000 
     65 C          -0.0985  -13.3421  -50.8411 C.2       1 UNK         0.5000 
     66 O          -1.1621  -13.8604  -50.4925 O.2       1 UNK        -0.5000 
     67 C          -0.8602  -22.2831  -47.0190 C.2       11 UNK         0.5000 
     68 O          -1.1720  -22.8850  -48.0458 O.2       11 UNK        -0.5000 
     69 N          -1.6703  -21.3949  -46.4233 N.am      12 UNK        -0.5000 
     70 CA         -3.0286  -21.0670  -46.8640 C.3       12 UNK         0.1400 
     71 CB         -3.5903  -19.8940  -46.0441 C.3       12 UNK        -0.1800 
     72 C          -3.9820  -22.2673  -46.7814 C.2       12 UNK         0.5000 
     73 O          -4.7137  -22.5227  -47.7378 O.2       12 UNK        -0.5000 
     74 N          -3.9243  -23.0084  -45.6651 N.am      13 UNK        -0.5000 
     75 CA         -4.6874  -24.2403  -45.4446 C.3       13 UNK         0.1400 
     76 CB         -4.5143  -24.6948  -43.9877 C.3       13 UNK        -0.1800 
     77 C          -4.3082  -25.3695  -46.4245 C.2       13 UNK         0.5000 
     78 O          -5.1700  -26.1645  -46.8001 O.2       13 UNK        -0.5000 
     79 N          -3.0396  -25.3903  -46.8533 N.am      14 UNK        -0.5000 
     80 CA         -2.5084  -26.2765  -47.8898 C.3       14 UNK         0.1400 
     81 CB         -0.9902  -26.4134  -47.6868 C.3       14 UNK        -0.1800 
     82 C          -2.8328  -25.8141  -49.3292 C.2       14 UNK         0.5000 
     83 O          -2.5015  -26.5397  -50.2674 O.2       14 UNK        -0.5000 
     84 N          -3.4657  -24.6390  -49.4811 N.am      15 UNK        -0.5000 
     85 CA         -3.8241  -23.9570  -50.7276 C.3       15 UNK         0.1400 
     86 CB         -4.8601  -24.7661  -51.5353 C.3       15 UNK        -0.1800 
     87 C          -2.5786  -23.5791  -51.5496 C.2       15 UNK         0.5000 
     88 O          -2.3079  -24.1847  -52.5874 O.2       15 UNK        -0.5000 
     89 N          -1.8438  -22.5768  -51.0519 N.am      16 UNK        -0.5000 
     90 CA         -0.6047  -22.0181  -51.6019 C.3       16 UNK         0.1400 
     91 CB         -0.2709  -20.7347  -50.8275 C.3       16 UNK        -0.1800 
     92 C          -0.6303  -21.7085  -53.1126 C.2       16 UNK         0.5000 
     93 O           0.3569  -21.9710  -53.8005 O.2       16 UNK        -0.5000 
     94 N          -1.7553  -21.1687  -53.5978 N.am      17 UNK        -0.5000 
     95 CA         -1.9831  -20.8128  -54.9993 C.3       17 UNK         0.1400 
     96 CB         -2.6529  -19.4297  -55.0460 C.3       17 UNK        -0.1800 
     97 C          -2.8140  -21.8703  -55.7556 C.2       17 UNK         0.5000 
     98 O          -3.2674  -21.5930  -56.8662 O.2       17 UNK        -0.5000 
     99 N          -3.0277  -23.0483  -55.1487 N.am      18 UNK        -0.5000 
    100 CA        -3.8090  -24.2086  -55.6072 C.3       18 UNK         0.1400 
    101 CB        -3.3100  -24.7350  -56.9667 C.3       18 UNK        -0.1800 
    102 C         -5.3371  -23.9970  -55.6124 C.2       18 UNK         0.5000 
    103 O         -6.0764  -24.9543  -55.3809 O.2       18 UNK        -0.5000 
    104 N         -5.7868  -22.7612  -55.8372 N.am      19 UNK        -0.5000 
    105 CA        -7.1653  -22.3040  -55.7353 C.3       19 UNK         0.1400 
    106 CB        -7.8304  -22.3579  -57.1202 C.3       19 UNK        -0.1800 
    107 C         -7.1464  -20.8734  -55.1801 C.2       19 UNK         0.5000 
    108 O         -6.1533  -20.1649  -55.3617 O.2       19 UNK        -0.5000 
    109 N         -8.2415  -20.4799  -54.5138 N.am      20 UNK        -0.5000 
    110 CA        -8.4412  -19.1841  -53.8474 C.3       20 UNK         0.1400 
    111 CB        -8.5187  -18.0401  -54.8808 C.3       20 UNK        -0.1800 
    112 C         -7.4094  -18.9177  -52.7278 C.2       20 UNK         0.5000 
    113 O         -6.9460  -17.7858  -52.5669 O.2       20 UNK        -0.5000 
    114 N         -7.0702  -19.9827  -51.9831 N.am      21 UNK        -0.5000 
    115 CA        -6.0819  -20.0470  -50.9028 C.3       21 UNK         0.1400 
    116 CB        -6.5813  -19.2923  -49.6511 C.3       21 UNK        -0.1800 
    117 C         -4.6850  -19.6018  -51.3760 C.2       21 UNK         0.5000 
    118 O         -3.9589  -20.4173  -51.9456 O.2       21 UNK        -0.5000 
    119 N         -4.3499  -18.3307  -51.1338 N.am      22 UNK        -0.5000 
    120 CA        -3.0751  -17.6912  -51.4926 C.3       22 UNK         0.1400 
    121 C         -3.1946  -16.7061  -52.6891 C.2       22 UNK         0.5000 
    122 N         -4.3693  -16.5037  -53.2755 N.am      22 UNK        -0.7600 
    123 O         -2.1941  -16.1332  -53.1122 O.2       22 UNK        -0.5000 
    124 C124       -2.4120  -17.0066  -50.2670 C.3       23 UNK        -0.0398 
    125 S125       -2.2836  -18.1206  -48.8284 S.3       23 UNK        -0.2404 
    126 C126       -1.1468  -17.2208  -47.7331 C.3       23 UNK        -0.0205 
    127 H127       -2.9143  -12.4645  -54.5294 H         1 UNK         0.0600 
    128 H128       -2.3019  -14.0706  -54.9358 H         1 UNK         0.0600 
    129 H129       -1.7655  -12.6650  -55.8575 H         1 UNK         0.0600 
    130 H130       -0.9765  -14.7213  -53.2600 H         1 UNK         0.3000 
    131 H131        1.3187  -13.0649  -52.4458 H         1 UNK         0.0600 
    132 H132        0.7207  -15.8517  -51.3361 H         1 UNK         0.0800 
    133 H133        1.2879  -15.6866  -52.9535 H         1 UNK         0.0800 
    134 H134        2.5336  -14.1937  -49.2917 H         1 UNK         0.0800 
    135 H135        4.0226  -15.0880  -49.3029 H         1 UNK         0.0800 
    136 H136        0.4618  -15.2709  -48.7133 H         1 UNK         0.1150 
    137 H137        0.3988  -19.4272  -47.7745 H         1 UNK         0.1150 
    138 H138        3.9641  -17.6398  -49.3848 H         1 UNK         0.1150 
    139 H139        3.7259  -20.0807  -49.3476 H         1 UNK         0.0800 
    140 H140        3.7226  -19.9803  -47.6067 H         1 UNK         0.0800 
    141 H141        1.4205  -20.6519  -46.2979 H         1 UNK         0.0800 
    142 H142        2.5409  -21.9635  -46.1431 H         1 UNK         0.0800 
    143 H143        0.7773  -23.6088  -46.6651 H         1 UNK         0.0600 
    144 H144        0.8661  -22.0214  -44.3283 H         1 UNK         0.3000 
    145 H145       -1.3827  -23.9459  -42.3286 H         1 UNK         0.0600 
    146 H146        0.6385  -23.8845  -40.8882 H         1 UNK         0.0600 
    147 H147        1.6431  -23.4501  -42.2683 H         1 UNK         0.0600 
    148 H148        0.8616  -25.0251  -42.2071 H         1 UNK         0.0600 
    149 H149        0.0837  -21.5496  -41.7992 H         1 UNK         0.3000 
    150 H150       -2.4463  -19.2516  -42.9133 H         1 UNK         0.0600 
    151 H151       -3.0227  -19.8599  -40.5774 H         1 UNK         0.0600 
    152 H152       -2.0274  -18.4111  -40.6095 H         1 UNK         0.0600 
    153 H153       -1.3197  -19.9582  -40.1522 H         1 UNK         0.0600 
    154 H154        0.1401  -18.7625  -41.8549 H         1 UNK         0.3000 
    155 H155        1.9478  -18.9082  -44.9533 H         1 UNK         0.0600 
    156 H156        0.9993  -16.6631  -44.9292 H         1 UNK         0.0600 
    157 H157        2.5837  -16.6367  -44.1624 H         1 UNK         0.0600 
    158 H158        1.1148  -16.5600  -43.1851 H         1 UNK         0.0600 
    159 H159        2.6600  -18.3744  -42.2127 H         1 UNK         0.3000 
    160 H160        3.5045  -21.7344  -41.3665 H         1 UNK         0.0600 
    161 H161        5.3094  -19.3282  -41.9755 H         1 UNK         0.0600 
    162 H162        5.4789  -20.9343  -42.6742 H         1 UNK         0.0600 
    163 H163        5.7230  -20.7028  -40.9504 H         1 UNK         0.0600 
    164 H164        3.8083  -19.2252  -40.0128 H         1 UNK         0.3000 
    165 H165        0.5630  -19.0455  -38.5817 H         1 UNK         0.0600 
    166 H166        1.8855  -18.9417  -36.4875 H         1 UNK         0.0600 
    167 H167        1.8129  -20.5961  -37.0720 H         1 UNK         0.0600 
    168 H168        3.2815  -19.6535  -37.2974 H         1 UNK         0.0600 
    169 H169        2.8731  -17.4038  -38.2893 H         1 UNK         0.3000 
    170 H170        2.6420  -15.1742  -39.2053 H         1 UNK         0.0600 
    171 H171        4.4889  -15.0228  -40.8847 H         1 UNK         0.0600 
    172 H172        4.5160  -16.5861  -40.0915 H         1 UNK         0.0600 
    173 H173        3.8724  -16.4442  -41.7232 H         1 UNK         0.0600 
    174 H174        2.1607  -14.7393  -42.0356 H         1 UNK         0.3000 
    175 H175       -0.8676  -13.8657  -42.1876 H         1 UNK         0.0600 
    176 H176        0.4368  -11.3115  -41.1098 H         1 UNK         0.0600 
    177 H177       -0.9306  -11.3660  -42.2215 H         1 UNK         0.0600 
    178 H178       -1.1033  -11.9880  -40.5908 H         1 UNK         0.0600 
    179 H179        1.8033  -12.7340  -42.9294 H         1 UNK         0.3000 
    180 H180        1.9901  -12.0421  -45.1756 H         1 UNK         0.0600 
    181 H181        3.2646  -13.7361  -46.4685 H         1 UNK         0.0600 
    182 H182        2.0447  -14.9610  -46.1538 H         1 UNK         0.0600 
    183 H183        3.0443  -14.3410  -44.8392 H         1 UNK         0.0600 
    184 H184       -0.2811  -12.9615  -46.5752 H         1 UNK         0.3000 
    185 H185       -0.8822  -12.3410  -48.5597 H         1 UNK         0.0600 
    186 H186        0.6357   -9.7960  -49.3478 H         1 UNK         0.0600 
    187 H187       -1.0243  -10.1869  -49.7929 H         1 UNK         0.0600 
    188 H188       -0.6077   -9.9137  -48.1075 H         1 UNK         0.0600 
    189 H189        1.4226  -12.0421  -50.4469 H         1 UNK         0.3000 
    190 H190       -1.3133  -20.8630  -45.6328 H         1 UNK         0.3000 
    191 H191       -2.9700  -20.7644  -47.9104 H         1 UNK         0.0600 
    192 H192       -2.9181  -19.0389  -46.0522 H         1 UNK         0.0600 
    193 H193       -3.7606  -20.1657  -45.0033 H         1 UNK         0.0600 
    194 H194       -4.5440  -19.5594  -46.4534 H         1 UNK         0.0600 
    195 H195       -3.3194  -22.7031  -44.9093 H         1 UNK         0.3000 
    196 H196       -5.7423  -24.0084  -45.6042 H         1 UNK         0.0600 
    197 H197       -4.8338  -23.9187  -43.2919 H         1 UNK         0.0600 
    198 H198       -3.4767  -24.9393  -43.7609 H         1 UNK         0.0600 
    199 H199       -5.1128  -25.5832  -43.7826 H         1 UNK         0.0600 
    200 H200       -2.3853  -24.7325  -46.4454 H         1 UNK         0.3000 
    201 H201       -2.9538  -27.2651  -47.7616 H         1 UNK         0.0600 
    202 H202       -0.7555  -26.7596  -46.6800 H         1 UNK         0.0600 
    203 H203       -0.4761  -25.4653  -47.8428 H         1 UNK         0.0600 
    204 H204       -0.5644  -27.1346  -48.3853 H         1 UNK         0.0600 
    205 H205       -3.6800  -24.1154  -48.6407 H         1 UNK         0.3000 
    206 H206       -4.3049  -23.0216  -50.4383 H         1 UNK         0.0600 
    207 H207       -4.4580  -25.7161  -51.8880 H         1 UNK         0.0600 
    208 H208       -5.7457  -24.9787  -50.9366 H         1 UNK         0.0600 
    209 H209       -5.1870  -24.2066  -52.4125 H         1 UNK         0.0600 
    210 H210       -2.1149  -22.2040  -50.1530 H         1 UNK         0.3000 
    211 H211        0.1830  -22.7507  -51.4175 H         1 UNK         0.0600 
    212 H212       -0.9661  -19.9318  -51.0596 H         1 UNK         0.0600 
    213 H213        0.7323  -20.3791  -51.0653 H         1 UNK         0.0600 
    214 H214       -0.3209  -20.8920  -49.7522 H         1 UNK         0.0600 
    215 H215       -2.5284  -20.9883  -52.9582 H         1 UNK         0.3000 
    216 H216       -1.0298  -20.7335  -55.5251 H         1 UNK         0.0600 
    217 H217       -2.8330  -19.1064  -56.0717 H         1 UNK         0.0600 
    218 H218       -2.0183  -18.6761  -54.5809 H         1 UNK         0.0600 
    219 H219       -3.6129  -19.4284  -54.5285 H         1 UNK         0.0600 
    220 H220       -2.6195  -23.1764  -54.2267 H         1 UNK         0.3000 
    221 H221       -3.6161  -24.9903  -54.8710 H         1 UNK         0.0600 
    222 H222       -3.5180  -24.0378  -57.7783 H         1 UNK         0.0600 
    223 H223       -2.2361  -24.9209  -56.9480 H         1 UNK         0.0600 
    224 H224       -3.7986  -25.6770  -57.2185 H         1 UNK         0.0600 
    225 H225       -5.1115  -22.0250  -56.0198 H         1 UNK         0.3000 
    226 H226       -7.7157  -22.9396  -55.0384 H         1 UNK         0.0600 
    227 H227       -7.8433  -23.3754  -57.5113 H         1 UNK         0.0600 
    228 H228       -8.8642  -22.0142  -57.0724 H         1 UNK         0.0600 
    229 H229       -7.3063  -21.7288  -57.8409 H         1 UNK         0.0600 
    230 H230       -9.0089  -21.1323  -54.4269 H         1 UNK         0.3000 
    231 H231       -9.4116  -19.2408  -53.3522 H         1 UNK         0.0600 
    232 H232       -8.8074  -17.1026  -54.4043 H         1 UNK         0.0600 
    233 H233       -9.2604  -18.2534  -55.6505 H         1 UNK         0.0600 
    234 H234       -7.5611  -17.8725  -55.3745 H         1 UNK         0.0600 
    235 H235       -7.4942  -20.8655  -52.2284 H         1 UNK         0.3000 
    236 H236       -5.9892  -21.0991  -50.6288 H         1 UNK         0.0600 
    237 H237       -6.7976  -18.2431  -49.8531 H         1 UNK         0.0600 
    238 H238       -7.4940  -19.7460  -49.2648 H         1 UNK         0.0600 
    239 H239       -5.8404  -19.3311  -48.8510 H         1 UNK         0.0600 
    240 H240       -5.0365  -17.7299  -50.7022 H         1 UNK         0.3000 
    241 H241       -2.3878  -18.4570  -51.8484 H         1 UNK         0.0600 
    242 H242       -4.4269  -15.8730  -54.0578 H         1 UNK         0.3800 
    243 H243       -5.2052  -16.9885  -52.9616 H         1 UNK         0.3800 
    244 H244       -2.9765  -16.1224  -49.9666 H         1 UNK         0.0800 
    245 H245       -1.4109  -16.6604  -50.5259 H         1 UNK         0.0800 
    246 H246       -1.2220  -17.6255  -46.7243 H         1 UNK         0.0800 
    247 H247       -1.4555  -16.1763  -47.6665 H         1 UNK         0.0800 
@<TRIPOS>BOND
     1    1    2 1    
     2    1  127 1    
     3    1  128 1    
     4    1  129 1    
     5    2    3 2    
     6    2    4 am   BACKBONE|DICT|INTERRES
     7    4    5 1    
     8    4  130 1    
     9    5    6 1    
    10    5   65 1    
    11    5  131 1    
    12    6    7 1    
    13    6  132 1    
    14    6  133 1    
    15    7    8 1    
    16    8    9 1    
    17    8  134 1    
    18    8  135 1    
    19    9   10 ar   
    20    9   14 ar   
    21   10   11 ar   
    22   10  136 1    
    23   11   12 ar   
    24   11  126 1    
    25   12   13 ar   
    26   12  137 1    
    27   13   14 ar   
    28   13   15 1    
    29   14  138 1    
    30   15   16 1    
    31   15  139 1    
    32   15  140 1    
    33   16   17 1    
    34   17   18 1    
    35   17  141 1    
    36   17  142 1    
    37   18   19 1    
    38   18   67 1    
    39   18  143 1    
    40   19   20 am   BACKBONE|DICT|INTERRES
    41   19  144 1    
    42   20   21 2    
    43   20   22 1    
    44   22   23 1    
    45   22   24 1    
    46   22  145 1    
    47   23  146 1    
    48   23  147 1    
    49   23  148 1    
    50   24   25 am   BACKBONE|DICT|INTERRES
    51   24  149 1    
    52   25   26 2    
    53   25   27 1    
    54   27   28 1    
    55   27   29 1    
    56   27  150 1    
    57   28  151 1    
    58   28  152 1    
    59   28  153 1    
    60   29   30 am   BACKBONE|DICT|INTERRES
    61   29  154 1    
    62   30   31 2    
    63   30   32 1    
    64   32   33 1    
    65   32   34 1    
    66   32  155 1    
    67   33  156 1    
    68   33  157 1    
    69   33  158 1    
    70   34   35 am   BACKBONE|DICT|INTERRES
    71   34  159 1    
    72   35   36 2    
    73   35   37 1    
    74   37   38 1    
    75   37   39 1    
    76   37  160 1    
    77   38  161 1    
    78   38  162 1    
    79   38  163 1    
    80   39   40 am   BACKBONE|DICT|INTERRES
    81   39  164 1    
    82   40   41 2    
    83   40   42 1    
    84   42   43 1    
    85   42   44 1    
    86   42  165 1    
    87   43  166 1    
    88   43  167 1    
    89   43  168 1    
    90   44   45 am   BACKBONE|DICT|INTERRES
    91   44  169 1    
    92   45   46 2    
    93   45   47 1    
    94   47   48 1    
    95   47   49 1    
    96   47  170 1    
    97   48  171 1    
    98   48  172 1    
    99   48  173 1    
   100   49   50 am   BACKBONE|DICT|INTERRES
   101   49  174 1    
   102   50   51 2    
   103   50   52 1    
   104   52   53 1    
   105   52   54 1    
   106   52  175 1    
   107   53  176 1    
   108   53  177 1    
   109   53  178 1    
   110   54   55 am   BACKBONE|DICT|INTERRES
   111   54  179 1    
   112   55   56 2    
   113   55   57 1    
   114   57   58 1    
   115   57   59 1    
   116   57  180 1    
   117   58  181 1    
   118   58  182 1    
   119   58  183 1    
   120   59   60 am   BACKBONE|DICT|INTERRES
   121   59  184 1    
   122   60   61 2    
   123   60   62 1    
   124   62   63 1    
   125   62   64 1    
   126   62  185 1    
   127   63  186 1    
   128   63  187 1    
   129   63  188 1    
   130   64   65 am   BACKBONE|DICT|INTERRES
   131   64  189 1    
   132   65   66 2    
   133   67   68 2    
   134   67   69 am   BACKBONE|DICT|INTERRES
   135   69   70 1    
   136   69  190 1    
   137   70   71 1    
   138   70   72 1    
   139   70  191 1    
   140   71  192 1    
   141   71  193 1    
   142   71  194 1    
   143   72   73 2    
   144   72   74 am   BACKBONE|DICT|INTERRES
   145   74   75 1    
   146   74  195 1    
   147   75   76 1    
   148   75   77 1    
   149   75  196 1    
   150   76  197 1    
   151   76  198 1    
   152   76  199 1    
   153   77   78 2    
   154   77   79 am   BACKBONE|DICT|INTERRES
   155   79   80 1    
   156   79  200 1    
   157   80   81 1    
   158   80   82 1    
   159   80  201 1    
   160   81  202 1    
   161   81  203 1    
   162   81  204 1    
   163   82   83 2    
   164   82   84 am   BACKBONE|DICT|INTERRES
   165   84   85 1    
   166   84  205 1    
   167   85   86 1    
   168   85   87 1    
   169   85  206 1    
   170   86  207 1    
   171   86  208 1    
   172   86  209 1    
   173   87   88 2    
   174   87   89 am   BACKBONE|DICT|INTERRES
   175   89   90 1    
   176   89  210 1    
   177   90   91 1    
   178   90   92 1    
   179   90  211 1    
   180   91  212 1    
   181   91  213 1    
   182   91  214 1    
   183   92   93 2    
   184   92   94 am   BACKBONE|DICT|INTERRES
   185   94   95 1    
   186   94  215 1    
   187   95   96 1    
   188   95   97 1    
   189   95  216 1    
   190   96  217 1    
   191   96  218 1    
   192   96  219 1    
   193   97   98 2    
   194   97   99 am   BACKBONE|DICT|INTERRES
   195   99  100 1    
   196   99  220 1    
   197  100  101 1    
   198  100  102 1    
   199  100  221 1    
   200  101  222 1    
   201  101  223 1    
   202  101  224 1    
   203  102  103 2    
   204  102  104 am   BACKBONE|DICT|INTERRES
   205  104  105 1    
   206  104  225 1    
   207  105  106 1    
   208  105  107 1    
   209  105  226 1    
   210  106  227 1    
   211  106  228 1    
   212  106  229 1    
   213  107  108 2    
   214  107  109 am   BACKBONE|DICT|INTERRES
   215  109  110 1    
   216  109  230 1    
   217  110  111 1    
   218  110  112 1    
   219  110  231 1    
   220  111  232 1    
   221  111  233 1    
   222  111  234 1    
   223  112  113 2    
   224  112  114 am   BACKBONE|DICT|INTERRES
   225  114  115 1    
   226  114  235 1    
   227  115  116 1    
   228  115  117 1    
   229  115  236 1    
   230  116  237 1    
   231  116  238 1    
   232  116  239 1    
   233  117  118 2    
   234  117  119 am   BACKBONE|DICT|INTERRES
   235  119  120 1    
   236  119  240 1    
   237  120  121 1    
   238  120  124 1    
   239  120  241 1    
   240  121  122 am   BACKBONE|DICT|INTERRES
   241  121  123 2    
   242  122  242 1    
   243  122  243 1    
   244  124  125 1    
   245  124  244 1    
   246  124  245 1    
   247  125  126 1    
   248  126  246 1    
   249  126  247 1    
@<TRIPOS>SUBSTRUCTURE
     1 UNK         1 GROUP             0       ****    0 ROOT    
