@<TRIPOS>MOLECULE
3R540
247   249    1
SMALL
USER_CHARGES


@<TRIPOS>ATOM
      1 CA         -2.2165  -13.9731  -41.3467 C.3       0 UNK        -0.1800 
      2 C          -2.6483  -13.8706  -42.8029 C.2       0 UNK         0.5000 
      3 O          -3.7131  -13.3231  -43.0905 O.2       0 UNK        -0.5000 
      4 N          -1.8313  -14.4052  -43.7166 N.am      1 UNK        -0.5000 
      5 CA         -2.0415  -14.3524  -45.1646 C.3       1 UNK         0.1400 
      6 C6         -1.4198  -15.6010  -45.8360 C.3       23 UNK        -0.0398 
      7 S7         -2.1545  -16.0316  -47.4517 S.3       23 UNK        -0.2404 
      8 C8         -0.6832  -15.9816  -48.5187 C.3       23 UNK        -0.0205 
      9 C9         -0.8292  -16.8495  -49.7560 C.ar      23 UNK        -0.0193 
     10 C10        -0.9301  -16.2710  -51.0245 C.ar      23 UNK        -0.1150 
     11 C11        -1.0016  -17.0784  -52.1631 C.ar      23 UNK        -0.0193 
     12 C12        -0.9494  -18.4684  -52.0278 C.ar      23 UNK        -0.1150 
     13 C13        -0.8507  -19.0584  -50.7652 C.ar      23 UNK        -0.0193 
     14 C14        -0.8129  -18.2412  -49.6318 C.ar      23 UNK        -0.1150 
     15 C15        -0.8255  -20.5737  -50.6322 C.3       23 UNK        -0.0205 
     16 S16         0.8602  -21.2549  -50.4530 S.3       23 UNK        -0.2404 
     17 C17         1.2676  -20.9798  -48.6902 C.3       23 UNK        -0.0398 
     18 CA          0.8683  -22.1596  -47.7661 C.3       11 UNK         0.1400 
     19 N           1.5209  -22.0995  -46.4592 N.am      11 UNK        -0.5000 
     20 C           2.6282  -22.7845  -46.1438 C.2       10 UNK         0.5000 
     21 O           3.2098  -23.5340  -46.9295 O.2       10 UNK        -0.5000 
     22 CA          3.2090  -22.6163  -44.7270 C.3       10 UNK         0.1400 
     23 CB          4.4892  -21.7667  -44.7599 C.3       10 UNK        -0.1800 
     24 N           2.2792  -22.0452  -43.7517 N.am      10 UNK        -0.5000 
     25 C           1.2829  -22.7297  -43.1728 C.2       9 UNK         0.5000 
     26 O           0.9625  -23.8750  -43.4905 O.2       9 UNK        -0.5000 
     27 CA          0.5265  -22.0149  -42.0420 C.3       9 UNK         0.1400 
     28 CB          1.3540  -22.0189  -40.7473 C.3       9 UNK        -0.1800 
     29 N           0.2018  -20.6373  -42.4008 N.am      9 UNK        -0.5000 
     30 C          -0.8634  -20.2882  -43.1320 C.2       8 UNK         0.5000 
     31 O          -1.6857  -21.0921  -43.5662 O.2       8 UNK        -0.5000 
     32 CA         -1.0011  -18.7939  -43.4755 C.3       8 UNK         0.1400 
     33 CB         -1.5735  -18.0102  -42.2867 C.3       8 UNK        -0.1800 
     34 N           0.2740  -18.2154  -43.8960 N.am      8 UNK        -0.5000 
     35 C           0.9259  -18.5880  -45.0080 C.2       7 UNK         0.5000 
     36 O           0.4400  -19.3400  -45.8536 O.2       7 UNK        -0.5000 
     37 CA          2.3742  -18.0959  -45.1901 C.3       7 UNK         0.1400 
     38 CB          2.4856  -17.0800  -46.3351 C.3       7 UNK        -0.1800 
     39 N           2.9642  -17.5376  -43.9712 N.am      7 UNK        -0.5000 
     40 C           3.2856  -18.2498  -42.8806 C.2       6 UNK         0.5000 
     41 O           3.1003  -19.4635  -42.7831 O.2       6 UNK        -0.5000 
     42 CA          3.8654  -17.4718  -41.6850 C.3       6 UNK         0.1400 
     43 CB          5.3992  -17.4523  -41.7564 C.3       6 UNK        -0.1800 
     44 N           3.3701  -16.0956  -41.5977 N.am      6 UNK        -0.5000 
     45 C           2.1028  -15.7548  -41.3206 C.2       5 UNK         0.5000 
     46 O           1.2087  -16.5700  -41.0992 O.2       5 UNK        -0.5000 
     47 CA          1.7716  -14.2506  -41.3578 C.3       5 UNK         0.1400 
     48 CB          2.1033  -13.5838  -40.0150 C.3       5 UNK        -0.1800 
     49 N           2.4663  -13.5506  -42.4410 N.am      5 UNK        -0.5000 
     50 C           2.2467  -13.7845  -43.7407 C.2       4 UNK         0.5000 
     51 O           1.3999  -14.5808  -44.1571 O.2       4 UNK        -0.5000 
     52 CA          3.1763  -13.0701  -44.7297 C.3       4 UNK         0.1400 
     53 CB          4.5338  -13.8035  -44.7808 C.3       4 UNK        -0.1800 
     54 N           2.5379  -13.0662  -46.0418 N.am      4 UNK        -0.5000 
     55 C           2.9854  -12.4615  -47.1489 C.2       3 UNK         0.5000 
     56 O           4.0085  -11.7778  -47.1966 O.2       3 UNK        -0.5000 
     57 CA          2.1408  -12.6491  -48.4217 C.3       3 UNK         0.1400 
     58 CB          2.4339  -14.0122  -49.0697 C.3       3 UNK        -0.1800 
     59 N           0.7063  -12.5355  -48.1591 N.am      3 UNK        -0.5000 
     60 C           0.0605  -11.3797  -47.9544 C.2       2 UNK         0.5000 
     61 O           0.6036  -10.2749  -47.9889 O.2       2 UNK        -0.5000 
     62 CA         -1.4520  -11.4732  -47.6676 C.3       2 UNK         0.1400 
     63 CB         -2.2512  -11.3602  -48.9750 C.3       2 UNK        -0.1800 
     64 N          -1.8538  -12.6997  -46.9710 N.am      2 UNK        -0.5000 
     65 C          -1.4748  -13.0305  -45.7298 C.2       1 UNK         0.5000 
     66 O          -0.7087  -12.3397  -45.0529 O.2       1 UNK        -0.5000 
     67 C          -0.6517  -22.2948  -47.5997 C.2       11 UNK         0.5000 
     68 O          -1.2072  -23.2904  -48.0609 O.2       11 UNK        -0.5000 
     69 N          -1.3142  -21.2935  -46.9977 N.am      12 UNK        -0.5000 
     70 CA         -2.7767  -21.1442  -47.0563 C.3       12 UNK         0.1400 
     71 CB         -3.2183  -19.8176  -46.4253 C.3       12 UNK        -0.1800 
     72 C          -3.5599  -22.3269  -46.4614 C.2       12 UNK         0.5000 
     73 O          -4.5435  -22.7557  -47.0630 O.2       12 UNK        -0.5000 
     74 N          -3.0863  -22.8623  -45.3299 N.am      13 UNK        -0.5000 
     75 CA         -3.6354  -24.0507  -44.6764 C.3       13 UNK         0.1400 
     76 CB         -2.9439  -24.2482  -43.3190 C.3       13 UNK        -0.1800 
     77 C          -3.5165  -25.3237  -45.5366 C.2       13 UNK         0.5000 
     78 O          -4.4602  -26.1131  -45.5842 O.2       13 UNK        -0.5000 
     79 N          -2.3782  -25.4845  -46.2260 N.am      14 UNK        -0.5000 
     80 CA         -2.1139  -26.5939  -47.1462 C.3       14 UNK         0.1400 
     81 CB         -0.6061  -26.6749  -47.4313 C.3       14 UNK        -0.1800 
     82 C          -2.9168  -26.4677  -48.4545 C.2       14 UNK         0.5000 
     83 O          -3.3849  -27.4749  -48.9855 O.2       14 UNK        -0.5000 
     84 N          -3.0961  -25.2260  -48.9224 N.am      15 UNK        -0.5000 
     85 CA         -3.9106  -24.8528  -50.0794 C.3       15 UNK         0.1400 
     86 CB         -3.4413  -23.4770  -50.5863 C.3       15 UNK        -0.1800 
     87 C          -5.4269  -24.8369  -49.7887 C.2       15 UNK         0.5000 
     88 O          -6.1989  -24.5113  -50.6902 O.2       15 UNK        -0.5000 
     89 N          -5.8329  -25.1409  -48.5456 N.am      16 UNK        -0.5000 
     90 CA         -7.2104  -25.1628  -48.0370 C.3       16 UNK         0.1400 
     91 CB         -7.9938  -26.3369  -48.6593 C.3       16 UNK        -0.1800 
     92 C          -7.9343  -23.8068  -48.1926 C.2       16 UNK         0.5000 
     93 O          -9.1305  -23.7691  -48.4855 O.2       16 UNK        -0.5000 
     94 N          -7.1710  -22.7182  -48.0193 N.am      17 UNK        -0.5000 
     95 CA         -7.5447  -21.3089  -48.1668 C.3       17 UNK         0.1400 
     96 CB         -8.6306  -20.9156  -47.1442 C.3       17 UNK        -0.1800 
     97 C          -7.9081  -20.8822  -49.6071 C.2       17 UNK         0.5000 
     98 O          -8.4057  -19.7701  -49.7906 O.2       17 UNK        -0.5000 
     99 N          -7.6389  -21.7330  -50.6108 N.am      18 UNK        -0.5000 
    100 CA        -7.8926  -21.4329  -52.0235 C.3       18 UNK         0.1400 
    101 CB        -7.9314  -22.7407  -52.8287 C.3       18 UNK        -0.1800 
    102 C         -6.8525  -20.4691  -52.6246 C.2       18 UNK         0.5000 
    103 O         -7.1732  -19.7601  -53.5789 O.2       18 UNK        -0.5000 
    104 N         -5.6322  -20.4730  -52.0608 N.am      19 UNK        -0.5000 
    105 CA        -4.4724  -19.6547  -52.4432 C.3       19 UNK         0.1400 
    106 CB        -4.7281  -18.1699  -52.1130 C.3       19 UNK        -0.1800 
    107 C         -4.0175  -19.8798  -53.9041 C.2       19 UNK         0.5000 
    108 O         -3.5407  -18.9541  -54.5612 O.2       19 UNK        -0.5000 
    109 N         -4.1731  -21.1196  -54.3894 N.am      20 UNK        -0.5000 
    110 CA        -3.9331  -21.5172  -55.7794 C.3       20 UNK         0.1400 
    111 CB        -4.5063  -22.9268  -55.9911 C.3       20 UNK        -0.1800 
    112 C         -2.4552  -21.4666  -56.2152 C.2       20 UNK         0.5000 
    113 O         -2.1837  -21.3777  -57.4137 O.2       20 UNK        -0.5000 
    114 N         -1.5291  -21.5163  -55.2465 N.am      21 UNK        -0.5000 
    115 CA        -0.0777  -21.5562  -55.4535 C.3       21 UNK         0.1400 
    116 CB         0.6175  -21.7251  -54.0952 C.3       21 UNK        -0.1800 
    117 C          0.5058  -20.3424  -56.2058 C.2       21 UNK         0.5000 
    118 O          1.5546  -20.4810  -56.8371 O.2       21 UNK        -0.5000 
    119 N         -0.1788  -19.1922  -56.1467 N.am      22 UNK        -0.5000 
    120 CA         0.1735  -17.9829  -56.9115 C.3       22 UNK         0.1400 
    121 C         -0.3058  -18.0104  -58.3947 C.2       22 UNK         0.5000 
    122 N         -1.0571  -19.0092  -58.8463 N.am      22 UNK        -0.7600 
    123 O          0.0213  -17.1078  -59.1605 O.2       22 UNK        -0.5000 
    124 C124       -0.2783  -16.6780  -56.2044 C.3       23 UNK        -0.0398 
    125 S125        0.3726  -16.5327  -54.5023 S.3       23 UNK        -0.2404 
    126 C126       -1.1700  -16.4629  -53.5414 C.3       23 UNK        -0.0205 
    127 H127       -3.0853  -14.1071  -40.7021 H         1 UNK         0.0600 
    128 H128       -1.5500  -14.8206  -41.1857 H         1 UNK         0.0600 
    129 H129       -1.7012  -13.0623  -41.0417 H         1 UNK         0.0600 
    130 H130       -0.9236  -14.7491  -43.4336 H         1 UNK         0.3000 
    131 H131       -3.1169  -14.3628  -45.3559 H         1 UNK         0.0600 
    132 H132       -0.3371  -15.5061  -45.9079 H         1 UNK         0.0800 
    133 H133       -1.5907  -16.4712  -45.2034 H         1 UNK         0.0800 
    134 H134       -0.4848  -14.9491  -48.8009 H         1 UNK         0.0800 
    135 H135        0.1882  -16.3318  -47.9678 H         1 UNK         0.0800 
    136 H136       -0.9528  -15.1952  -51.1269 H         1 UNK         0.1150 
    137 H137       -1.0009  -19.0869  -52.9119 H         1 UNK         0.1150 
    138 H138       -0.7681  -18.6778  -48.6455 H         1 UNK         0.1150 
    139 H139       -1.4601  -20.8798  -49.8056 H         1 UNK         0.0800 
    140 H140       -1.2727  -21.0255  -51.5184 H         1 UNK         0.0800 
    141 H141        0.8633  -20.0350  -48.3387 H         1 UNK         0.0800 
    142 H142        2.3500  -20.8527  -48.6480 H         1 UNK         0.0800 
    143 H143        1.1823  -23.0775  -48.2687 H         1 UNK         0.0600 
    144 H144        1.0976  -21.4932  -45.7693 H         1 UNK         0.3000 
    145 H145        3.4878  -23.6137  -44.3797 H         1 UNK         0.0600 
    146 H146        4.9350  -21.6860  -43.7683 H         1 UNK         0.0600 
    147 H147        5.2377  -22.2129  -45.4159 H         1 UNK         0.0600 
    148 H148        4.2984  -20.7583  -45.1228 H         1 UNK         0.0600 
    149 H149        2.4993  -21.1126  -43.4096 H         1 UNK         0.3000 
    150 H150       -0.3972  -22.5664  -41.8517 H         1 UNK         0.0600 
    151 H151        1.6086  -23.0370  -40.4501 H         1 UNK         0.0600 
    152 H152        0.7977  -21.5699  -39.9244 H         1 UNK         0.0600 
    153 H153        2.2877  -21.4661  -40.8604 H         1 UNK         0.0600 
    154 H154        0.8683  -19.9267  -42.1324 H         1 UNK         0.3000 
    155 H155       -1.6976  -18.6940  -44.3059 H         1 UNK         0.0600 
    156 H156       -2.5635  -18.3811  -42.0190 H         1 UNK         0.0600 
    157 H157       -1.6768  -16.9529  -42.5238 H         1 UNK         0.0600 
    158 H158       -0.9429  -18.0965  -41.4016 H         1 UNK         0.0600 
    159 H159        0.7365  -17.5993  -43.2413 H         1 UNK         0.3000 
    160 H160        2.9619  -18.9683  -45.4755 H         1 UNK         0.0600 
    161 H161        3.5223  -16.7889  -46.5040 H         1 UNK         0.0600 
    162 H162        1.9139  -16.1761  -46.1358 H         1 UNK         0.0600 
    163 H163        2.1184  -17.5078  -47.2687 H         1 UNK         0.0600 
    164 H164        3.0924  -16.5371  -43.9492 H         1 UNK         0.3000 
    165 H165        3.5702  -17.9985  -40.7751 H         1 UNK         0.0600 
    166 H166        5.8290  -16.9744  -40.8759 H         1 UNK         0.0600 
    167 H167        5.8007  -18.4656  -41.8031 H         1 UNK         0.0600 
    168 H168        5.7554  -16.9170  -42.6376 H         1 UNK         0.0600 
    169 H169        4.0403  -15.3601  -41.7658 H         1 UNK         0.3000 
    170 H170        0.6996  -14.1507  -41.5303 H         1 UNK         0.0600 
    171 H171        1.5798  -14.0775  -39.1951 H         1 UNK         0.0600 
    172 H172        3.1709  -13.6247  -39.7954 H         1 UNK         0.0600 
    173 H173        1.7987  -12.5371  -40.0093 H         1 UNK         0.0600 
    174 H174        3.1768  -12.8858  -42.1702 H         1 UNK         0.3000 
    175 H175        3.3171  -12.0386  -44.4016 H         1 UNK         0.0600 
    176 H176        5.2513  -13.2826  -45.4141 H         1 UNK         0.0600 
    177 H177        4.9848  -13.8735  -43.7904 H         1 UNK         0.0600 
    178 H178        4.4275  -14.8183  -45.1654 H         1 UNK         0.0600 
    179 H179        1.6601  -13.5679  -46.0609 H         1 UNK         0.3000 
    180 H180        2.4261  -11.8706  -49.1327 H         1 UNK         0.0600 
    181 H181        2.1877  -14.8402  -48.4049 H         1 UNK         0.0600 
    182 H182        3.4912  -14.1020  -49.3222 H         1 UNK         0.0600 
    183 H183        1.8686  -14.1422  -49.9929 H         1 UNK         0.0600 
    184 H184        0.1754  -13.3893  -48.1117 H         1 UNK         0.3000 
    185 H185       -1.7167  -10.6260  -47.0314 H         1 UNK         0.0600 
    186 H186       -3.3236  -11.3307  -48.7813 H         1 UNK         0.0600 
    187 H187       -1.9949  -10.4462  -49.5125 H         1 UNK         0.0600 
    188 H188       -2.0527  -12.2000  -49.6423 H         1 UNK         0.0600 
    189 H189       -2.4835  -13.3140  -47.4684 H         1 UNK         0.3000 
    190 H190       -0.7873  -20.5167  -46.6050 H         1 UNK         0.3000 
    191 H191       -3.0391  -21.0919  -48.1137 H         1 UNK         0.0600 
    192 H192       -2.5580  -18.9969  -46.7053 H         1 UNK         0.0600 
    193 H193       -3.2519  -19.8805  -45.3392 H         1 UNK         0.0600 
    194 H194       -4.2233  -19.5539  -46.7563 H         1 UNK         0.0600 
    195 H195       -2.3314  -22.3816  -44.8485 H         1 UNK         0.3000 
    196 H196       -4.6973  -23.8710  -44.4957 H         1 UNK         0.0600 
    197 H197       -1.8678  -24.3856  -43.4322 H         1 UNK         0.0600 
    198 H198       -3.3363  -25.1252  -42.8026 H         1 UNK         0.0600 
    199 H199       -3.1035  -23.3890  -42.6673 H         1 UNK         0.0600 
    200 H200       -1.6806  -24.7550  -46.1829 H         1 UNK         0.3000 
    201 H201       -2.4157  -27.5232  -46.6583 H         1 UNK         0.0600 
    202 H202       -0.2359  -25.7758  -47.9244 H         1 UNK         0.0600 
    203 H203       -0.3785  -27.5209  -48.0810 H         1 UNK         0.0600 
    204 H204       -0.0376  -26.8099  -46.5110 H         1 UNK         0.0600 
    205 H205       -2.6069  -24.4665  -48.4546 H         1 UNK         0.3000 
    206 H206       -3.7415  -25.5837  -50.8724 H         1 UNK         0.0600 
    207 H207       -2.3730  -23.4806  -50.8044 H         1 UNK         0.0600 
    208 H208       -3.9579  -23.1982  -51.5052 H         1 UNK         0.0600 
    209 H209       -3.6294  -22.6952  -49.8505 H         1 UNK         0.0600 
    210 H210       -5.1160  -25.3423  -47.8621 H         1 UNK         0.3000 
    211 H211       -7.1357  -25.3453  -46.9641 H         1 UNK         0.0600 
    212 H212       -8.1527  -26.1953  -49.7288 H         1 UNK         0.0600 
    213 H213       -8.9741  -26.4447  -48.1938 H         1 UNK         0.0600 
    214 H214       -7.4648  -27.2798  -48.5208 H         1 UNK         0.0600 
    215 H215       -6.1961  -22.8688  -47.7598 H         1 UNK         0.3000 
    216 H216       -6.6454  -20.7452  -47.9148 H         1 UNK         0.0600 
    217 H217       -8.3453  -21.2093  -46.1340 H         1 UNK         0.0600 
    218 H218       -8.7869  -19.8364  -47.1335 H         1 UNK         0.0600 
    219 H219       -9.5903  -21.3802  -47.3715 H         1 UNK         0.0600 
    220 H220       -7.2490  -22.6451  -50.4012 H         1 UNK         0.3000 
    221 H221       -8.8734  -20.9595  -52.1059 H         1 UNK         0.0600 
    222 H222       -6.9552  -23.2250  -52.8620 H         1 UNK         0.0600 
    223 H223       -8.6434  -23.4480  -52.4028 H         1 UNK         0.0600 
    224 H224       -8.2350  -22.5528  -53.8593 H         1 UNK         0.0600 
    225 H225       -5.4929  -21.0976  -51.2804 H         1 UNK         0.3000 
    226 H226       -3.6450  -19.9891  -51.8168 H         1 UNK         0.0600 
    227 H227       -5.0153  -18.0430  -51.0692 H         1 UNK         0.0600 
    228 H228       -3.8333  -17.5694  -52.2743 H         1 UNK         0.0600 
    229 H229       -5.5189  -17.7473  -52.7331 H         1 UNK         0.0600 
    230 H230       -4.5770  -21.8202  -53.7862 H         1 UNK         0.3000 
    231 H231       -4.4819  -20.8264  -56.4230 H         1 UNK         0.0600 
    232 H232       -5.5742  -22.9557  -55.7728 H         1 UNK         0.0600 
    233 H233       -4.0125  -23.6618  -55.3541 H         1 UNK         0.0600 
    234 H234       -4.3793  -23.2503  -57.0251 H         1 UNK         0.0600 
    235 H235       -1.8514  -21.5889  -54.2940 H         1 UNK         0.3000 
    236 H236        0.1365  -22.4412  -56.0560 H         1 UNK         0.0600 
    237 H237        1.6927  -21.8584  -54.2215 H         1 UNK         0.0600 
    238 H238        0.4731  -20.8509  -53.4612 H         1 UNK         0.0600 
    239 H239        0.2445  -22.5981  -53.5592 H         1 UNK         0.0600 
    240 H240       -1.0419  -19.1612  -55.6230 H         1 UNK         0.3000 
    241 H241        1.2628  -17.9369  -56.9680 H         1 UNK         0.0600 
    242 H242       -1.3381  -19.7770  -58.2453 H         1 UNK         0.3800 
    243 H243       -1.3487  -19.0064  -59.8108 H         1 UNK         0.3800 
    244 H244        0.0758  -15.8070  -56.7584 H         1 UNK         0.0800 
    245 H245       -1.3669  -16.6066  -56.2045 H         1 UNK         0.0800 
    246 H246       -1.9647  -16.9965  -54.0605 H         1 UNK         0.0800 
    247 H247       -1.4989  -15.4253  -53.4676 H         1 UNK         0.0800 
@<TRIPOS>BOND
     1    1    2 1    
     2    1  127 1    
     3    1  128 1    
     4    1  129 1    
     5    2    3 2    
     6    2    4 am   BACKBONE|DICT|INTERRES
     7    4    5 1    
     8    4  130 1    
     9    5    6 1    
    10    5   65 1    
    11    5  131 1    
    12    6    7 1    
    13    6  132 1    
    14    6  133 1    
    15    7    8 1    
    16    8    9 1    
    17    8  134 1    
    18    8  135 1    
    19    9   10 ar   
    20    9   14 ar   
    21   10   11 ar   
    22   10  136 1    
    23   11   12 ar   
    24   11  126 1    
    25   12   13 ar   
    26   12  137 1    
    27   13   14 ar   
    28   13   15 1    
    29   14  138 1    
    30   15   16 1    
    31   15  139 1    
    32   15  140 1    
    33   16   17 1    
    34   17   18 1    
    35   17  141 1    
    36   17  142 1    
    37   18   19 1    
    38   18   67 1    
    39   18  143 1    
    40   19   20 am   BACKBONE|DICT|INTERRES
    41   19  144 1    
    42   20   21 2    
    43   20   22 1    
    44   22   23 1    
    45   22   24 1    
    46   22  145 1    
    47   23  146 1    
    48   23  147 1    
    49   23  148 1    
    50   24   25 am   BACKBONE|DICT|INTERRES
    51   24  149 1    
    52   25   26 2    
    53   25   27 1    
    54   27   28 1    
    55   27   29 1    
    56   27  150 1    
    57   28  151 1    
    58   28  152 1    
    59   28  153 1    
    60   29   30 am   BACKBONE|DICT|INTERRES
    61   29  154 1    
    62   30   31 2    
    63   30   32 1    
    64   32   33 1    
    65   32   34 1    
    66   32  155 1    
    67   33  156 1    
    68   33  157 1    
    69   33  158 1    
    70   34   35 am   BACKBONE|DICT|INTERRES
    71   34  159 1    
    72   35   36 2    
    73   35   37 1    
    74   37   38 1    
    75   37   39 1    
    76   37  160 1    
    77   38  161 1    
    78   38  162 1    
    79   38  163 1    
    80   39   40 am   BACKBONE|DICT|INTERRES
    81   39  164 1    
    82   40   41 2    
    83   40   42 1    
    84   42   43 1    
    85   42   44 1    
    86   42  165 1    
    87   43  166 1    
    88   43  167 1    
    89   43  168 1    
    90   44   45 am   BACKBONE|DICT|INTERRES
    91   44  169 1    
    92   45   46 2    
    93   45   47 1    
    94   47   48 1    
    95   47   49 1    
    96   47  170 1    
    97   48  171 1    
    98   48  172 1    
    99   48  173 1    
   100   49   50 am   BACKBONE|DICT|INTERRES
   101   49  174 1    
   102   50   51 2    
   103   50   52 1    
   104   52   53 1    
   105   52   54 1    
   106   52  175 1    
   107   53  176 1    
   108   53  177 1    
   109   53  178 1    
   110   54   55 am   BACKBONE|DICT|INTERRES
   111   54  179 1    
   112   55   56 2    
   113   55   57 1    
   114   57   58 1    
   115   57   59 1    
   116   57  180 1    
   117   58  181 1    
   118   58  182 1    
   119   58  183 1    
   120   59   60 am   BACKBONE|DICT|INTERRES
   121   59  184 1    
   122   60   61 2    
   123   60   62 1    
   124   62   63 1    
   125   62   64 1    
   126   62  185 1    
   127   63  186 1    
   128   63  187 1    
   129   63  188 1    
   130   64   65 am   BACKBONE|DICT|INTERRES
   131   64  189 1    
   132   65   66 2    
   133   67   68 2    
   134   67   69 am   BACKBONE|DICT|INTERRES
   135   69   70 1    
   136   69  190 1    
   137   70   71 1    
   138   70   72 1    
   139   70  191 1    
   140   71  192 1    
   141   71  193 1    
   142   71  194 1    
   143   72   73 2    
   144   72   74 am   BACKBONE|DICT|INTERRES
   145   74   75 1    
   146   74  195 1    
   147   75   76 1    
   148   75   77 1    
   149   75  196 1    
   150   76  197 1    
   151   76  198 1    
   152   76  199 1    
   153   77   78 2    
   154   77   79 am   BACKBONE|DICT|INTERRES
   155   79   80 1    
   156   79  200 1    
   157   80   81 1    
   158   80   82 1    
   159   80  201 1    
   160   81  202 1    
   161   81  203 1    
   162   81  204 1    
   163   82   83 2    
   164   82   84 am   BACKBONE|DICT|INTERRES
   165   84   85 1    
   166   84  205 1    
   167   85   86 1    
   168   85   87 1    
   169   85  206 1    
   170   86  207 1    
   171   86  208 1    
   172   86  209 1    
   173   87   88 2    
   174   87   89 am   BACKBONE|DICT|INTERRES
   175   89   90 1    
   176   89  210 1    
   177   90   91 1    
   178   90   92 1    
   179   90  211 1    
   180   91  212 1    
   181   91  213 1    
   182   91  214 1    
   183   92   93 2    
   184   92   94 am   BACKBONE|DICT|INTERRES
   185   94   95 1    
   186   94  215 1    
   187   95   96 1    
   188   95   97 1    
   189   95  216 1    
   190   96  217 1    
   191   96  218 1    
   192   96  219 1    
   193   97   98 2    
   194   97   99 am   BACKBONE|DICT|INTERRES
   195   99  100 1    
   196   99  220 1    
   197  100  101 1    
   198  100  102 1    
   199  100  221 1    
   200  101  222 1    
   201  101  223 1    
   202  101  224 1    
   203  102  103 2    
   204  102  104 am   BACKBONE|DICT|INTERRES
   205  104  105 1    
   206  104  225 1    
   207  105  106 1    
   208  105  107 1    
   209  105  226 1    
   210  106  227 1    
   211  106  228 1    
   212  106  229 1    
   213  107  108 2    
   214  107  109 am   BACKBONE|DICT|INTERRES
   215  109  110 1    
   216  109  230 1    
   217  110  111 1    
   218  110  112 1    
   219  110  231 1    
   220  111  232 1    
   221  111  233 1    
   222  111  234 1    
   223  112  113 2    
   224  112  114 am   BACKBONE|DICT|INTERRES
   225  114  115 1    
   226  114  235 1    
   227  115  116 1    
   228  115  117 1    
   229  115  236 1    
   230  116  237 1    
   231  116  238 1    
   232  116  239 1    
   233  117  118 2    
   234  117  119 am   BACKBONE|DICT|INTERRES
   235  119  120 1    
   236  119  240 1    
   237  120  121 1    
   238  120  124 1    
   239  120  241 1    
   240  121  122 am   BACKBONE|DICT|INTERRES
   241  121  123 2    
   242  122  242 1    
   243  122  243 1    
   244  124  125 1    
   245  124  244 1    
   246  124  245 1    
   247  125  126 1    
   248  126  246 1    
   249  126  247 1    
@<TRIPOS>SUBSTRUCTURE
     1 UNK         1 GROUP             0       ****    0 ROOT    
