@<TRIPOS>MOLECULE
3R540
247   249    1
SMALL
USER_CHARGES


@<TRIPOS>ATOM
      1 CA          0.1282  -14.0593  -52.6277 C.3       0 UNK        -0.1800 
      2 C           0.4791  -13.6342  -51.2130 C.2       0 UNK         0.5000 
      3 O          -0.0874  -12.6724  -50.6932 O.2       0 UNK        -0.5000 
      4 N           1.4131  -14.3578  -50.5833 N.am      1 UNK        -0.5000 
      5 CA          1.9659  -14.0453  -49.2582 C.3       1 UNK         0.1400 
      6 C6          3.2800  -14.8071  -48.9379 C.3       23 UNK        -0.0398 
      7 S7          4.4481  -14.9152  -50.3411 S.3       23 UNK        -0.2404 
      8 C8          4.4342  -16.7044  -50.7032 C.3       23 UNK        -0.0205 
      9 C9          3.0526  -17.2043  -51.1037 C.ar      23 UNK        -0.0193 
     10 C10         2.5967  -17.0479  -52.4168 C.ar      23 UNK        -0.1150 
     11 C11         1.3215  -17.4902  -52.7875 C.ar      23 UNK        -0.0193 
     12 C12         0.4982  -18.0740  -51.8186 C.ar      23 UNK        -0.1150 
     13 C13         0.9487  -18.2553  -50.5100 C.ar      23 UNK        -0.0193 
     14 C14         2.2291  -17.8256  -50.1598 C.ar      23 UNK        -0.1150 
     15 C15         0.0555  -18.9266  -49.4808 C.3       23 UNK        -0.0205 
     16 S16         0.4343  -20.6957  -49.3491 S.3       23 UNK        -0.2404 
     17 C17        -0.9656  -21.2791  -48.3404 C.3       23 UNK        -0.0398 
     18 CA         -0.5737  -22.5400  -47.5356 C.3       11 UNK         0.1400 
     19 N           0.1718  -22.2170  -46.3162 N.am      11 UNK        -0.5000 
     20 C           0.8479  -23.1169  -45.5888 C.2       10 UNK         0.5000 
     21 O           0.9444  -24.3045  -45.8944 O.2       10 UNK        -0.5000 
     22 CA          1.4700  -22.6243  -44.2700 C.3       10 UNK         0.1400 
     23 CB          2.7667  -21.8428  -44.5274 C.3       10 UNK        -0.1800 
     24 N           0.5414  -21.8054  -43.4910 N.am      10 UNK        -0.5000 
     25 C          -0.6226  -22.2452  -42.9924 C.2       9 UNK         0.5000 
     26 O          -1.0092  -23.4095  -43.0854 O.2       9 UNK        -0.5000 
     27 CA         -1.5321  -21.2011  -42.3222 C.3       9 UNK         0.1400 
     28 CB         -1.1368  -20.9874  -40.8534 C.3       9 UNK        -0.1800 
     29 N          -1.5283  -19.9188  -43.0269 N.am      9 UNK        -0.5000 
     30 C          -2.0161  -19.7273  -44.2610 C.2       8 UNK         0.5000 
     31 O          -2.5254  -20.6142  -44.9447 O.2       8 UNK        -0.5000 
     32 CA         -1.8505  -18.3148  -44.8485 C.3       8 UNK         0.1400 
     33 CB         -2.8578  -17.3406  -44.2206 C.3       8 UNK        -0.1800 
     34 N          -0.4967  -17.7953  -44.6598 N.am      8 UNK        -0.5000 
     35 C           0.6092  -18.3512  -45.1741 C.2       7 UNK         0.5000 
     36 O           0.5987  -19.3245  -45.9270 O.2       7 UNK        -0.5000 
     37 CA          1.9523  -17.7467  -44.7278 C.3       7 UNK         0.1400 
     38 CB          2.3231  -16.5562  -45.6177 C.3       7 UNK        -0.1800 
     39 N           1.9522  -17.3186  -43.3275 N.am      7 UNK        -0.5000 
     40 C           1.7728  -18.1230  -42.2731 C.2       6 UNK         0.5000 
     41 O           1.5994  -19.3369  -42.3753 O.2       6 UNK        -0.5000 
     42 CA          1.7289  -17.4754  -40.8750 C.3       6 UNK         0.1400 
     43 CB          3.1408  -17.3627  -40.2699 C.3       6 UNK        -0.1800 
     44 N           1.0026  -16.1967  -40.8096 N.am      6 UNK        -0.5000 
     45 C           1.3343  -15.0101  -41.3375 C.2       5 UNK         0.5000 
     46 O           2.3573  -14.8107  -41.9975 O.2       5 UNK        -0.5000 
     47 CA          0.3478  -13.8564  -41.0658 C.3       5 UNK         0.1400 
     48 CB          0.5851  -13.2671  -39.6663 C.3       5 UNK        -0.1800 
     49 N           0.4500  -12.7778  -42.0499 N.am      5 UNK        -0.5000 
     50 C           0.1490  -12.8890  -43.3496 C.2       4 UNK         0.5000 
     51 O          -0.2985  -13.9188  -43.8631 O.2       4 UNK        -0.5000 
     52 CA          0.4193  -11.6362  -44.2033 C.3       4 UNK         0.1400 
     53 CB          1.9228  -11.5035  -44.4981 C.3       4 UNK        -0.1800 
     54 N          -0.2979  -11.7192  -45.4718 N.am      4 UNK        -0.5000 
     55 C          -1.4695  -11.1285  -45.7452 C.2       3 UNK         0.5000 
     56 O          -2.0303  -10.3398  -44.9828 O.2       3 UNK        -0.5000 
     57 CA         -2.1416  -11.4801  -47.0927 C.3       3 UNK         0.1400 
     58 CB         -1.8087  -10.4214  -48.1548 C.3       3 UNK        -0.1800 
     59 N          -1.7489  -12.7950  -47.6002 N.am      3 UNK        -0.5000 
     60 C          -2.0408  -13.9575  -47.0002 C.2       2 UNK         0.5000 
     61 O          -2.8617  -14.0544  -46.0880 O.2       2 UNK        -0.5000 
     62 CA         -1.2800  -15.2181  -47.4682 C.3       2 UNK         0.1400 
     63 CB         -2.2470  -16.2180  -48.1228 C.3       2 UNK        -0.1800 
     64 N          -0.1532  -14.9710  -48.3790 N.am      2 UNK        -0.5000 
     65 C           0.9412  -14.2360  -48.1184 C.2       1 UNK         0.5000 
     66 O           1.1435  -13.6842  -47.0394 O.2       1 UNK        -0.5000 
     67 C          -1.7917  -23.4437  -47.2544 C.2       11 UNK         0.5000 
     68 O          -2.0588  -24.3471  -48.0464 O.2       11 UNK        -0.5000 
     69 N          -2.4940  -23.2315  -46.1325 N.am      12 UNK        -0.5000 
     70 CA         -3.5726  -24.1098  -45.6713 C.3       12 UNK         0.1400 
     71 CB         -4.2852  -23.4903  -44.4614 C.3       12 UNK        -0.1800 
     72 C          -3.0785  -25.5355  -45.3604 C.2       12 UNK         0.5000 
     73 O          -3.6899  -26.4988  -45.8230 O.2       12 UNK        -0.5000 
     74 N          -1.9495  -25.6439  -44.6449 N.am      13 UNK        -0.5000 
     75 CA         -1.2702  -26.9058  -44.3343 C.3       13 UNK         0.1400 
     76 CB         -0.1332  -26.6422  -43.3358 C.3       13 UNK        -0.1800 
     77 C          -0.7409  -27.6383  -45.5839 C.2       13 UNK         0.5000 
     78 O          -0.7676  -28.8686  -45.6237 O.2       13 UNK        -0.5000 
     79 N          -0.3141  -26.8720  -46.5968 N.am      14 UNK        -0.5000 
     80 CA          0.1037  -27.3569  -47.9153 C.3       14 UNK         0.1400 
     81 CB          0.9734  -26.2817  -48.5868 C.3       14 UNK        -0.1800 
     82 C          -1.0709  -27.7592  -48.8356 C.2       14 UNK         0.5000 
     83 O          -0.8218  -28.1972  -49.9594 O.2       14 UNK        -0.5000 
     84 N          -2.3157  -27.6020  -48.3595 N.am      15 UNK        -0.5000 
     85 CA         -3.5811  -27.9050  -49.0352 C.3       15 UNK         0.1400 
     86 CB         -3.6783  -29.3962  -49.4216 C.3       15 UNK        -0.1800 
     87 C          -3.9072  -26.9510  -50.2036 C.2       15 UNK         0.5000 
     88 O          -4.6883  -27.3103  -51.0859 O.2       15 UNK        -0.5000 
     89 N          -3.3549  -25.7302  -50.1627 N.am      16 UNK        -0.5000 
     90 CA         -3.7000  -24.6213  -51.0568 C.3       16 UNK         0.1400 
     91 CB         -2.4367  -23.7953  -51.3533 C.3       16 UNK        -0.1800 
     92 C          -4.8275  -23.7421  -50.4732 C.2       16 UNK         0.5000 
     93 O          -5.1859  -22.7364  -51.0847 O.2       16 UNK        -0.5000 
     94 N          -5.3620  -24.1238  -49.3004 N.am      17 UNK        -0.5000 
     95 CA         -6.5349  -23.5564  -48.6196 C.3       17 UNK         0.1400 
     96 CB         -7.8138  -23.8720  -49.4227 C.3       17 UNK        -0.1800 
     97 C          -6.4079  -22.0561  -48.2772 C.2       17 UNK         0.5000 
     98 O          -7.4157  -21.3492  -48.2327 O.2       17 UNK        -0.5000 
     99 N          -5.1649  -21.6029  -48.0534 N.am      18 UNK        -0.5000 
    100 CA        -4.7622  -20.2166  -47.7857 C.3       18 UNK         0.1400 
    101 CB        -5.3581  -19.7131  -46.4541 C.3       18 UNK        -0.1800 
    102 C         -5.0420  -19.2440  -48.9545 C.2       18 UNK         0.5000 
    103 O         -5.1369  -18.0373  -48.7246 O.2       18 UNK        -0.5000 
    104 N         -5.1701  -19.7650  -50.1847 N.am      19 UNK        -0.5000 
    105 CA        -5.3980  -18.9701  -51.3905 C.3       19 UNK         0.1400 
    106 CB        -5.7511  -19.9007  -52.5606 C.3       19 UNK        -0.1800 
    107 C         -4.1704  -18.1143  -51.7448 C.2       19 UNK         0.5000 
    108 O         -3.0459  -18.6150  -51.7015 O.2       19 UNK        -0.5000 
    109 N         -4.4173  -16.8553  -52.1223 N.am      20 UNK        -0.5000 
    110 CA        -3.3947  -15.8945  -52.5442 C.3       20 UNK         0.1400 
    111 CB        -3.7162  -14.5280  -51.9149 C.3       20 UNK        -0.1800 
    112 C         -3.2888  -15.7814  -54.0799 C.2       20 UNK         0.5000 
    113 O         -2.4771  -14.9953  -54.5665 O.2       20 UNK        -0.5000 
    114 N         -4.1110  -16.5471  -54.8138 N.am      21 UNK        -0.5000 
    115 CA        -4.1992  -16.5480  -56.2766 C.3       21 UNK         0.1400 
    116 CB        -5.3646  -17.4372  -56.7453 C.3       21 UNK        -0.1800 
    117 C         -2.8838  -16.8695  -57.0265 C.2       21 UNK         0.5000 
    118 O         -2.5388  -16.1122  -57.9324 O.2       21 UNK        -0.5000 
    119 N         -2.1186  -17.9206  -56.6972 N.am      22 UNK        -0.5000 
    120 CA        -2.3748  -19.0395  -55.7717 C.3       22 UNK         0.1400 
    121 C         -2.4150  -20.4250  -56.4825 C.2       22 UNK         0.5000 
    122 N         -2.3618  -20.4960  -57.8076 N.am      22 UNK        -0.7600 
    123 O         -2.5289  -21.4559  -55.8258 O.2       22 UNK        -0.5000 
    124 C124       -1.4015  -19.0201  -54.5639 C.3       23 UNK        -0.0398 
    125 S125        0.3712  -18.9030  -55.0082 S.3       23 UNK        -0.2404 
    126 C126        0.8420  -17.3215  -54.2274 C.3       23 UNK        -0.0205 
    127 H127       -0.4810  -14.9600  -52.6024 H         1 UNK         0.0600 
    128 H128        1.0285  -14.2663  -53.2065 H         1 UNK         0.0600 
    129 H129       -0.4342  -13.2791  -53.1409 H         1 UNK         0.0600 
    130 H130        1.8473  -15.1383  -51.0587 H         1 UNK         0.3000 
    131 H131        2.2131  -12.9814  -49.2715 H         1 UNK         0.0600 
    132 H132        3.7971  -14.3075  -48.1168 H         1 UNK         0.0800 
    133 H133        3.0737  -15.8099  -48.5715 H         1 UNK         0.0800 
    134 H134        4.8016  -17.2517  -49.8336 H         1 UNK         0.0800 
    135 H135        5.1422  -16.9067  -51.5082 H         1 UNK         0.0800 
    136 H136        3.2393  -16.5796  -53.1495 H         1 UNK         0.1150 
    137 H137       -0.4898  -18.4172  -52.0788 H         1 UNK         0.1150 
    138 H138        2.5803  -17.9792  -49.1492 H         1 UNK         0.1150 
    139 H139        0.1880  -18.4554  -48.5061 H         1 UNK         0.0800 
    140 H140       -0.9925  -18.8039  -49.7590 H         1 UNK         0.0800 
    141 H141       -1.7918  -21.4723  -49.0264 H         1 UNK         0.0800 
    142 H142       -1.2990  -20.4848  -47.6706 H         1 UNK         0.0800 
    143 H143        0.0890  -23.1404  -48.1620 H         1 UNK         0.0600 
    144 H144        0.1807  -21.2420  -46.0302 H         1 UNK         0.3000 
    145 H145        1.7182  -23.5027  -43.6707 H         1 UNK         0.0600 
    146 H146        3.2234  -21.5166  -43.5928 H         1 UNK         0.0600 
    147 H147        3.4966  -22.4631  -45.0488 H         1 UNK         0.0600 
    148 H148        2.5921  -20.9594  -45.1407 H         1 UNK         0.0600 
    149 H149        0.8144  -20.8434  -43.3126 H         1 UNK         0.3000 
    150 H150       -2.5527  -21.5883  -42.3425 H         1 UNK         0.0600 
    151 H151       -1.1775  -21.9268  -40.3006 H         1 UNK         0.0600 
    152 H152       -1.8145  -20.2910  -40.3595 H         1 UNK         0.0600 
    153 H153       -0.1239  -20.5963  -40.7571 H         1 UNK         0.0600 
    154 H154       -1.0774  -19.1476  -42.5596 H         1 UNK         0.3000 
    155 H155       -2.0479  -18.3741  -45.9207 H         1 UNK         0.0600 
    156 H156       -2.8155  -16.3659  -44.7052 H         1 UNK         0.0600 
    157 H157       -3.8791  -17.7086  -44.3209 H         1 UNK         0.0600 
    158 H158       -2.6684  -17.1910  -43.1570 H         1 UNK         0.0600 
    159 H159       -0.3933  -16.9892  -44.0602 H         1 UNK         0.3000 
    160 H160        2.7174  -18.5162  -44.8459 H         1 UNK         0.0600 
    161 H161        3.3394  -16.2147  -45.4215 H         1 UNK         0.0600 
    162 H162        1.6494  -15.7153  -45.4513 H         1 UNK         0.0600 
    163 H163        2.2639  -16.8285  -46.6712 H         1 UNK         0.0600 
    164 H164        2.1108  -16.3325  -43.1400 H         1 UNK         0.3000 
    165 H165        1.1634  -18.1603  -40.2410 H         1 UNK         0.0600 
    166 H166        3.1052  -16.9582  -39.2584 H         1 UNK         0.0600 
    167 H167        3.6158  -18.3428  -40.2115 H         1 UNK         0.0600 
    168 H168        3.7930  -16.7230  -40.8649 H         1 UNK         0.0600 
    169 H169        0.1333  -16.2432  -40.2960 H         1 UNK         0.3000 
    170 H170       -0.6679  -14.2549  -41.1110 H         1 UNK         0.0600 
    171 H171        0.4806  -14.0301  -38.8938 H         1 UNK         0.0600 
    172 H172        1.5858  -12.8428  -39.5736 H         1 UNK         0.0600 
    173 H173       -0.1355  -12.4806  -39.4411 H         1 UNK         0.0600 
    174 H174        0.8475  -11.9118  -41.7170 H         1 UNK         0.3000 
    175 H175        0.0951  -10.7560  -43.6443 H         1 UNK         0.0600 
    176 H176        2.3158  -12.3899  -44.9974 H         1 UNK         0.0600 
    177 H177        2.1258  -10.6425  -45.1350 H         1 UNK         0.0600 
    178 H178        2.4934  -11.3687  -43.5786 H         1 UNK         0.0600 
    179 H179        0.0690  -12.4101  -46.1212 H         1 UNK         0.3000 
    180 H180       -3.2220  -11.4830  -46.9351 H         1 UNK         0.0600 
    181 H181       -0.7392  -10.3886  -48.3672 H         1 UNK         0.0600 
    182 H182       -2.1099   -9.4267  -47.8237 H         1 UNK         0.0600 
    183 H183       -2.3293  -10.6244  -49.0909 H         1 UNK         0.0600 
    184 H184       -1.0929  -12.8042  -48.3694 H         1 UNK         0.3000 
    185 H185       -0.8725  -15.6787  -46.5667 H         1 UNK         0.0600 
    186 H186       -3.1333  -16.3753  -47.5063 H         1 UNK         0.0600 
    187 H187       -2.5867  -15.8749  -49.1002 H         1 UNK         0.0600 
    188 H188       -1.7817  -17.1918  -48.2499 H         1 UNK         0.0600 
    189 H189       -0.2354  -15.3614  -49.3059 H         1 UNK         0.3000 
    190 H190       -2.2733  -22.4287  -45.5495 H         1 UNK         0.3000 
    191 H191       -4.3021  -24.1868  -46.4789 H         1 UNK         0.0600 
    192 H192       -3.6181  -23.3857  -43.6070 H         1 UNK         0.0600 
    193 H193       -5.1252  -24.1101  -44.1457 H         1 UNK         0.0600 
    194 H194       -4.6813  -22.5041  -44.6991 H         1 UNK         0.0600 
    195 H195       -1.5281  -24.7989  -44.2663 H         1 UNK         0.3000 
    196 H196       -1.9977  -27.5627  -43.8532 H         1 UNK         0.0600 
    197 H197        0.3732  -27.5694  -43.0652 H         1 UNK         0.0600 
    198 H198       -0.5126  -26.1978  -42.4155 H         1 UNK         0.0600 
    199 H199        0.6162  -25.9661  -43.7481 H         1 UNK         0.0600 
    200 H200       -0.2506  -25.8707  -46.4461 H         1 UNK         0.3000 
    201 H201        0.7194  -28.2472  -47.7730 H         1 UNK         0.0600 
    202 H202        1.8130  -25.9969  -47.9525 H         1 UNK         0.0600 
    203 H203        0.3980  -25.3837  -48.8086 H         1 UNK         0.0600 
    204 H204        1.3885  -26.6435  -49.5282 H         1 UNK         0.0600 
    205 H205       -2.4153  -27.2112  -47.4302 H         1 UNK         0.3000 
    206 H206       -4.3552  -27.7215  -48.2891 H         1 UNK         0.0600 
    207 H207       -3.4376  -30.0395  -48.5752 H         1 UNK         0.0600 
    208 H208       -4.6889  -29.6508  -49.7429 H         1 UNK         0.0600 
    209 H209       -3.0053  -29.6506  -50.2405 H         1 UNK         0.0600 
    210 H210       -2.7402  -25.4915  -49.3876 H         1 UNK         0.3000 
    211 H211       -4.0657  -25.0152  -52.0071 H         1 UNK         0.0600 
    212 H212       -2.0285  -23.3360  -50.4554 H         1 UNK         0.0600 
    213 H213       -2.6484  -22.9938  -52.0624 H         1 UNK         0.0600 
    214 H214       -1.6564  -24.4171  -51.7923 H         1 UNK         0.0600 
    215 H215       -4.9655  -24.9469  -48.8720 H         1 UNK         0.3000 
    216 H216       -6.6131  -24.0747  -47.6629 H         1 UNK         0.0600 
    217 H217       -8.7086  -23.5890  -48.8671 H         1 UNK         0.0600 
    218 H218       -7.8920  -24.9380  -49.6367 H         1 UNK         0.0600 
    219 H219       -7.8349  -23.3370  -50.3728 H         1 UNK         0.0600 
    220 H220       -4.4137  -22.2717  -48.1317 H         1 UNK         0.3000 
    221 H221       -3.6796  -20.2344  -47.6653 H         1 UNK         0.0600 
    222 H222       -6.4383  -19.5799  -46.5145 H         1 UNK         0.0600 
    223 H223       -5.1509  -20.4038  -45.6385 H         1 UNK         0.0600 
    224 H224       -4.9294  -18.7503  -46.1773 H         1 UNK         0.0600 
    225 H225       -5.0867  -20.7666  -50.3169 H         1 UNK         0.3000 
    226 H226       -6.2512  -18.3144  -51.2041 H         1 UNK         0.0600 
    227 H227       -5.9853  -19.3303  -53.4602 H         1 UNK         0.0600 
    228 H228       -4.9257  -20.5717  -52.8034 H         1 UNK         0.0600 
    229 H229       -6.6222  -20.5138  -52.3282 H         1 UNK         0.0600 
    230 H230       -5.3697  -16.5174  -52.1167 H         1 UNK         0.3000 
    231 H231       -2.4171  -16.2109  -52.1758 H         1 UNK         0.0600 
    232 H232       -3.7742  -14.5964  -50.8287 H         1 UNK         0.0600 
    233 H233       -4.6658  -14.1320  -52.2764 H         1 UNK         0.0600 
    234 H234       -2.9440  -13.7942  -52.1494 H         1 UNK         0.0600 
    235 H235       -4.7499  -17.1540  -54.3246 H         1 UNK         0.3000 
    236 H236       -4.4606  -15.5253  -56.5568 H         1 UNK         0.0600 
    237 H237       -6.3151  -17.0709  -56.3570 H         1 UNK         0.0600 
    238 H238       -5.4413  -17.4341  -57.8334 H         1 UNK         0.0600 
    239 H239       -5.2580  -18.4746  -56.4318 H         1 UNK         0.0600 
    240 H240       -1.2456  -18.0195  -57.1935 H         1 UNK         0.3000 
    241 H241       -3.3744  -18.9536  -55.3548 H         1 UNK         0.0600 
    242 H242       -2.3989  -21.3988  -58.2549 H         1 UNK         0.3800 
    243 H243       -2.3033  -19.6629  -58.3715 H         1 UNK         0.3800 
    244 H244       -1.5462  -19.8928  -53.9246 H         1 UNK         0.0800 
    245 H245       -1.6635  -18.1688  -53.9404 H         1 UNK         0.0800 
    246 H246        1.6319  -16.8761  -54.8338 H         1 UNK         0.0800 
    247 H247        0.0087  -16.6196  -54.2654 H         1 UNK         0.0800 
@<TRIPOS>BOND
     1    1    2 1    
     2    1  127 1    
     3    1  128 1    
     4    1  129 1    
     5    2    3 2    
     6    2    4 am   BACKBONE|DICT|INTERRES
     7    4    5 1    
     8    4  130 1    
     9    5    6 1    
    10    5   65 1    
    11    5  131 1    
    12    6    7 1    
    13    6  132 1    
    14    6  133 1    
    15    7    8 1    
    16    8    9 1    
    17    8  134 1    
    18    8  135 1    
    19    9   10 ar   
    20    9   14 ar   
    21   10   11 ar   
    22   10  136 1    
    23   11   12 ar   
    24   11  126 1    
    25   12   13 ar   
    26   12  137 1    
    27   13   14 ar   
    28   13   15 1    
    29   14  138 1    
    30   15   16 1    
    31   15  139 1    
    32   15  140 1    
    33   16   17 1    
    34   17   18 1    
    35   17  141 1    
    36   17  142 1    
    37   18   19 1    
    38   18   67 1    
    39   18  143 1    
    40   19   20 am   BACKBONE|DICT|INTERRES
    41   19  144 1    
    42   20   21 2    
    43   20   22 1    
    44   22   23 1    
    45   22   24 1    
    46   22  145 1    
    47   23  146 1    
    48   23  147 1    
    49   23  148 1    
    50   24   25 am   BACKBONE|DICT|INTERRES
    51   24  149 1    
    52   25   26 2    
    53   25   27 1    
    54   27   28 1    
    55   27   29 1    
    56   27  150 1    
    57   28  151 1    
    58   28  152 1    
    59   28  153 1    
    60   29   30 am   BACKBONE|DICT|INTERRES
    61   29  154 1    
    62   30   31 2    
    63   30   32 1    
    64   32   33 1    
    65   32   34 1    
    66   32  155 1    
    67   33  156 1    
    68   33  157 1    
    69   33  158 1    
    70   34   35 am   BACKBONE|DICT|INTERRES
    71   34  159 1    
    72   35   36 2    
    73   35   37 1    
    74   37   38 1    
    75   37   39 1    
    76   37  160 1    
    77   38  161 1    
    78   38  162 1    
    79   38  163 1    
    80   39   40 am   BACKBONE|DICT|INTERRES
    81   39  164 1    
    82   40   41 2    
    83   40   42 1    
    84   42   43 1    
    85   42   44 1    
    86   42  165 1    
    87   43  166 1    
    88   43  167 1    
    89   43  168 1    
    90   44   45 am   BACKBONE|DICT|INTERRES
    91   44  169 1    
    92   45   46 2    
    93   45   47 1    
    94   47   48 1    
    95   47   49 1    
    96   47  170 1    
    97   48  171 1    
    98   48  172 1    
    99   48  173 1    
   100   49   50 am   BACKBONE|DICT|INTERRES
   101   49  174 1    
   102   50   51 2    
   103   50   52 1    
   104   52   53 1    
   105   52   54 1    
   106   52  175 1    
   107   53  176 1    
   108   53  177 1    
   109   53  178 1    
   110   54   55 am   BACKBONE|DICT|INTERRES
   111   54  179 1    
   112   55   56 2    
   113   55   57 1    
   114   57   58 1    
   115   57   59 1    
   116   57  180 1    
   117   58  181 1    
   118   58  182 1    
   119   58  183 1    
   120   59   60 am   BACKBONE|DICT|INTERRES
   121   59  184 1    
   122   60   61 2    
   123   60   62 1    
   124   62   63 1    
   125   62   64 1    
   126   62  185 1    
   127   63  186 1    
   128   63  187 1    
   129   63  188 1    
   130   64   65 am   BACKBONE|DICT|INTERRES
   131   64  189 1    
   132   65   66 2    
   133   67   68 2    
   134   67   69 am   BACKBONE|DICT|INTERRES
   135   69   70 1    
   136   69  190 1    
   137   70   71 1    
   138   70   72 1    
   139   70  191 1    
   140   71  192 1    
   141   71  193 1    
   142   71  194 1    
   143   72   73 2    
   144   72   74 am   BACKBONE|DICT|INTERRES
   145   74   75 1    
   146   74  195 1    
   147   75   76 1    
   148   75   77 1    
   149   75  196 1    
   150   76  197 1    
   151   76  198 1    
   152   76  199 1    
   153   77   78 2    
   154   77   79 am   BACKBONE|DICT|INTERRES
   155   79   80 1    
   156   79  200 1    
   157   80   81 1    
   158   80   82 1    
   159   80  201 1    
   160   81  202 1    
   161   81  203 1    
   162   81  204 1    
   163   82   83 2    
   164   82   84 am   BACKBONE|DICT|INTERRES
   165   84   85 1    
   166   84  205 1    
   167   85   86 1    
   168   85   87 1    
   169   85  206 1    
   170   86  207 1    
   171   86  208 1    
   172   86  209 1    
   173   87   88 2    
   174   87   89 am   BACKBONE|DICT|INTERRES
   175   89   90 1    
   176   89  210 1    
   177   90   91 1    
   178   90   92 1    
   179   90  211 1    
   180   91  212 1    
   181   91  213 1    
   182   91  214 1    
   183   92   93 2    
   184   92   94 am   BACKBONE|DICT|INTERRES
   185   94   95 1    
   186   94  215 1    
   187   95   96 1    
   188   95   97 1    
   189   95  216 1    
   190   96  217 1    
   191   96  218 1    
   192   96  219 1    
   193   97   98 2    
   194   97   99 am   BACKBONE|DICT|INTERRES
   195   99  100 1    
   196   99  220 1    
   197  100  101 1    
   198  100  102 1    
   199  100  221 1    
   200  101  222 1    
   201  101  223 1    
   202  101  224 1    
   203  102  103 2    
   204  102  104 am   BACKBONE|DICT|INTERRES
   205  104  105 1    
   206  104  225 1    
   207  105  106 1    
   208  105  107 1    
   209  105  226 1    
   210  106  227 1    
   211  106  228 1    
   212  106  229 1    
   213  107  108 2    
   214  107  109 am   BACKBONE|DICT|INTERRES
   215  109  110 1    
   216  109  230 1    
   217  110  111 1    
   218  110  112 1    
   219  110  231 1    
   220  111  232 1    
   221  111  233 1    
   222  111  234 1    
   223  112  113 2    
   224  112  114 am   BACKBONE|DICT|INTERRES
   225  114  115 1    
   226  114  235 1    
   227  115  116 1    
   228  115  117 1    
   229  115  236 1    
   230  116  237 1    
   231  116  238 1    
   232  116  239 1    
   233  117  118 2    
   234  117  119 am   BACKBONE|DICT|INTERRES
   235  119  120 1    
   236  119  240 1    
   237  120  121 1    
   238  120  124 1    
   239  120  241 1    
   240  121  122 am   BACKBONE|DICT|INTERRES
   241  121  123 2    
   242  122  242 1    
   243  122  243 1    
   244  124  125 1    
   245  124  244 1    
   246  124  245 1    
   247  125  126 1    
   248  126  246 1    
   249  126  247 1    
@<TRIPOS>SUBSTRUCTURE
     1 UNK         1 GROUP             0       ****    0 ROOT    
