@<TRIPOS>MOLECULE
3R540
247   249    1
SMALL
USER_CHARGES


@<TRIPOS>ATOM
      1 CA          0.9166  -14.6357  -48.3179 C.3       0 UNK        -0.1800 
      2 C           0.3337  -14.0659  -47.0354 C.2       0 UNK         0.5000 
      3 O           1.0833  -13.5572  -46.2030 O.2       0 UNK        -0.5000 
      4 N          -0.9963  -14.1142  -46.8797 N.am      1 UNK        -0.5000 
      5 CA         -1.7259  -13.5329  -45.7433 C.3       1 UNK         0.1400 
      6 C6         -3.2271  -13.9119  -45.7463 C.3       23 UNK        -0.0398 
      7 S7         -3.5034  -15.6627  -45.3204 S.3       23 UNK        -0.2404 
      8 C8         -4.2454  -16.3331  -46.8454 C.3       23 UNK        -0.0205 
      9 C9         -3.2374  -16.5557  -47.9665 C.ar      23 UNK        -0.0193 
     10 C10        -3.5358  -16.1503  -49.2709 C.ar      23 UNK        -0.1150 
     11 C11        -2.6422  -16.4025  -50.3172 C.ar      23 UNK        -0.0193 
     12 C12        -1.4326  -17.0488  -50.0460 C.ar      23 UNK        -0.1150 
     13 C13        -1.1201  -17.4558  -48.7463 C.ar      23 UNK        -0.0193 
     14 C14        -2.0280  -17.2099  -47.7149 C.ar      23 UNK        -0.1150 
     15 C15         0.2011  -18.1487  -48.4505 C.3       23 UNK        -0.0205 
     16 S16         0.0916  -19.9445  -48.6911 S.3       23 UNK        -0.2404 
     17 C17        -1.0264  -20.4246  -47.3394 C.3       23 UNK        -0.0398 
     18 CA         -1.0715  -21.9646  -47.1580 C.3       11 UNK         0.1400 
     19 N          -1.4793  -22.3462  -45.8036 N.am      11 UNK        -0.5000 
     20 C          -2.7067  -22.2570  -45.2736 C.2       10 UNK         0.5000 
     21 O          -3.6992  -21.8716  -45.8920 O.2       10 UNK        -0.5000 
     22 CA         -2.8394  -22.6533  -43.7986 C.3       10 UNK         0.1400 
     23 CB         -2.5832  -24.1561  -43.5883 C.3       10 UNK        -0.1800 
     24 N          -1.9399  -21.8507  -42.9704 N.am      10 UNK        -0.5000 
     25 C          -2.1728  -21.5425  -41.6856 C.2       9 UNK         0.5000 
     26 O          -3.1249  -21.9866  -41.0421 O.2       9 UNK        -0.5000 
     27 CA         -1.2003  -20.5609  -40.9939 C.3       9 UNK         0.1400 
     28 CB         -0.1486  -21.3314  -40.1813 C.3       9 UNK        -0.1800 
     29 N          -0.5119  -19.6639  -41.9221 N.am      9 UNK        -0.5000 
     30 C          -1.1044  -18.7591  -42.7124 C.2       8 UNK         0.5000 
     31 O          -2.2988  -18.4721  -42.6312 O.2       8 UNK        -0.5000 
     32 CA         -0.2408  -18.0870  -43.8020 C.3       8 UNK         0.1400 
     33 CB         -0.1540  -16.5704  -43.5700 C.3       8 UNK        -0.1800 
     34 N           1.1152  -18.6291  -43.9828 N.am      8 UNK        -0.5000 
     35 C           1.4290  -19.8876  -44.3366 C.2       7 UNK         0.5000 
     36 O           0.6035  -20.7980  -44.4063 O.2       7 UNK        -0.5000 
     37 CA          2.8991  -20.2010  -44.6727 C.3       7 UNK         0.1400 
     38 CB          3.0824  -20.2717  -46.1970 C.3       7 UNK        -0.1800 
     39 N           3.8488  -19.2343  -44.1235 N.am      7 UNK        -0.5000 
     40 C           4.1702  -19.1268  -42.8267 C.2       6 UNK         0.5000 
     41 O           3.7225  -19.8658  -41.9493 O.2       6 UNK        -0.5000 
     42 CA          5.1369  -17.9864  -42.4438 C.3       6 UNK         0.1400 
     43 CB          6.5762  -18.5141  -42.3440 C.3       6 UNK        -0.1800 
     44 N           5.1088  -16.8429  -43.3649 N.am      6 UNK        -0.5000 
     45 C           4.0382  -16.0673  -43.5801 C.2       5 UNK         0.5000 
     46 O           2.9422  -16.2661  -43.0544 O.2       5 UNK        -0.5000 
     47 CA          4.2060  -14.9279  -44.6016 C.3       5 UNK         0.1400 
     48 CB          3.9506  -15.4554  -46.0224 C.3       5 UNK        -0.1800 
     49 N           3.2891  -13.8180  -44.3472 N.am      5 UNK        -0.5000 
     50 C           3.3289  -13.0055  -43.2820 C.2       4 UNK         0.5000 
     51 O           4.1891  -13.0728  -42.4011 O.2       4 UNK        -0.5000 
     52 CA          2.2294  -11.9231  -43.2233 C.3       4 UNK         0.1400 
     53 CB          2.4526  -10.8739  -42.1142 C.3       4 UNK        -0.1800 
     54 N           2.0260  -11.2844  -44.5268 N.am      4 UNK        -0.5000 
     55 C           2.9152  -10.5773  -45.2413 C.2       3 UNK         0.5000 
     56 O           4.0232  -10.2378  -44.8246 O.2       3 UNK        -0.5000 
     57 CA          2.5160  -10.2117  -46.6846 C.3       3 UNK         0.1400 
     58 CB          3.3010  -11.0758  -47.6854 C.3       3 UNK        -0.1800 
     59 N           1.0858  -10.3902  -46.9405 N.am      3 UNK        -0.5000 
     60 C           0.1395   -9.4799  -46.6756 C.2       2 UNK         0.5000 
     61 O           0.3743   -8.3613  -46.2175 O.2       2 UNK        -0.5000 
     62 CA         -1.3171   -9.8933  -46.9652 C.3       2 UNK         0.1400 
     63 CB         -1.7318   -9.4471  -48.3755 C.3       2 UNK        -0.1800 
     64 N          -1.5389  -11.3363  -46.8366 N.am      2 UNK        -0.5000 
     65 C          -1.5604  -11.9996  -45.6711 C.2       1 UNK         0.5000 
     66 O          -1.4181  -11.4565  -44.5756 O.2       1 UNK        -0.5000 
     67 C          -1.9026  -22.7059  -48.2301 C.2       11 UNK         0.5000 
     68 O          -1.6944  -23.9036  -48.4321 O.2       11 UNK        -0.5000 
     69 N          -2.8544  -22.0014  -48.8562 N.am      12 UNK        -0.5000 
     70 CA         -3.8205  -22.5126  -49.8242 C.3       12 UNK         0.1400 
     71 CB         -4.6576  -21.3356  -50.3434 C.3       12 UNK        -0.1800 
     72 C          -4.7356  -23.6198  -49.2726 C.2       12 UNK         0.5000 
     73 O          -5.1336  -24.4971  -50.0379 O.2       12 UNK        -0.5000 
     74 N          -5.0222  -23.5915  -47.9618 N.am      13 UNK        -0.5000 
     75 CA         -5.8147  -24.6156  -47.2744 C.3       13 UNK         0.1400 
     76 CB         -6.2437  -24.0933  -45.8951 C.3       13 UNK        -0.1800 
     77 C          -5.0690  -25.9577  -47.1382 C.2       13 UNK         0.5000 
     78 O          -5.7127  -27.0067  -47.1058 O.2       13 UNK        -0.5000 
     79 N          -3.7315  -25.9013  -47.0815 N.am      14 UNK        -0.5000 
     80 CA         -2.8467  -27.0677  -47.0769 C.3       14 UNK         0.1400 
     81 CB         -1.6284  -26.7521  -46.1927 C.3       14 UNK        -0.1800 
     82 C          -2.3868  -27.4590  -48.4953 C.2       14 UNK         0.5000 
     83 O          -1.8055  -28.5318  -48.6608 O.2       14 UNK        -0.5000 
     84 N          -2.6199  -26.5712  -49.4753 N.am      15 UNK        -0.5000 
     85 CA         -2.0882  -26.5826  -50.8423 C.3       15 UNK         0.1400 
     86 CB         -2.6783  -27.7510  -51.6581 C.3       15 UNK        -0.1800 
     87 C          -0.5433  -26.5373  -50.8554 C.2       15 UNK         0.5000 
     88 O           0.0947  -27.2506  -51.6324 O.2       15 UNK        -0.5000 
     89 N           0.0205  -25.7311  -49.9450 N.am      16 UNK        -0.5000 
     90 CA          1.4517  -25.5939  -49.7009 C.3       16 UNK         0.1400 
     91 CB          1.6640  -25.2753  -48.2068 C.3       16 UNK        -0.1800 
     92 C           2.0641  -24.5502  -50.6545 C.2       16 UNK         0.5000 
     93 O           2.3055  -24.8583  -51.8220 O.2       16 UNK        -0.5000 
     94 N           2.3167  -23.3360  -50.1472 N.am      17 UNK        -0.5000 
     95 CA          2.9287  -22.2267  -50.8859 C.3       17 UNK         0.1400 
     96 CB          3.5543  -21.2489  -49.8771 C.3       17 UNK        -0.1800 
     97 C           1.9597  -21.4989  -51.8432 C.2       17 UNK         0.5000 
     98 O           2.4002  -20.6305  -52.5979 O.2       17 UNK        -0.5000 
     99 N           0.6731  -21.8595  -51.8076 N.am      18 UNK        -0.5000 
    100 CA        -0.3850  -21.3500  -52.6707 C.3       18 UNK         0.1400 
    101 CB        -1.0037  -20.0880  -52.0486 C.3       18 UNK        -0.1800 
    102 C         -1.4303  -22.4535  -52.8875 C.2       18 UNK         0.5000 
    103 O         -1.2710  -23.5649  -52.3764 O.2       18 UNK        -0.5000 
    104 N         -2.4846  -22.1240  -53.6369 N.am      19 UNK        -0.5000 
    105 CA        -3.5966  -23.0055  -53.9749 C.3       19 UNK         0.1400 
    106 CB        -3.3292  -23.6414  -55.3521 C.3       19 UNK        -0.1800 
    107 C         -4.9108  -22.2067  -53.9474 C.2       19 UNK         0.5000 
    108 O         -4.9084  -21.0217  -53.6011 O.2       19 UNK        -0.5000 
    109 N         -6.0118  -22.8715  -54.3251 N.am      20 UNK        -0.5000 
    110 CA        -7.3995  -22.3896  -54.2799 C.3       20 UNK         0.1400 
    111 CB        -8.3197  -23.4956  -54.8191 C.3       20 UNK        -0.1800 
    112 C         -7.6870  -21.0557  -55.0023 C.2       20 UNK         0.5000 
    113 O         -8.7058  -20.4272  -54.7121 O.2       20 UNK        -0.5000 
    114 N         -6.7786  -20.6164  -55.8851 N.am      21 UNK        -0.5000 
    115 CA        -6.7729  -19.2971  -56.5247 C.3       21 UNK         0.1400 
    116 CB        -5.5745  -19.2167  -57.4825 C.3       21 UNK        -0.1800 
    117 C         -6.7474  -18.1155  -55.5288 C.2       21 UNK         0.5000 
    118 O         -7.2428  -17.0385  -55.8634 O.2       21 UNK        -0.5000 
    119 N         -6.2096  -18.3420  -54.3219 N.am      22 UNK        -0.5000 
    120 CA        -6.2864  -17.4125  -53.1822 C.3       22 UNK         0.1400 
    121 C         -7.6886  -17.3370  -52.5030 C.2       22 UNK         0.5000 
    122 N         -8.6592  -18.1782  -52.8416 N.am      22 UNK        -0.7600 
    123 O         -7.9071  -16.4805  -51.6506 O.2       22 UNK        -0.5000 
    124 C124       -5.1847  -17.7068  -52.1330 C.3       23 UNK        -0.0398 
    125 S125       -3.5100  -17.3731  -52.7757 S.3       23 UNK        -0.2404 
    126 C126       -2.9742  -15.9719  -51.7399 C.3       23 UNK        -0.0205 
    127 H127        1.5997  -13.9165  -48.7691 H         1 UNK         0.0600 
    128 H128        1.4757  -15.5451  -48.1043 H         1 UNK         0.0600 
    129 H129        0.1406  -14.8632  -49.0476 H         1 UNK         0.0600 
    130 H130       -1.5615  -14.5839  -47.5733 H         1 UNK         0.3000 
    131 H131       -1.2769  -13.9328  -44.8315 H         1 UNK         0.0600 
    132 H132       -3.6841  -13.6791  -46.7095 H         1 UNK         0.0800 
    133 H133       -3.7740  -13.3264  -45.0046 H         1 UNK         0.0800 
    134 H134       -4.7054  -17.2935  -46.6095 H         1 UNK         0.0800 
    135 H135       -5.0558  -15.6779  -47.1686 H         1 UNK         0.0800 
    136 H136       -4.4726  -15.6515  -49.4758 H         1 UNK         0.1150 
    137 H137       -0.7360  -17.2381  -50.8500 H         1 UNK         0.1150 
    138 H138       -1.7948  -17.5312  -46.7109 H         1 UNK         0.1150 
    139 H139        0.9765  -17.7590  -49.1113 H         1 UNK         0.0800 
    140 H140        0.5295  -17.9331  -47.4324 H         1 UNK         0.0800 
    141 H141       -0.6447  -19.9568  -46.4355 H         1 UNK         0.0800 
    142 H142       -2.0159  -19.9909  -47.4827 H         1 UNK         0.0800 
    143 H143       -0.0512  -22.3381  -47.2541 H         1 UNK         0.0600 
    144 H144       -0.7246  -22.6578  -45.2081 H         1 UNK         0.3000 
    145 H145       -3.8710  -22.4394  -43.5098 H         1 UNK         0.0600 
    146 H146       -2.7878  -24.4503  -42.5589 H         1 UNK         0.0600 
    147 H147       -3.2311  -24.7554  -44.2286 H         1 UNK         0.0600 
    148 H148       -1.5511  -24.4274  -43.8120 H         1 UNK         0.0600 
    149 H149       -1.1450  -21.4268  -43.4390 H         1 UNK         0.3000 
    150 H150       -1.7856  -19.9468  -40.3067 H         1 UNK         0.0600 
    151 H151       -0.6229  -21.9938  -39.4559 H         1 UNK         0.0600 
    152 H152        0.4974  -20.6515  -39.6255 H         1 UNK         0.0600 
    153 H153        0.4836  -21.9459  -40.8237 H         1 UNK         0.0600 
    154 H154        0.4714  -19.8389  -42.0709 H         1 UNK         0.3000 
    155 H155       -0.7693  -18.2443  -44.7424 H         1 UNK         0.0600 
    156 H156        0.3821  -16.0725  -44.3787 H         1 UNK         0.0600 
    157 H157        0.3526  -16.3386  -42.6330 H         1 UNK         0.0600 
    158 H158       -1.1465  -16.1233  -43.5172 H         1 UNK         0.0600 
    159 H159        1.8675  -17.9601  -43.8675 H         1 UNK         0.3000 
    160 H160        3.1274  -21.1839  -44.2552 H         1 UNK         0.0600 
    161 H161        2.8716  -19.3138  -46.6746 H         1 UNK         0.0600 
    162 H162        2.4110  -21.0104  -46.6371 H         1 UNK         0.0600 
    163 H163        4.0992  -20.5629  -46.4610 H         1 UNK         0.0600 
    164 H164        4.2704  -18.5892  -44.7746 H         1 UNK         0.3000 
    165 H165        4.8365  -17.6254  -41.4579 H         1 UNK         0.0600 
    166 H166        6.9439  -18.8651  -43.3090 H         1 UNK         0.0600 
    167 H167        7.2564  -17.7415  -41.9850 H         1 UNK         0.0600 
    168 H168        6.6389  -19.3495  -41.6453 H         1 UNK         0.0600 
    169 H169        5.9727  -16.6318  -43.8438 H         1 UNK         0.3000 
    170 H170        5.2269  -14.5456  -44.5413 H         1 UNK         0.0600 
    171 H171        4.6655  -16.2348  -46.2885 H         1 UNK         0.0600 
    172 H172        2.9506  -15.8810  -46.1158 H         1 UNK         0.0600 
    173 H173        4.0458  -14.6608  -46.7629 H         1 UNK         0.0600 
    174 H174        2.5266  -13.7036  -45.0107 H         1 UNK         0.3000 
    175 H175        1.3002  -12.4478  -42.9959 H         1 UNK         0.0600 
    176 H176        1.6520  -10.1343  -42.1060 H         1 UNK         0.0600 
    177 H177        2.4685  -11.3457  -41.1312 H         1 UNK         0.0600 
    178 H178        3.3978  -10.3446  -42.2362 H         1 UNK         0.0600 
    179 H179        1.1672  -11.5397  -44.9951 H         1 UNK         0.3000 
    180 H180        2.7860   -9.1666  -46.8500 H         1 UNK         0.0600 
    181 H181        3.0512  -10.8154  -48.7140 H         1 UNK         0.0600 
    182 H182        4.3756  -10.9321  -47.5667 H         1 UNK         0.0600 
    183 H183        3.0970  -12.1383  -47.5476 H         1 UNK         0.0600 
    184 H184        0.8023  -11.2930  -47.2915 H         1 UNK         0.3000 
    185 H185       -1.9566   -9.3805  -46.2435 H         1 UNK         0.0600 
    186 H186       -2.7813   -9.6712  -48.5676 H         1 UNK         0.0600 
    187 H187       -1.6031   -8.3708  -48.4981 H         1 UNK         0.0600 
    188 H188       -1.1361   -9.9386  -49.1457 H         1 UNK         0.0600 
    189 H189       -1.6560  -11.8575  -47.6934 H         1 UNK         0.3000 
    190 H190       -2.9674  -21.0315  -48.6030 H         1 UNK         0.3000 
    191 H191       -3.2655  -22.9412  -50.6586 H         1 UNK         0.0600 
    192 H192       -5.4441  -21.6771  -51.0171 H         1 UNK         0.0600 
    193 H193       -4.0378  -20.6303  -50.8970 H         1 UNK         0.0600 
    194 H194       -5.1412  -20.7936  -49.5299 H         1 UNK         0.0600 
    195 H195       -4.6424  -22.8451  -47.3868 H         1 UNK         0.3000 
    196 H196       -6.7173  -24.7970  -47.8619 H         1 UNK         0.0600 
    197 H197       -6.9045  -24.8049  -45.3985 H         1 UNK         0.0600 
    198 H198       -6.7853  -23.1510  -45.9797 H         1 UNK         0.0600 
    199 H199       -5.3888  -23.9312  -45.2394 H         1 UNK         0.0600 
    200 H200       -3.2795  -24.9994  -47.1469 H         1 UNK         0.3000 
    201 H201       -3.3626  -27.9301  -46.6497 H         1 UNK         0.0600 
    202 H202       -1.9259  -26.6010  -45.1559 H         1 UNK         0.0600 
    203 H203       -1.1049  -25.8563  -46.5287 H         1 UNK         0.0600 
    204 H204       -0.9108  -27.5736  -46.2017 H         1 UNK         0.0600 
    205 H205       -3.1007  -25.7224  -49.2148 H         1 UNK         0.3000 
    206 H206       -2.4297  -25.6568  -51.3055 H         1 UNK         0.0600 
    207 H207       -3.7677  -27.7428  -51.6243 H         1 UNK         0.0600 
    208 H208       -2.3858  -27.6792  -52.7062 H         1 UNK         0.0600 
    209 H209       -2.3375  -28.7187  -51.2893 H         1 UNK         0.0600 
    210 H210       -0.5933  -25.1577  -49.3729 H         1 UNK         0.3000 
    211 H211        1.9466  -26.5453  -49.9068 H         1 UNK         0.0600 
    212 H212        1.1205  -24.3847  -47.8917 H         1 UNK         0.0600 
    213 H213        2.7205  -25.1243  -47.9806 H         1 UNK         0.0600 
    214 H214        1.3201  -26.1021  -47.5848 H         1 UNK         0.0600 
    215 H215        2.0929  -23.1596  -49.1794 H         1 UNK         0.3000 
    216 H216        3.7363  -22.6280  -51.5018 H         1 UNK         0.0600 
    217 H217        4.0536  -20.4239  -50.3867 H         1 UNK         0.0600 
    218 H218        4.3021  -21.7450  -49.2583 H         1 UNK         0.0600 
    219 H219        2.8059  -20.8172  -49.2146 H         1 UNK         0.0600 
    220 H220        0.3997  -22.6425  -51.2293 H         1 UNK         0.3000 
    221 H221        0.0342  -21.1025  -53.6480 H         1 UNK         0.0600 
    222 H222       -1.5426  -20.3133  -51.1282 H         1 UNK         0.0600 
    223 H223       -0.2392  -19.3465  -51.8189 H         1 UNK         0.0600 
    224 H224       -1.7074  -19.6205  -52.7351 H         1 UNK         0.0600 
    225 H225       -2.6055  -21.1646  -53.9339 H         1 UNK         0.3000 
    226 H226       -3.6878  -23.7944  -53.2251 H         1 UNK         0.0600 
    227 H227       -4.0982  -24.3673  -55.6173 H         1 UNK         0.0600 
    228 H228       -3.2964  -22.8893  -56.1415 H         1 UNK         0.0600 
    229 H229       -2.3769  -24.1721  -55.3596 H         1 UNK         0.0600 
    230 H230       -5.9041  -23.8332  -54.6128 H         1 UNK         0.3000 
    231 H231       -7.6432  -22.2295  -53.2278 H         1 UNK         0.0600 
    232 H232       -9.3673  -23.1947  -54.7708 H         1 UNK         0.0600 
    233 H233       -8.2217  -24.4116  -54.2360 H         1 UNK         0.0600 
    234 H234       -8.0941  -23.7324  -55.8597 H         1 UNK         0.0600 
    235 H235       -5.9675  -21.1944  -56.0450 H         1 UNK         0.3000 
    236 H236       -7.6900  -19.2110  -57.1107 H         1 UNK         0.0600 
    237 H237       -4.6284  -19.3266  -56.9506 H         1 UNK         0.0600 
    238 H238       -5.6247  -19.9939  -58.2453 H         1 UNK         0.0600 
    239 H239       -5.5510  -18.2565  -57.9996 H         1 UNK         0.0600 
    240 H240       -5.8013  -19.2510  -54.1285 H         1 UNK         0.3000 
    241 H241       -6.1048  -16.4074  -53.5678 H         1 UNK         0.0600 
    242 H242       -9.5552  -18.0967  -52.3882 H         1 UNK         0.3800 
    243 H243       -8.5278  -18.8919  -53.5513 H         1 UNK         0.3800 
    244 H244       -5.2346  -18.7488  -51.8159 H         1 UNK         0.0800 
    245 H245       -5.3388  -17.1135  -51.2317 H         1 UNK         0.0800 
    246 H246       -2.0895  -15.5215  -52.1921 H         1 UNK         0.0800 
    247 H247       -3.7436  -15.1982  -51.7438 H         1 UNK         0.0800 
@<TRIPOS>BOND
     1    1    2 1    
     2    1  127 1    
     3    1  128 1    
     4    1  129 1    
     5    2    3 2    
     6    2    4 am   BACKBONE|DICT|INTERRES
     7    4    5 1    
     8    4  130 1    
     9    5    6 1    
    10    5   65 1    
    11    5  131 1    
    12    6    7 1    
    13    6  132 1    
    14    6  133 1    
    15    7    8 1    
    16    8    9 1    
    17    8  134 1    
    18    8  135 1    
    19    9   10 ar   
    20    9   14 ar   
    21   10   11 ar   
    22   10  136 1    
    23   11   12 ar   
    24   11  126 1    
    25   12   13 ar   
    26   12  137 1    
    27   13   14 ar   
    28   13   15 1    
    29   14  138 1    
    30   15   16 1    
    31   15  139 1    
    32   15  140 1    
    33   16   17 1    
    34   17   18 1    
    35   17  141 1    
    36   17  142 1    
    37   18   19 1    
    38   18   67 1    
    39   18  143 1    
    40   19   20 am   BACKBONE|DICT|INTERRES
    41   19  144 1    
    42   20   21 2    
    43   20   22 1    
    44   22   23 1    
    45   22   24 1    
    46   22  145 1    
    47   23  146 1    
    48   23  147 1    
    49   23  148 1    
    50   24   25 am   BACKBONE|DICT|INTERRES
    51   24  149 1    
    52   25   26 2    
    53   25   27 1    
    54   27   28 1    
    55   27   29 1    
    56   27  150 1    
    57   28  151 1    
    58   28  152 1    
    59   28  153 1    
    60   29   30 am   BACKBONE|DICT|INTERRES
    61   29  154 1    
    62   30   31 2    
    63   30   32 1    
    64   32   33 1    
    65   32   34 1    
    66   32  155 1    
    67   33  156 1    
    68   33  157 1    
    69   33  158 1    
    70   34   35 am   BACKBONE|DICT|INTERRES
    71   34  159 1    
    72   35   36 2    
    73   35   37 1    
    74   37   38 1    
    75   37   39 1    
    76   37  160 1    
    77   38  161 1    
    78   38  162 1    
    79   38  163 1    
    80   39   40 am   BACKBONE|DICT|INTERRES
    81   39  164 1    
    82   40   41 2    
    83   40   42 1    
    84   42   43 1    
    85   42   44 1    
    86   42  165 1    
    87   43  166 1    
    88   43  167 1    
    89   43  168 1    
    90   44   45 am   BACKBONE|DICT|INTERRES
    91   44  169 1    
    92   45   46 2    
    93   45   47 1    
    94   47   48 1    
    95   47   49 1    
    96   47  170 1    
    97   48  171 1    
    98   48  172 1    
    99   48  173 1    
   100   49   50 am   BACKBONE|DICT|INTERRES
   101   49  174 1    
   102   50   51 2    
   103   50   52 1    
   104   52   53 1    
   105   52   54 1    
   106   52  175 1    
   107   53  176 1    
   108   53  177 1    
   109   53  178 1    
   110   54   55 am   BACKBONE|DICT|INTERRES
   111   54  179 1    
   112   55   56 2    
   113   55   57 1    
   114   57   58 1    
   115   57   59 1    
   116   57  180 1    
   117   58  181 1    
   118   58  182 1    
   119   58  183 1    
   120   59   60 am   BACKBONE|DICT|INTERRES
   121   59  184 1    
   122   60   61 2    
   123   60   62 1    
   124   62   63 1    
   125   62   64 1    
   126   62  185 1    
   127   63  186 1    
   128   63  187 1    
   129   63  188 1    
   130   64   65 am   BACKBONE|DICT|INTERRES
   131   64  189 1    
   132   65   66 2    
   133   67   68 2    
   134   67   69 am   BACKBONE|DICT|INTERRES
   135   69   70 1    
   136   69  190 1    
   137   70   71 1    
   138   70   72 1    
   139   70  191 1    
   140   71  192 1    
   141   71  193 1    
   142   71  194 1    
   143   72   73 2    
   144   72   74 am   BACKBONE|DICT|INTERRES
   145   74   75 1    
   146   74  195 1    
   147   75   76 1    
   148   75   77 1    
   149   75  196 1    
   150   76  197 1    
   151   76  198 1    
   152   76  199 1    
   153   77   78 2    
   154   77   79 am   BACKBONE|DICT|INTERRES
   155   79   80 1    
   156   79  200 1    
   157   80   81 1    
   158   80   82 1    
   159   80  201 1    
   160   81  202 1    
   161   81  203 1    
   162   81  204 1    
   163   82   83 2    
   164   82   84 am   BACKBONE|DICT|INTERRES
   165   84   85 1    
   166   84  205 1    
   167   85   86 1    
   168   85   87 1    
   169   85  206 1    
   170   86  207 1    
   171   86  208 1    
   172   86  209 1    
   173   87   88 2    
   174   87   89 am   BACKBONE|DICT|INTERRES
   175   89   90 1    
   176   89  210 1    
   177   90   91 1    
   178   90   92 1    
   179   90  211 1    
   180   91  212 1    
   181   91  213 1    
   182   91  214 1    
   183   92   93 2    
   184   92   94 am   BACKBONE|DICT|INTERRES
   185   94   95 1    
   186   94  215 1    
   187   95   96 1    
   188   95   97 1    
   189   95  216 1    
   190   96  217 1    
   191   96  218 1    
   192   96  219 1    
   193   97   98 2    
   194   97   99 am   BACKBONE|DICT|INTERRES
   195   99  100 1    
   196   99  220 1    
   197  100  101 1    
   198  100  102 1    
   199  100  221 1    
   200  101  222 1    
   201  101  223 1    
   202  101  224 1    
   203  102  103 2    
   204  102  104 am   BACKBONE|DICT|INTERRES
   205  104  105 1    
   206  104  225 1    
   207  105  106 1    
   208  105  107 1    
   209  105  226 1    
   210  106  227 1    
   211  106  228 1    
   212  106  229 1    
   213  107  108 2    
   214  107  109 am   BACKBONE|DICT|INTERRES
   215  109  110 1    
   216  109  230 1    
   217  110  111 1    
   218  110  112 1    
   219  110  231 1    
   220  111  232 1    
   221  111  233 1    
   222  111  234 1    
   223  112  113 2    
   224  112  114 am   BACKBONE|DICT|INTERRES
   225  114  115 1    
   226  114  235 1    
   227  115  116 1    
   228  115  117 1    
   229  115  236 1    
   230  116  237 1    
   231  116  238 1    
   232  116  239 1    
   233  117  118 2    
   234  117  119 am   BACKBONE|DICT|INTERRES
   235  119  120 1    
   236  119  240 1    
   237  120  121 1    
   238  120  124 1    
   239  120  241 1    
   240  121  122 am   BACKBONE|DICT|INTERRES
   241  121  123 2    
   242  122  242 1    
   243  122  243 1    
   244  124  125 1    
   245  124  244 1    
   246  124  245 1    
   247  125  126 1    
   248  126  246 1    
   249  126  247 1    
@<TRIPOS>SUBSTRUCTURE
     1 UNK         1 GROUP             0       ****    0 ROOT    
