@<TRIPOS>MOLECULE
3R540
247   249    1
SMALL
USER_CHARGES


@<TRIPOS>ATOM
      1 CA          1.8656  -10.0314  -50.3371 C.3       0 UNK        -0.1800 
      2 C           1.1987  -11.3786  -50.0968 C.2       0 UNK         0.5000 
      3 O           0.6202  -11.9486  -51.0216 O.2       0 UNK        -0.5000 
      4 N           1.2705  -11.8832  -48.8588 N.am      1 UNK        -0.5000 
      5 CA          0.7512  -13.1914  -48.4534 C.3       1 UNK         0.1400 
      6 C6          0.6640  -13.2865  -46.9090 C.3       23 UNK        -0.0398 
      7 S7          0.0001  -14.8555  -46.2490 S.3       23 UNK        -0.2404 
      8 C8         -1.7972  -14.6053  -46.3939 C.3       23 UNK        -0.0205 
      9 C9         -2.3268  -15.2743  -47.6502 C.ar      23 UNK        -0.0193 
     10 C10        -2.6326  -14.5284  -48.7916 C.ar      23 UNK        -0.1150 
     11 C11        -3.0586  -15.1696  -49.9575 C.ar      23 UNK        -0.0193 
     12 C12        -3.2049  -16.5598  -49.9654 C.ar      23 UNK        -0.1150 
     13 C13        -2.9182  -17.3166  -48.8271 C.ar      23 UNK        -0.0193 
     14 C14        -2.4863  -16.6611  -47.6716 C.ar      23 UNK        -0.1150 
     15 C15        -3.0768  -18.8326  -48.8568 C.3       23 UNK        -0.0205 
     16 S16        -1.5136  -19.7059  -48.5059 S.3       23 UNK        -0.2404 
     17 C17        -1.5733  -19.8486  -46.6882 C.3       23 UNK        -0.0398 
     18 CA         -1.1366  -21.2389  -46.1768 C.3       11 UNK         0.1400 
     19 N          -0.7431  -21.1886  -44.7616 N.am      11 UNK        -0.5000 
     20 C          -0.3396  -22.2313  -44.0186 C.2       10 UNK         0.5000 
     21 O          -0.2892  -23.3898  -44.4285 O.2       10 UNK        -0.5000 
     22 CA          0.0328  -21.9393  -42.5600 C.3       10 UNK         0.1400 
     23 CB          1.4230  -21.3019  -42.4756 C.3       10 UNK        -0.1800 
     24 N          -0.9549  -21.0657  -41.9332 N.am      10 UNK        -0.5000 
     25 C          -2.1298  -21.4982  -41.4540 C.2       9 UNK         0.5000 
     26 O          -2.4548  -22.6849  -41.4037 O.2       9 UNK        -0.5000 
     27 CA         -3.1250  -20.4238  -40.9775 C.3       9 UNK         0.1400 
     28 CB         -2.8535  -20.0470  -39.5132 C.3       9 UNK        -0.1800 
     29 N          -3.1008  -19.2122  -41.7972 N.am      9 UNK        -0.5000 
     30 C          -3.4035  -19.1594  -43.1017 C.2       8 UNK         0.5000 
     31 O          -3.7606  -20.1317  -43.7675 O.2       8 UNK        -0.5000 
     32 CA         -3.2320  -17.7951  -43.7925 C.3       8 UNK         0.1400 
     33 CB         -4.5379  -16.9902  -43.7365 C.3       8 UNK        -0.1800 
     34 N          -2.1380  -16.9804  -43.2576 N.am      8 UNK        -0.5000 
     35 C          -0.8453  -17.3340  -43.2069 C.2       7 UNK         0.5000 
     36 O          -0.4304  -18.4347  -43.5817 O.2       7 UNK        -0.5000 
     37 CA          0.1157  -16.2518  -42.6660 C.3       7 UNK         0.1400 
     38 CB         -0.4022  -15.6075  -41.3608 C.3       7 UNK        -0.1800 
     39 N           1.5041  -16.6882  -42.4962 N.am      7 UNK        -0.5000 
     40 C           1.9797  -17.6039  -41.6372 C.2       6 UNK         0.5000 
     41 O           1.2707  -18.3022  -40.9110 O.2       6 UNK        -0.5000 
     42 CA          3.5164  -17.7247  -41.5243 C.3       6 UNK         0.1400 
     43 CB          4.0420  -18.9931  -42.2103 C.3       6 UNK        -0.1800 
     44 N           4.2235  -16.5604  -42.0648 N.am      6 UNK        -0.5000 
     45 C           4.3125  -15.3782  -41.4364 C.2       5 UNK         0.5000 
     46 O           3.8496  -15.1722  -40.3137 O.2       5 UNK        -0.5000 
     47 CA          5.0294  -14.2250  -42.1689 C.3       5 UNK         0.1400 
     48 CB          6.4281  -13.9990  -41.5736 C.3       5 UNK        -0.1800 
     49 N           5.1603  -14.4067  -43.6162 N.am      5 UNK        -0.5000 
     50 C           4.1473  -14.4505  -44.4912 C.2       4 UNK         0.5000 
     51 O           2.9623  -14.3745  -44.1610 O.2       4 UNK        -0.5000 
     52 CA          4.5077  -14.6300  -45.9828 C.3       4 UNK         0.1400 
     53 CB          6.0215  -14.7649  -46.2632 C.3       4 UNK        -0.1800 
     54 N           3.7830  -15.7483  -46.5896 N.am      4 UNK        -0.5000 
     55 C           3.7635  -17.0231  -46.1699 C.2       3 UNK         0.5000 
     56 O           4.4040  -17.4249  -45.1970 O.2       3 UNK        -0.5000 
     57 CA          2.8831  -18.0184  -46.9534 C.3       3 UNK         0.1400 
     58 CB          1.9075  -18.7445  -46.0183 C.3       3 UNK        -0.1800 
     59 N           2.1106  -17.3700  -48.0164 N.am      3 UNK        -0.5000 
     60 C           2.4498  -17.3557  -49.3120 C.2       2 UNK         0.5000 
     61 O           3.4281  -17.9461  -49.7710 O.2       2 UNK        -0.5000 
     62 CA          1.5690  -16.5092  -50.2540 C.3       2 UNK         0.1400 
     63 CB          0.4822  -17.3740  -50.9089 C.3       2 UNK        -0.1800 
     64 N           0.9377  -15.3549  -49.6065 N.am      2 UNK        -0.5000 
     65 C           1.6010  -14.3204  -49.0716 C.2       1 UNK         0.5000 
     66 O           2.8308  -14.2480  -49.0213 O.2       1 UNK        -0.5000 
     67 C          -2.2186  -22.2986  -46.4726 C.2       11 UNK         0.5000 
     68 O          -2.1042  -23.0252  -47.4610 O.2       11 UNK        -0.5000 
     69 N          -3.2078  -22.4061  -45.5747 N.am      12 UNK        -0.5000 
     70 CA         -4.2998  -23.3799  -45.6165 C.3       12 UNK         0.1400 
     71 CB         -5.2586  -23.0906  -44.4515 C.3       12 UNK        -0.1800 
     72 C          -3.8554  -24.8578  -45.5888 C.2       12 UNK         0.5000 
     73 O          -4.6290  -25.7146  -46.0160 O.2       12 UNK        -0.5000 
     74 N          -2.6400  -25.1327  -45.0977 N.am      13 UNK        -0.5000 
     75 CA         -2.0263  -26.4591  -45.0882 C.3       13 UNK         0.1400 
     76 CB         -1.4923  -26.7521  -43.6769 C.3       13 UNK        -0.1800 
     77 C          -0.8921  -26.5575  -46.1226 C.2       13 UNK         0.5000 
     78 O          -0.7794  -27.5787  -46.8013 O.2       13 UNK        -0.5000 
     79 N          -0.0611  -25.5099  -46.2114 N.am      14 UNK        -0.5000 
     80 CA          1.1520  -25.4668  -47.0270 C.3       14 UNK         0.1400 
     81 CB          2.0160  -24.2776  -46.5777 C.3       14 UNK        -0.1800 
     82 C           0.8910  -25.3915  -48.5408 C.2       14 UNK         0.5000 
     83 O           1.6763  -25.9508  -49.3080 O.2       14 UNK        -0.5000 
     84 N          -0.1810  -24.6986  -48.9434 N.am      15 UNK        -0.5000 
     85 CA         -0.5489  -24.4912  -50.3437 C.3       15 UNK         0.1400 
     86 CB         -0.3190  -23.0197  -50.7204 C.3       15 UNK        -0.1800 
     87 C          -2.0038  -24.8975  -50.6029 C.2       15 UNK         0.5000 
     88 O          -2.2729  -25.5717  -51.5985 O.2       15 UNK        -0.5000 
     89 N          -2.9153  -24.4857  -49.7094 N.am      16 UNK        -0.5000 
     90 CA         -4.3617  -24.6994  -49.7765 C.3       16 UNK         0.1400 
     91 CB         -4.6913  -26.1832  -49.4939 C.3       16 UNK        -0.1800 
     92 C          -4.9408  -24.1627  -51.1041 C.2       16 UNK         0.5000 
     93 O          -4.8391  -22.9627  -51.3675 O.2       16 UNK        -0.5000 
     94 N          -5.4886  -25.0593  -51.9350 N.am      17 UNK        -0.5000 
     95 CA         -6.0505  -24.7718  -53.2550 C.3       17 UNK         0.1400 
     96 CB         -6.7086  -26.0466  -53.8034 C.3       17 UNK        -0.1800 
     97 C          -5.0372  -24.2097  -54.2731 C.2       17 UNK         0.5000 
     98 O          -5.4516  -23.5284  -55.2110 O.2       17 UNK        -0.5000 
     99 N          -3.7352  -24.4679  -54.0727 N.am      18 UNK        -0.5000 
    100 CA        -2.6570  -23.9598  -54.9273 C.3       18 UNK         0.1400 
    101 CB        -1.3599  -24.7280  -54.6300 C.3       18 UNK        -0.1800 
    102 C         -2.4267  -22.4401  -54.7948 C.2       18 UNK         0.5000 
    103 O         -1.7980  -21.8535  -55.6765 O.2       18 UNK        -0.5000 
    104 N         -2.9373  -21.8311  -53.7164 N.am      19 UNK        -0.5000 
    105 CA        -2.8653  -20.3965  -53.4457 C.3       19 UNK         0.1400 
    106 CB        -1.8833  -20.1486  -52.2872 C.3       19 UNK        -0.1800 
    107 C         -4.2633  -19.8165  -53.1658 C.2       19 UNK         0.5000 
    108 O         -4.3680  -18.8196  -52.4509 O.2       19 UNK        -0.5000 
    109 N         -5.3137  -20.4343  -53.7313 N.am      20 UNK        -0.5000 
    110 CA        -6.7205  -20.0428  -53.5923 C.3       20 UNK         0.1400 
    111 CB        -7.5975  -20.9872  -54.4296 C.3       20 UNK        -0.1800 
    112 C         -6.9603  -18.5730  -53.9874 C.2       20 UNK         0.5000 
    113 O         -6.9253  -18.2442  -55.1758 O.2       20 UNK        -0.5000 
    114 N         -7.1179  -17.7134  -52.9696 N.am      21 UNK        -0.5000 
    115 CA        -7.2370  -16.2515  -53.0474 C.3       21 UNK         0.1400 
    116 CB        -8.6006  -15.8608  -53.6543 C.3       21 UNK        -0.1800 
    117 C         -6.0504  -15.5650  -53.7649 C.2       21 UNK         0.5000 
    118 O         -6.2246  -14.4841  -54.3301 O.2       21 UNK        -0.5000 
    119 N         -4.8737  -16.2114  -53.7461 N.am      22 UNK        -0.5000 
    120 CA        -3.6712  -15.8468  -54.5175 C.3       22 UNK         0.1400 
    121 C         -3.8556  -15.9326  -56.0676 C.2       22 UNK         0.5000 
    122 N         -4.8544  -16.6420  -56.5830 N.am      22 UNK        -0.7600 
    123 O         -3.0611  -15.3830  -56.8258 O.2       22 UNK        -0.5000 
    124 C124       -3.0224  -14.5119  -54.0369 C.3       23 UNK        -0.0398 
    125 S125       -2.0880  -14.7282  -52.4862 S.3       23 UNK        -0.2404 
    126 C126       -3.3464  -14.3769  -51.2209 C.3       23 UNK        -0.0205 
    127 H127        1.1304   -9.3053  -50.6842 H         1 UNK         0.0600 
    128 H128        2.6387  -10.1266  -51.0995 H         1 UNK         0.0600 
    129 H129        2.3283   -9.6399  -49.4308 H         1 UNK         0.0600 
    130 H130        1.7855  -11.3764  -48.1534 H         1 UNK         0.3000 
    131 H131       -0.2571  -13.2682  -48.8561 H         1 UNK         0.0600 
    132 H132        1.6540  -13.1482  -46.4716 H         1 UNK         0.0800 
    133 H133        0.0588  -12.4661  -46.5212 H         1 UNK         0.0800 
    134 H134       -2.2847  -15.0418  -45.5215 H         1 UNK         0.0800 
    135 H135       -2.0450  -13.5431  -46.3800 H         1 UNK         0.0800 
    136 H136       -2.5249  -13.4531  -48.7790 H         1 UNK         0.1150 
    137 H137       -3.5286  -17.0502  -50.8712 H         1 UNK         0.1150 
    138 H138       -2.2453  -17.2270  -46.7879 H         1 UNK         0.1150 
    139 H139       -3.8556  -19.1353  -48.1564 H         1 UNK         0.0800 
    140 H140       -3.4245  -19.1517  -49.8400 H         1 UNK         0.0800 
    141 H141       -0.9239  -19.0740  -46.2825 H         1 UNK         0.0800 
    142 H142       -2.5748  -19.6165  -46.3277 H         1 UNK         0.0800 
    143 H143       -0.2401  -21.5363  -46.7243 H         1 UNK         0.0600 
    144 H144       -0.7323  -20.2694  -44.3300 H         1 UNK         0.3000 
    145 H145        0.0673  -22.8891  -42.0217 H         1 UNK         0.0600 
    146 H146        2.1800  -21.9504  -42.9182 H         1 UNK         0.0600 
    147 H147        1.4604  -20.3467  -42.9997 H         1 UNK         0.0600 
    148 H148        1.7055  -21.1287  -41.4373 H         1 UNK         0.0600 
    149 H149       -0.7700  -20.0711  -41.9709 H         1 UNK         0.3000 
    150 H150       -4.1282  -20.8502  -41.0429 H         1 UNK         0.0600 
    151 H151       -2.8828  -20.9285  -38.8714 H         1 UNK         0.0600 
    152 H152       -3.6031  -19.3492  -39.1394 H         1 UNK         0.0600 
    153 H153       -1.8728  -19.5846  -39.3919 H         1 UNK         0.0600 
    154 H154       -2.8019  -18.3625  -41.3424 H         1 UNK         0.3000 
    155 H155       -3.0083  -17.9900  -44.8385 H         1 UNK         0.0600 
    156 H156       -4.4616  -16.0726  -44.3203 H         1 UNK         0.0600 
    157 H157       -4.8003  -16.7185  -42.7133 H         1 UNK         0.0600 
    158 H158       -5.3690  -17.5652  -44.1473 H         1 UNK         0.0600 
    159 H159       -2.3953  -16.0632  -42.9237 H         1 UNK         0.3000 
    160 H160        0.1532  -15.4688  -43.4224 H         1 UNK         0.0600 
    161 H161       -0.5887  -16.3525  -40.5865 H         1 UNK         0.0600 
    162 H162       -1.3318  -15.0614  -41.5222 H         1 UNK         0.0600 
    163 H163        0.3184  -14.8912  -40.9652 H         1 UNK         0.0600 
    164 H164        2.1778  -16.1744  -43.0508 H         1 UNK         0.3000 
    165 H165        3.7576  -17.8036  -40.4621 H         1 UNK         0.0600 
    166 H166        3.6963  -19.0705  -43.2400 H         1 UNK         0.0600 
    167 H167        5.1318  -19.0182  -42.2196 H         1 UNK         0.0600 
    168 H168        3.7087  -19.8837  -41.6796 H         1 UNK         0.0600 
    169 H169        4.6032  -16.6538  -42.9990 H         1 UNK         0.3000 
    170 H170        4.4377  -13.3228  -42.0010 H         1 UNK         0.0600 
    171 H171        6.3730  -13.8225  -40.4985 H         1 UNK         0.0600 
    172 H172        7.0759  -14.8622  -41.7315 H         1 UNK         0.0600 
    173 H173        6.9115  -13.1290  -42.0185 H         1 UNK         0.0600 
    174 H174        6.1006  -14.5043  -43.9708 H         1 UNK         0.3000 
    175 H175        4.1591  -13.7284  -46.4878 H         1 UNK         0.0600 
    176 H176        6.4532  -15.6434  -45.7821 H         1 UNK         0.0600 
    177 H177        6.2086  -14.8535  -47.3336 H         1 UNK         0.0600 
    178 H178        6.5697  -13.8872  -45.9188 H         1 UNK         0.0600 
    179 H179        3.2487  -15.5098  -47.4160 H         1 UNK         0.3000 
    180 H180        3.5552  -18.7668  -47.3773 H         1 UNK         0.0600 
    181 H181        1.1948  -18.0489  -45.5765 H         1 UNK         0.0600 
    182 H182        2.4282  -19.2474  -45.2040 H         1 UNK         0.0600 
    183 H183        1.3540  -19.5099  -46.5600 H         1 UNK         0.0600 
    184 H184        1.2924  -16.8520  -47.7277 H         1 UNK         0.3000 
    185 H185        2.2189  -16.1288  -51.0447 H         1 UNK         0.0600 
    186 H186       -0.0330  -16.8288  -51.6992 H         1 UNK         0.0600 
    187 H187        0.9069  -18.2721  -51.3593 H         1 UNK         0.0600 
    188 H188       -0.2653  -17.6916  -50.1837 H         1 UNK         0.0600 
    189 H189       -0.0731  -15.3476  -49.6002 H         1 UNK         0.3000 
    190 H190       -3.2369  -21.7399  -44.8079 H         1 UNK         0.3000 
    191 H191       -4.8404  -23.2242  -46.5518 H         1 UNK         0.0600 
    192 H192       -6.0972  -23.7883  -44.4477 H         1 UNK         0.0600 
    193 H193       -5.6745  -22.0855  -44.5237 H         1 UNK         0.0600 
    194 H194       -4.7537  -23.1752  -43.4881 H         1 UNK         0.0600 
    195 H195       -2.0573  -24.3658  -44.7826 H         1 UNK         0.3000 
    196 H196       -2.7629  -27.2272  -45.3325 H         1 UNK         0.0600 
    197 H197       -1.0209  -27.7347  -43.6332 H         1 UNK         0.0600 
    198 H198       -2.2989  -26.7451  -42.9436 H         1 UNK         0.0600 
    199 H199       -0.7506  -26.0163  -43.3632 H         1 UNK         0.0600 
    200 H200       -0.2019  -24.7182  -45.5869 H         1 UNK         0.3000 
    201 H201        1.7151  -26.3828  -46.8361 H         1 UNK         0.0600 
    202 H202        2.2749  -24.3544  -45.5215 H         1 UNK         0.0600 
    203 H203        1.5016  -23.3278  -46.7275 H         1 UNK         0.0600 
    204 H204        2.9502  -24.2375  -47.1393 H         1 UNK         0.0600 
    205 H205       -0.7871  -24.2782  -48.2464 H         1 UNK         0.3000 
    206 H206        0.0694  -25.1059  -51.0011 H         1 UNK         0.0600 
    207 H207        0.7312  -22.7466  -50.6177 H         1 UNK         0.0600 
    208 H208       -0.6044  -22.8337  -51.7561 H         1 UNK         0.0600 
    209 H209       -0.9010  -22.3468  -50.0898 H         1 UNK         0.0600 
    210 H210       -2.6041  -23.9000  -48.9369 H         1 UNK         0.3000 
    211 H211       -4.8032  -24.0998  -48.9796 H         1 UNK         0.0600 
    212 H212       -4.2899  -26.8522  -50.2558 H         1 UNK         0.0600 
    213 H213       -5.7686  -26.3439  -49.4374 H         1 UNK         0.0600 
    214 H214       -4.2711  -26.4980  -48.5393 H         1 UNK         0.0600 
    215 H215       -5.4921  -26.0277  -51.6493 H         1 UNK         0.3000 
    216 H216       -6.8285  -24.0194  -53.1191 H         1 UNK         0.0600 
    217 H217       -7.1697  -25.8621  -54.7747 H         1 UNK         0.0600 
    218 H218       -7.4931  -26.4050  -53.1367 H         1 UNK         0.0600 
    219 H219       -5.9822  -26.8501  -53.9321 H         1 UNK         0.0600 
    220 H220       -3.4545  -25.0097  -53.2620 H         1 UNK         0.3000 
    221 H221       -2.9320  -24.1575  -55.9655 H         1 UNK         0.0600 
    222 H222       -0.9745  -24.5010  -53.6365 H         1 UNK         0.0600 
    223 H223       -1.5113  -25.8056  -54.6955 H         1 UNK         0.0600 
    224 H224       -0.5808  -24.4651  -55.3465 H         1 UNK         0.0600 
    225 H225       -3.4635  -22.3789  -53.0447 H         1 UNK         0.3000 
    226 H226       -2.4943  -19.8593  -54.3206 H         1 UNK         0.0600 
    227 H227       -0.8829  -20.5010  -52.5368 H         1 UNK         0.0600 
    228 H228       -1.7986  -19.0864  -52.0540 H         1 UNK         0.0600 
    229 H229       -2.2051  -20.6612  -51.3807 H         1 UNK         0.0600 
    230 H230       -5.1332  -21.2328  -54.3238 H         1 UNK         0.3000 
    231 H231       -6.9963  -20.1725  -52.5439 H         1 UNK         0.0600 
    232 H232       -8.6457  -20.6882  -54.3882 H         1 UNK         0.0600 
    233 H233       -7.5408  -22.0095  -54.0602 H         1 UNK         0.0600 
    234 H234       -7.2979  -20.9928  -55.4784 H         1 UNK         0.0600 
    235 H235       -7.0598  -18.0857  -52.0318 H         1 UNK         0.3000 
    236 H236       -7.2152  -15.8879  -52.0192 H         1 UNK         0.0600 
    237 H237       -9.4211  -16.3455  -53.1252 H         1 UNK         0.0600 
    238 H238       -8.7669  -14.7850  -53.5894 H         1 UNK         0.0600 
    239 H239       -8.6686  -16.1399  -54.7063 H         1 UNK         0.0600 
    240 H240       -4.8177  -17.0942  -53.2464 H         1 UNK         0.3000 
    241 H241       -2.9557  -16.6443  -54.3137 H         1 UNK         0.0600 
    242 H242       -5.5275  -17.1209  -55.9924 H         1 UNK         0.3800 
    243 H243       -4.9508  -16.6966  -57.5844 H         1 UNK         0.3800 
    244 H244       -2.2989  -14.1412  -54.7638 H         1 UNK         0.0800 
    245 H245       -3.7588  -13.7160  -53.9265 H         1 UNK         0.0800 
    246 H246       -3.3632  -13.3047  -51.0204 H         1 UNK         0.0800 
    247 H247       -4.3400  -14.6398  -51.5800 H         1 UNK         0.0800 
@<TRIPOS>BOND
     1    1    2 1    
     2    1  127 1    
     3    1  128 1    
     4    1  129 1    
     5    2    3 2    
     6    2    4 am   BACKBONE|DICT|INTERRES
     7    4    5 1    
     8    4  130 1    
     9    5    6 1    
    10    5   65 1    
    11    5  131 1    
    12    6    7 1    
    13    6  132 1    
    14    6  133 1    
    15    7    8 1    
    16    8    9 1    
    17    8  134 1    
    18    8  135 1    
    19    9   10 ar   
    20    9   14 ar   
    21   10   11 ar   
    22   10  136 1    
    23   11   12 ar   
    24   11  126 1    
    25   12   13 ar   
    26   12  137 1    
    27   13   14 ar   
    28   13   15 1    
    29   14  138 1    
    30   15   16 1    
    31   15  139 1    
    32   15  140 1    
    33   16   17 1    
    34   17   18 1    
    35   17  141 1    
    36   17  142 1    
    37   18   19 1    
    38   18   67 1    
    39   18  143 1    
    40   19   20 am   BACKBONE|DICT|INTERRES
    41   19  144 1    
    42   20   21 2    
    43   20   22 1    
    44   22   23 1    
    45   22   24 1    
    46   22  145 1    
    47   23  146 1    
    48   23  147 1    
    49   23  148 1    
    50   24   25 am   BACKBONE|DICT|INTERRES
    51   24  149 1    
    52   25   26 2    
    53   25   27 1    
    54   27   28 1    
    55   27   29 1    
    56   27  150 1    
    57   28  151 1    
    58   28  152 1    
    59   28  153 1    
    60   29   30 am   BACKBONE|DICT|INTERRES
    61   29  154 1    
    62   30   31 2    
    63   30   32 1    
    64   32   33 1    
    65   32   34 1    
    66   32  155 1    
    67   33  156 1    
    68   33  157 1    
    69   33  158 1    
    70   34   35 am   BACKBONE|DICT|INTERRES
    71   34  159 1    
    72   35   36 2    
    73   35   37 1    
    74   37   38 1    
    75   37   39 1    
    76   37  160 1    
    77   38  161 1    
    78   38  162 1    
    79   38  163 1    
    80   39   40 am   BACKBONE|DICT|INTERRES
    81   39  164 1    
    82   40   41 2    
    83   40   42 1    
    84   42   43 1    
    85   42   44 1    
    86   42  165 1    
    87   43  166 1    
    88   43  167 1    
    89   43  168 1    
    90   44   45 am   BACKBONE|DICT|INTERRES
    91   44  169 1    
    92   45   46 2    
    93   45   47 1    
    94   47   48 1    
    95   47   49 1    
    96   47  170 1    
    97   48  171 1    
    98   48  172 1    
    99   48  173 1    
   100   49   50 am   BACKBONE|DICT|INTERRES
   101   49  174 1    
   102   50   51 2    
   103   50   52 1    
   104   52   53 1    
   105   52   54 1    
   106   52  175 1    
   107   53  176 1    
   108   53  177 1    
   109   53  178 1    
   110   54   55 am   BACKBONE|DICT|INTERRES
   111   54  179 1    
   112   55   56 2    
   113   55   57 1    
   114   57   58 1    
   115   57   59 1    
   116   57  180 1    
   117   58  181 1    
   118   58  182 1    
   119   58  183 1    
   120   59   60 am   BACKBONE|DICT|INTERRES
   121   59  184 1    
   122   60   61 2    
   123   60   62 1    
   124   62   63 1    
   125   62   64 1    
   126   62  185 1    
   127   63  186 1    
   128   63  187 1    
   129   63  188 1    
   130   64   65 am   BACKBONE|DICT|INTERRES
   131   64  189 1    
   132   65   66 2    
   133   67   68 2    
   134   67   69 am   BACKBONE|DICT|INTERRES
   135   69   70 1    
   136   69  190 1    
   137   70   71 1    
   138   70   72 1    
   139   70  191 1    
   140   71  192 1    
   141   71  193 1    
   142   71  194 1    
   143   72   73 2    
   144   72   74 am   BACKBONE|DICT|INTERRES
   145   74   75 1    
   146   74  195 1    
   147   75   76 1    
   148   75   77 1    
   149   75  196 1    
   150   76  197 1    
   151   76  198 1    
   152   76  199 1    
   153   77   78 2    
   154   77   79 am   BACKBONE|DICT|INTERRES
   155   79   80 1    
   156   79  200 1    
   157   80   81 1    
   158   80   82 1    
   159   80  201 1    
   160   81  202 1    
   161   81  203 1    
   162   81  204 1    
   163   82   83 2    
   164   82   84 am   BACKBONE|DICT|INTERRES
   165   84   85 1    
   166   84  205 1    
   167   85   86 1    
   168   85   87 1    
   169   85  206 1    
   170   86  207 1    
   171   86  208 1    
   172   86  209 1    
   173   87   88 2    
   174   87   89 am   BACKBONE|DICT|INTERRES
   175   89   90 1    
   176   89  210 1    
   177   90   91 1    
   178   90   92 1    
   179   90  211 1    
   180   91  212 1    
   181   91  213 1    
   182   91  214 1    
   183   92   93 2    
   184   92   94 am   BACKBONE|DICT|INTERRES
   185   94   95 1    
   186   94  215 1    
   187   95   96 1    
   188   95   97 1    
   189   95  216 1    
   190   96  217 1    
   191   96  218 1    
   192   96  219 1    
   193   97   98 2    
   194   97   99 am   BACKBONE|DICT|INTERRES
   195   99  100 1    
   196   99  220 1    
   197  100  101 1    
   198  100  102 1    
   199  100  221 1    
   200  101  222 1    
   201  101  223 1    
   202  101  224 1    
   203  102  103 2    
   204  102  104 am   BACKBONE|DICT|INTERRES
   205  104  105 1    
   206  104  225 1    
   207  105  106 1    
   208  105  107 1    
   209  105  226 1    
   210  106  227 1    
   211  106  228 1    
   212  106  229 1    
   213  107  108 2    
   214  107  109 am   BACKBONE|DICT|INTERRES
   215  109  110 1    
   216  109  230 1    
   217  110  111 1    
   218  110  112 1    
   219  110  231 1    
   220  111  232 1    
   221  111  233 1    
   222  111  234 1    
   223  112  113 2    
   224  112  114 am   BACKBONE|DICT|INTERRES
   225  114  115 1    
   226  114  235 1    
   227  115  116 1    
   228  115  117 1    
   229  115  236 1    
   230  116  237 1    
   231  116  238 1    
   232  116  239 1    
   233  117  118 2    
   234  117  119 am   BACKBONE|DICT|INTERRES
   235  119  120 1    
   236  119  240 1    
   237  120  121 1    
   238  120  124 1    
   239  120  241 1    
   240  121  122 am   BACKBONE|DICT|INTERRES
   241  121  123 2    
   242  122  242 1    
   243  122  243 1    
   244  124  125 1    
   245  124  244 1    
   246  124  245 1    
   247  125  126 1    
   248  126  246 1    
   249  126  247 1    
@<TRIPOS>SUBSTRUCTURE
     1 UNK         1 GROUP             0       ****    0 ROOT    
