@<TRIPOS>MOLECULE
3R540
247   249    1
SMALL
USER_CHARGES


@<TRIPOS>ATOM
      1 CA          0.6591   -9.3115  -48.9268 C.3       0 UNK        -0.1800 
      2 C           0.7995  -10.2672  -47.7512 C.2       0 UNK         0.5000 
      3 O           0.9286   -9.8126  -46.6127 O.2       0 UNK        -0.5000 
      4 N           0.7568  -11.5793  -48.0274 N.am      1 UNK        -0.5000 
      5 CA          0.9026  -12.7080  -47.0925 C.3       1 UNK         0.1400 
      6 C6          1.1532  -14.0386  -47.8481 C.3       23 UNK        -0.0398 
      7 S7          2.6783  -14.0236  -48.8504 S.3       23 UNK        -0.2404 
      8 C8          3.4215  -15.6379  -48.4126 C.3       23 UNK        -0.0205 
      9 C9          2.7687  -16.8834  -49.0251 C.ar      23 UNK        -0.0193 
     10 C10         1.6119  -16.8390  -49.8169 C.ar      23 UNK        -0.1150 
     11 C11         1.0547  -18.0020  -50.3577 C.ar      23 UNK        -0.0193 
     12 C12         1.6931  -19.2258  -50.1256 C.ar      23 UNK        -0.1150 
     13 C13         2.8409  -19.2955  -49.3347 C.ar      23 UNK        -0.0193 
     14 C14         3.3680  -18.1240  -48.7853 C.ar      23 UNK        -0.1150 
     15 C15         3.5186  -20.6365  -49.0916 C.3       23 UNK        -0.0205 
     16 S16         2.7897  -21.5289  -47.6823 S.3       23 UNK        -0.2404 
     17 C17         1.1747  -22.0398  -48.3635 C.3       23 UNK        -0.0398 
     18 CA          0.5216  -23.1767  -47.5455 C.3       11 UNK         0.1400 
     19 N           0.2054  -22.7692  -46.1744 N.am      11 UNK        -0.5000 
     20 C          -0.2346  -23.5892  -45.2108 C.2       10 UNK         0.5000 
     21 O          -0.3799  -24.8024  -45.3558 O.2       10 UNK        -0.5000 
     22 CA         -0.6310  -22.9344  -43.8783 C.3       10 UNK         0.1400 
     23 CB          0.6022  -22.6753  -42.9996 C.3       10 UNK        -0.1800 
     24 N          -1.3629  -21.6858  -44.0899 N.am      10 UNK        -0.5000 
     25 C          -2.6195  -21.6185  -44.5504 C.2       9 UNK         0.5000 
     26 O          -3.3036  -22.6074  -44.8135 O.2       9 UNK        -0.5000 
     27 CA         -3.1969  -20.2104  -44.7874 C.3       9 UNK         0.1400 
     28 CB         -3.7382  -19.6183  -43.4779 C.3       9 UNK        -0.1800 
     29 N          -2.2229  -19.2864  -45.3697 N.am      9 UNK        -0.5000 
     30 C          -1.7156  -19.4066  -46.6042 C.2       8 UNK         0.5000 
     31 O          -2.0261  -20.3013  -47.3873 O.2       8 UNK        -0.5000 
     32 CA         -0.6476  -18.3824  -47.0217 C.3       8 UNK         0.1400 
     33 CB         -1.3188  -17.1079  -47.5520 C.3       8 UNK        -0.1800 
     34 N           0.3069  -18.0288  -45.9670 N.am      8 UNK        -0.5000 
     35 C           1.0337  -18.8933  -45.2420 C.2       7 UNK         0.5000 
     36 O           0.9068  -20.1145  -45.3069 O.2       7 UNK        -0.5000 
     37 CA          2.0738  -18.3087  -44.2714 C.3       7 UNK         0.1400 
     38 CB          3.4875  -18.4674  -44.8511 C.3       7 UNK        -0.1800 
     39 N           1.8505  -16.8973  -43.9665 N.am      7 UNK        -0.5000 
     40 C           0.9174  -16.4068  -43.1443 C.2       6 UNK         0.5000 
     41 O           0.1178  -17.1181  -42.5342 O.2       6 UNK        -0.5000 
     42 CA          0.8759  -14.8671  -42.9898 C.3       6 UNK         0.1400 
     43 CB         -0.0312  -14.4073  -41.8348 C.3       6 UNK        -0.1800 
     44 N           2.1926  -14.2368  -42.8311 N.am      6 UNK        -0.5000 
     45 C           3.1314  -14.0994  -43.7779 C.2       5 UNK         0.5000 
     46 O           3.0112  -14.5461  -44.9202 O.2       5 UNK        -0.5000 
     47 CA          4.3941  -13.3109  -43.3687 C.3       5 UNK         0.1400 
     48 CB          5.4286  -13.2052  -44.5095 C.3       5 UNK        -0.1800 
     49 N           4.0666  -11.9796  -42.8386 N.am      5 UNK        -0.5000 
     50 C           3.3719  -11.0264  -43.4755 C.2       4 UNK         0.5000 
     51 O           2.9420  -11.1380  -44.6254 O.2       4 UNK        -0.5000 
     52 CA          3.1002   -9.7291  -42.7039 C.3       4 UNK         0.1400 
     53 CB          4.2490   -8.7212  -42.8751 C.3       4 UNK        -0.1800 
     54 N           1.8649   -9.1766  -43.2390 N.am      4 UNK        -0.5000 
     55 C           0.9936   -8.3928  -42.5989 C.2       3 UNK         0.5000 
     56 O           1.1851   -7.9177  -41.4790 O.2       3 UNK        -0.5000 
     57 CA         -0.3374   -8.1352  -43.3295 C.3       3 UNK         0.1400 
     58 CB         -0.1978   -6.9677  -44.3185 C.3       3 UNK        -0.1800 
     59 N          -0.8016   -9.3243  -44.0501 N.am      3 UNK        -0.5000 
     60 C          -1.3016  -10.4215  -43.4585 C.2       2 UNK         0.5000 
     61 O          -1.4949  -10.5173  -42.2465 O.2       2 UNK        -0.5000 
     62 CA         -1.6056  -11.6224  -44.3653 C.3       2 UNK         0.1400 
     63 CB         -2.9850  -11.4747  -45.0326 C.3       2 UNK        -0.1800 
     64 N          -0.5554  -11.7625  -45.3677 N.am      2 UNK        -0.5000 
     65 C          -0.2952  -12.8326  -46.1184 C.2       1 UNK         0.5000 
     66 O          -0.9538  -13.8728  -46.0636 O.2       1 UNK        -0.5000 
     67 C          -0.7217  -23.7326  -48.2695 C.2       11 UNK         0.5000 
     68 O          -0.6335  -24.7912  -48.8908 O.2       11 UNK        -0.5000 
     69 N          -1.8656  -23.0456  -48.1336 N.am      12 UNK        -0.5000 
     70 CA         -3.1645  -23.4763  -48.6495 C.3       12 UNK         0.1400 
     71 CB         -4.2044  -22.3728  -48.4166 C.3       12 UNK        -0.1800 
     72 C          -3.6409  -24.8020  -48.0339 C.2       12 UNK         0.5000 
     73 O          -4.1051  -25.6719  -48.7697 O.2       12 UNK        -0.5000 
     74 N          -3.4850  -24.9502  -46.7103 N.am      13 UNK        -0.5000 
     75 CA         -3.8032  -26.1755  -45.9762 C.3       13 UNK         0.1400 
     76 CB         -3.7008  -25.9208  -44.4651 C.3       13 UNK        -0.1800 
     77 C          -2.9212  -27.3658  -46.3956 C.2       13 UNK         0.5000 
     78 O          -3.4445  -28.4625  -46.5926 O.2       13 UNK        -0.5000 
     79 N          -1.6136  -27.1225  -46.5653 N.am      14 UNK        -0.5000 
     80 CA         -0.6354  -28.1046  -47.0388 C.3       14 UNK         0.1400 
     81 CB          0.7820  -27.5337  -46.8817 C.3       14 UNK        -0.1800 
     82 C          -0.8866  -28.5492  -48.4922 C.2       14 UNK         0.5000 
     83 O          -0.7494  -29.7343  -48.7979 O.2       14 UNK        -0.5000 
     84 N          -1.2765  -27.5991  -49.3527 N.am      15 UNK        -0.5000 
     85 CA         -1.6597  -27.8378  -50.7459 C.3       15 UNK         0.1400 
     86 CB         -1.6403  -26.4981  -51.5000 C.3       15 UNK        -0.1800 
     87 C          -3.0399  -28.5084  -50.9006 C.2       15 UNK         0.5000 
     88 O          -3.3298  -29.0326  -51.9768 O.2       15 UNK        -0.5000 
     89 N          -3.8650  -28.4534  -49.8435 N.am      16 UNK        -0.5000 
     90 CA         -5.2801  -28.8344  -49.7890 C.3       16 UNK         0.1400 
     91 CB         -5.4559  -30.3557  -49.9758 C.3       16 UNK        -0.1800 
     92 C          -6.1279  -27.9888  -50.7633 C.2       16 UNK         0.5000 
     93 O          -6.9395  -28.5258  -51.5202 O.2       16 UNK        -0.5000 
     94 N          -5.8856  -26.6742  -50.7397 N.am      17 UNK        -0.5000 
     95 CA         -6.4668  -25.6757  -51.6289 C.3       17 UNK         0.1400 
     96 CB         -5.4509  -25.3650  -52.7490 C.3       17 UNK        -0.1800 
     97 C          -6.8809  -24.4331  -50.8171 C.2       17 UNK         0.5000 
     98 O          -7.1814  -24.5443  -49.6261 O.2       17 UNK        -0.5000 
     99 N          -6.8991  -23.2729  -51.4786 N.am      18 UNK        -0.5000 
    100 CA        -7.1495  -21.9548  -50.9042 C.3       18 UNK         0.1400 
    101 CB        -8.4634  -21.4046  -51.4826 C.3       18 UNK        -0.1800 
    102 C         -5.9763  -21.0360  -51.2741 C.2       18 UNK         0.5000 
    103 O         -5.2374  -21.3363  -52.2151 O.2       18 UNK        -0.5000 
    104 N         -5.8460  -19.9050  -50.5673 N.am      19 UNK        -0.5000 
    105 CA        -4.7920  -18.9028  -50.7834 C.3       19 UNK         0.1400 
    106 CB        -4.8767  -17.8322  -49.6859 C.3       19 UNK        -0.1800 
    107 C         -4.8107  -18.2553  -52.1860 C.2       19 UNK         0.5000 
    108 O         -3.7840  -17.7557  -52.6452 O.2       19 UNK        -0.5000 
    109 N         -5.9622  -18.3210  -52.8674 N.am      20 UNK        -0.5000 
    110 CA        -6.1370  -17.9321  -54.2662 C.3       20 UNK         0.1400 
    111 CB        -7.6362  -17.9644  -54.6018 C.3       20 UNK        -0.1800 
    112 C         -5.3433  -18.8063  -55.2617 C.2       20 UNK         0.5000 
    113 O         -5.0831  -18.3479  -56.3748 O.2       20 UNK        -0.5000 
    114 N         -4.9750  -20.0355  -54.8645 N.am      21 UNK        -0.5000 
    115 CA        -4.1684  -20.9475  -55.6760 C.3       21 UNK         0.1400 
    116 CB        -4.3075  -22.3837  -55.1457 C.3       21 UNK        -0.1800 
    117 C         -2.6898  -20.5238  -55.7255 C.2       21 UNK         0.5000 
    118 O         -2.0864  -20.5717  -56.7985 O.2       21 UNK        -0.5000 
    119 N         -2.1374  -20.1139  -54.5753 N.am      22 UNK        -0.5000 
    120 CA        -0.7684  -19.5859  -54.4629 C.3       22 UNK         0.1400 
    121 C         -0.6562  -18.0732  -54.8026 C.2       22 UNK         0.5000 
    122 N         -1.6718  -17.2587  -54.5431 N.am      22 UNK        -0.7600 
    123 O          0.3654  -17.6344  -55.3236 O.2       22 UNK        -0.5000 
    124 C124       -0.1018  -19.9329  -53.1051 C.3       23 UNK        -0.0398 
    125 S125       -1.0616  -19.4379  -51.6313 S.3       23 UNK        -0.2404 
    126 C126       -0.2364  -17.8732  -51.1699 C.3       23 UNK        -0.0205 
    127 H127       -0.2145   -8.6744  -48.7889 H         1 UNK         0.0600 
    128 H128        0.5479   -9.8428  -49.8723 H         1 UNK         0.0600 
    129 H129        1.5400   -8.6734  -48.9965 H         1 UNK         0.0600 
    130 H130        0.6388  -11.8551  -48.9915 H         1 UNK         0.3000 
    131 H131        1.7826  -12.5148  -46.4780 H         1 UNK         0.0600 
    132 H132        0.3115  -14.2622  -48.5050 H         1 UNK         0.0800 
    133 H133        1.2189  -14.8660  -47.1393 H         1 UNK         0.0800 
    134 H134        4.4647  -15.6122  -48.7302 H         1 UNK         0.0800 
    135 H135        3.4398  -15.7397  -47.3268 H         1 UNK         0.0800 
    136 H136        1.1240  -15.8990  -50.0220 H         1 UNK         0.1150 
    137 H137        1.3004  -20.1386  -50.5453 H         1 UNK         0.1150 
    138 H138        4.2596  -18.1777  -48.1764 H         1 UNK         0.1150 
    139 H139        3.4664  -21.2553  -49.9886 H         1 UNK         0.0800 
    140 H140        4.5805  -20.4832  -48.8939 H         1 UNK         0.0800 
    141 H141        1.3268  -22.3587  -49.3964 H         1 UNK         0.0800 
    142 H142        0.5168  -21.1704  -48.3973 H         1 UNK         0.0800 
    143 H143        1.2407  -23.9960  -47.4790 H         1 UNK         0.0600 
    144 H144        0.3515  -21.7880  -45.9476 H         1 UNK         0.3000 
    145 H145       -1.2842  -23.6283  -43.3450 H         1 UNK         0.0600 
    146 H146        0.3185  -22.2440  -42.0395 H         1 UNK         0.0600 
    147 H147        1.1333  -23.6055  -42.7940 H         1 UNK         0.0600 
    148 H148        1.3085  -21.9958  -43.4769 H         1 UNK         0.0600 
    149 H149       -0.8349  -20.8302  -43.9892 H         1 UNK         0.3000 
    150 H150       -4.0301  -20.3076  -45.4868 H         1 UNK         0.0600 
    151 H151       -4.4773  -20.2813  -43.0260 H         1 UNK         0.0600 
    152 H152       -4.2265  -18.6592  -43.6513 H         1 UNK         0.0600 
    153 H153       -2.9442  -19.4634  -42.7461 H         1 UNK         0.0600 
    154 H154       -1.8946  -18.5329  -44.7833 H         1 UNK         0.3000 
    155 H155       -0.0737  -18.8301  -47.8338 H         1 UNK         0.0600 
    156 H156       -0.5871  -16.4286  -47.9843 H         1 UNK         0.0600 
    157 H157       -2.0414  -17.3432  -48.3342 H         1 UNK         0.0600 
    158 H158       -1.8492  -16.5718  -46.7640 H         1 UNK         0.0600 
    159 H159        0.4759  -17.0447  -45.8272 H         1 UNK         0.3000 
    160 H160        2.0152  -18.8812  -43.3434 H         1 UNK         0.0600 
    161 H161        3.6142  -17.8827  -45.7626 H         1 UNK         0.0600 
    162 H162        3.6964  -19.5095  -45.0980 H         1 UNK         0.0600 
    163 H163        4.2451  -18.1439  -44.1373 H         1 UNK         0.0600 
    164 H164        2.4457  -16.2230  -44.4421 H         1 UNK         0.3000 
    165 H165        0.4397  -14.4868  -43.9117 H         1 UNK         0.0600 
    166 H166       -0.0877  -13.3195  -41.7854 H         1 UNK         0.0600 
    167 H167       -1.0499  -14.7752  -41.9640 H         1 UNK         0.0600 
    168 H168        0.3311  -14.7692  -40.8719 H         1 UNK         0.0600 
    169 H169        2.3868  -13.8547  -41.9169 H         1 UNK         0.3000 
    170 H170        4.8585  -13.8695  -42.5547 H         1 UNK         0.0600 
    171 H171        5.0245  -12.6879  -45.3804 H         1 UNK         0.0600 
    172 H172        5.7469  -14.1950  -44.8389 H         1 UNK         0.0600 
    173 H173        6.3199  -12.6685  -44.1849 H         1 UNK         0.0600 
    174 H174        4.3778  -11.7978  -41.8942 H         1 UNK         0.3000 
    175 H175        2.9663   -9.9667  -41.6465 H         1 UNK         0.0600 
    176 H176        5.1859   -9.1275  -42.4922 H         1 UNK         0.0600 
    177 H177        4.4044   -8.4658  -43.9241 H         1 UNK         0.0600 
    178 H178        4.0490   -7.7975  -42.3318 H         1 UNK         0.0600 
    179 H179        1.6310   -9.5359  -44.1582 H         1 UNK         0.3000 
    180 H180       -1.0864   -7.8643  -42.5823 H         1 UNK         0.0600 
    181 H181        0.5237   -7.1902  -45.1060 H         1 UNK         0.0600 
    182 H182        0.1388   -6.0635  -43.8097 H         1 UNK         0.0600 
    183 H183       -1.1518   -6.7373  -44.7932 H         1 UNK         0.0600 
    184 H184       -0.6726   -9.3143  -45.0529 H         1 UNK         0.3000 
    185 H185       -1.6097  -12.5182  -43.7412 H         1 UNK         0.0600 
    186 H186       -3.7657  -11.3255  -44.2856 H         1 UNK         0.0600 
    187 H187       -3.0126  -10.6231  -45.7134 H         1 UNK         0.0600 
    188 H188       -3.2498  -12.3659  -45.6014 H         1 UNK         0.0600 
    189 H189        0.0532  -10.9596  -45.5100 H         1 UNK         0.3000 
    190 H190       -1.8524  -22.1483  -47.6546 H         1 UNK         0.3000 
    191 H191       -3.0641  -23.6272  -49.7263 H         1 UNK         0.0600 
    192 H192       -4.2886  -22.1127  -47.3615 H         1 UNK         0.0600 
    193 H193       -5.1903  -22.6909  -48.7523 H         1 UNK         0.0600 
    194 H194       -3.9436  -21.4675  -48.9643 H         1 UNK         0.0600 
    195 H195       -3.1383  -24.1690  -46.1640 H         1 UNK         0.3000 
    196 H196       -4.8389  -26.4366  -46.2034 H         1 UNK         0.0600 
    197 H197       -3.9537  -26.8185  -43.8998 H         1 UNK         0.0600 
    198 H198       -4.3880  -25.1349  -44.1512 H         1 UNK         0.0600 
    199 H199       -2.6946  -25.6211  -44.1724 H         1 UNK         0.0600 
    200 H200       -1.2532  -26.2011  -46.3302 H         1 UNK         0.3000 
    201 H201       -0.7168  -28.9889  -46.4035 H         1 UNK         0.0600 
    202 H202        0.9960  -27.2928  -45.8403 H         1 UNK         0.0600 
    203 H203        0.9176  -26.6249  -47.4688 H         1 UNK         0.0600 
    204 H204        1.5327  -28.2534  -47.2105 H         1 UNK         0.0600 
    205 H205       -1.2918  -26.6324  -49.0394 H         1 UNK         0.3000 
    206 H206       -0.9188  -28.4983  -51.2009 H         1 UNK         0.0600 
    207 H207       -0.6525  -26.0386  -51.4631 H         1 UNK         0.0600 
    208 H208       -1.8966  -26.6340  -52.5515 H         1 UNK         0.0600 
    209 H209       -2.3547  -25.7907  -51.0772 H         1 UNK         0.0600 
    210 H210       -3.5241  -27.9655  -49.0256 H         1 UNK         0.3000 
    211 H211       -5.6243  -28.5836  -48.7846 H         1 UNK         0.0600 
    212 H212       -5.1820  -30.6790  -50.9803 H         1 UNK         0.0600 
    213 H213       -6.4929  -30.6498  -49.8106 H         1 UNK         0.0600 
    214 H214       -4.8437  -30.9115  -49.2656 H         1 UNK         0.0600 
    215 H215       -5.2469  -26.3100  -50.0333 H         1 UNK         0.3000 
    216 H216       -7.3791  -26.0678  -52.0825 H         1 UNK         0.0600 
    217 H217       -4.5679  -24.8550  -52.3607 H         1 UNK         0.0600 
    218 H218       -5.8877  -24.7364  -53.5253 H         1 UNK         0.0600 
    219 H219       -5.1140  -26.2799  -53.2374 H         1 UNK         0.0600 
    220 H220       -6.5507  -23.2528  -52.4276 H         1 UNK         0.3000 
    221 H221       -7.2250  -22.0066  -49.8165 H         1 UNK         0.0600 
    222 H222       -9.2995  -22.0647  -51.2508 H         1 UNK         0.0600 
    223 H223       -8.4142  -21.2978  -52.5673 H         1 UNK         0.0600 
    224 H224       -8.7000  -20.4253  -51.0650 H         1 UNK         0.0600 
    225 H225       -6.4991  -19.7127  -49.8213 H         1 UNK         0.3000 
    226 H226       -3.8338  -19.4139  -50.6795 H         1 UNK         0.0600 
    227 H227       -4.7371  -18.2703  -48.6972 H         1 UNK         0.0600 
    228 H228       -4.1001  -17.0773  -49.8168 H         1 UNK         0.0600 
    229 H229       -5.8390  -17.3191  -49.6973 H         1 UNK         0.0600 
    230 H230       -6.7578  -18.7427  -52.4131 H         1 UNK         0.3000 
    231 H231       -5.7814  -16.9056  -54.3769 H         1 UNK         0.0600 
    232 H232       -8.0520  -18.9664  -54.4876 H         1 UNK         0.0600 
    233 H233       -7.8136  -17.6507  -55.6314 H         1 UNK         0.0600 
    234 H234       -8.2002  -17.2902  -53.9570 H         1 UNK         0.0600 
    235 H235       -5.2037  -20.3502  -53.9269 H         1 UNK         0.3000 
    236 H236       -4.5568  -20.9323  -56.6967 H         1 UNK         0.0600 
    237 H237       -5.3530  -22.6878  -55.0975 H         1 UNK         0.0600 
    238 H238       -3.7928  -23.0892  -55.7989 H         1 UNK         0.0600 
    239 H239       -3.8786  -22.4931  -54.1492 H         1 UNK         0.0600 
    240 H240       -2.7008  -20.0758  -53.7382 H         1 UNK         0.3000 
    241 H241       -0.1612  -20.0915  -55.2166 H         1 UNK         0.0600 
    242 H242       -1.5923  -16.2834  -54.7800 H         1 UNK         0.3800 
    243 H243       -2.4744  -17.5767  -54.0064 H         1 UNK         0.3800 
    244 H244        0.9039  -19.5122  -53.0507 H         1 UNK         0.0800 
    245 H245        0.0356  -21.0132  -53.0469 H         1 UNK         0.0800 
    246 H246       -0.0332  -17.2881  -52.0667 H         1 UNK         0.0800 
    247 H247       -0.9529  -17.2916  -50.5890 H         1 UNK         0.0800 
@<TRIPOS>BOND
     1    1    2 1    
     2    1  127 1    
     3    1  128 1    
     4    1  129 1    
     5    2    3 2    
     6    2    4 am   BACKBONE|DICT|INTERRES
     7    4    5 1    
     8    4  130 1    
     9    5    6 1    
    10    5   65 1    
    11    5  131 1    
    12    6    7 1    
    13    6  132 1    
    14    6  133 1    
    15    7    8 1    
    16    8    9 1    
    17    8  134 1    
    18    8  135 1    
    19    9   10 ar   
    20    9   14 ar   
    21   10   11 ar   
    22   10  136 1    
    23   11   12 ar   
    24   11  126 1    
    25   12   13 ar   
    26   12  137 1    
    27   13   14 ar   
    28   13   15 1    
    29   14  138 1    
    30   15   16 1    
    31   15  139 1    
    32   15  140 1    
    33   16   17 1    
    34   17   18 1    
    35   17  141 1    
    36   17  142 1    
    37   18   19 1    
    38   18   67 1    
    39   18  143 1    
    40   19   20 am   BACKBONE|DICT|INTERRES
    41   19  144 1    
    42   20   21 2    
    43   20   22 1    
    44   22   23 1    
    45   22   24 1    
    46   22  145 1    
    47   23  146 1    
    48   23  147 1    
    49   23  148 1    
    50   24   25 am   BACKBONE|DICT|INTERRES
    51   24  149 1    
    52   25   26 2    
    53   25   27 1    
    54   27   28 1    
    55   27   29 1    
    56   27  150 1    
    57   28  151 1    
    58   28  152 1    
    59   28  153 1    
    60   29   30 am   BACKBONE|DICT|INTERRES
    61   29  154 1    
    62   30   31 2    
    63   30   32 1    
    64   32   33 1    
    65   32   34 1    
    66   32  155 1    
    67   33  156 1    
    68   33  157 1    
    69   33  158 1    
    70   34   35 am   BACKBONE|DICT|INTERRES
    71   34  159 1    
    72   35   36 2    
    73   35   37 1    
    74   37   38 1    
    75   37   39 1    
    76   37  160 1    
    77   38  161 1    
    78   38  162 1    
    79   38  163 1    
    80   39   40 am   BACKBONE|DICT|INTERRES
    81   39  164 1    
    82   40   41 2    
    83   40   42 1    
    84   42   43 1    
    85   42   44 1    
    86   42  165 1    
    87   43  166 1    
    88   43  167 1    
    89   43  168 1    
    90   44   45 am   BACKBONE|DICT|INTERRES
    91   44  169 1    
    92   45   46 2    
    93   45   47 1    
    94   47   48 1    
    95   47   49 1    
    96   47  170 1    
    97   48  171 1    
    98   48  172 1    
    99   48  173 1    
   100   49   50 am   BACKBONE|DICT|INTERRES
   101   49  174 1    
   102   50   51 2    
   103   50   52 1    
   104   52   53 1    
   105   52   54 1    
   106   52  175 1    
   107   53  176 1    
   108   53  177 1    
   109   53  178 1    
   110   54   55 am   BACKBONE|DICT|INTERRES
   111   54  179 1    
   112   55   56 2    
   113   55   57 1    
   114   57   58 1    
   115   57   59 1    
   116   57  180 1    
   117   58  181 1    
   118   58  182 1    
   119   58  183 1    
   120   59   60 am   BACKBONE|DICT|INTERRES
   121   59  184 1    
   122   60   61 2    
   123   60   62 1    
   124   62   63 1    
   125   62   64 1    
   126   62  185 1    
   127   63  186 1    
   128   63  187 1    
   129   63  188 1    
   130   64   65 am   BACKBONE|DICT|INTERRES
   131   64  189 1    
   132   65   66 2    
   133   67   68 2    
   134   67   69 am   BACKBONE|DICT|INTERRES
   135   69   70 1    
   136   69  190 1    
   137   70   71 1    
   138   70   72 1    
   139   70  191 1    
   140   71  192 1    
   141   71  193 1    
   142   71  194 1    
   143   72   73 2    
   144   72   74 am   BACKBONE|DICT|INTERRES
   145   74   75 1    
   146   74  195 1    
   147   75   76 1    
   148   75   77 1    
   149   75  196 1    
   150   76  197 1    
   151   76  198 1    
   152   76  199 1    
   153   77   78 2    
   154   77   79 am   BACKBONE|DICT|INTERRES
   155   79   80 1    
   156   79  200 1    
   157   80   81 1    
   158   80   82 1    
   159   80  201 1    
   160   81  202 1    
   161   81  203 1    
   162   81  204 1    
   163   82   83 2    
   164   82   84 am   BACKBONE|DICT|INTERRES
   165   84   85 1    
   166   84  205 1    
   167   85   86 1    
   168   85   87 1    
   169   85  206 1    
   170   86  207 1    
   171   86  208 1    
   172   86  209 1    
   173   87   88 2    
   174   87   89 am   BACKBONE|DICT|INTERRES
   175   89   90 1    
   176   89  210 1    
   177   90   91 1    
   178   90   92 1    
   179   90  211 1    
   180   91  212 1    
   181   91  213 1    
   182   91  214 1    
   183   92   93 2    
   184   92   94 am   BACKBONE|DICT|INTERRES
   185   94   95 1    
   186   94  215 1    
   187   95   96 1    
   188   95   97 1    
   189   95  216 1    
   190   96  217 1    
   191   96  218 1    
   192   96  219 1    
   193   97   98 2    
   194   97   99 am   BACKBONE|DICT|INTERRES
   195   99  100 1    
   196   99  220 1    
   197  100  101 1    
   198  100  102 1    
   199  100  221 1    
   200  101  222 1    
   201  101  223 1    
   202  101  224 1    
   203  102  103 2    
   204  102  104 am   BACKBONE|DICT|INTERRES
   205  104  105 1    
   206  104  225 1    
   207  105  106 1    
   208  105  107 1    
   209  105  226 1    
   210  106  227 1    
   211  106  228 1    
   212  106  229 1    
   213  107  108 2    
   214  107  109 am   BACKBONE|DICT|INTERRES
   215  109  110 1    
   216  109  230 1    
   217  110  111 1    
   218  110  112 1    
   219  110  231 1    
   220  111  232 1    
   221  111  233 1    
   222  111  234 1    
   223  112  113 2    
   224  112  114 am   BACKBONE|DICT|INTERRES
   225  114  115 1    
   226  114  235 1    
   227  115  116 1    
   228  115  117 1    
   229  115  236 1    
   230  116  237 1    
   231  116  238 1    
   232  116  239 1    
   233  117  118 2    
   234  117  119 am   BACKBONE|DICT|INTERRES
   235  119  120 1    
   236  119  240 1    
   237  120  121 1    
   238  120  124 1    
   239  120  241 1    
   240  121  122 am   BACKBONE|DICT|INTERRES
   241  121  123 2    
   242  122  242 1    
   243  122  243 1    
   244  124  125 1    
   245  124  244 1    
   246  124  245 1    
   247  125  126 1    
   248  126  246 1    
   249  126  247 1    
@<TRIPOS>SUBSTRUCTURE
     1 UNK         1 GROUP             0       ****    0 ROOT    
