@<TRIPOS>MOLECULE
3R540
247   249    1
SMALL
USER_CHARGES


@<TRIPOS>ATOM
      1 CA          6.6982  -12.1049  -46.7455 C.3       0 UNK        -0.1800 
      2 C           5.4043  -12.7810  -46.3168 C.2       0 UNK         0.5000 
      3 O           5.3597  -13.3984  -45.2513 O.2       0 UNK        -0.5000 
      4 N           4.3488  -12.6726  -47.1381 N.am      1 UNK        -0.5000 
      5 CA          3.0233  -13.2229  -46.8331 C.3       1 UNK         0.1400 
      6 C6          2.0732  -13.2343  -48.0568 C.3       23 UNK        -0.0398 
      7 S7          0.9560  -14.6742  -48.0121 S.3       23 UNK        -0.2404 
      8 C8         -0.5569  -14.0098  -48.7690 C.3       23 UNK        -0.0205 
      9 C9         -1.4808  -15.1303  -49.2263 C.ar      23 UNK        -0.0193 
     10 C10        -1.1835  -15.8408  -50.3920 C.ar      23 UNK        -0.1150 
     11 C11        -2.0358  -16.8494  -50.8486 C.ar      23 UNK        -0.0193 
     12 C12        -3.1851  -17.1640  -50.1174 C.ar      23 UNK        -0.1150 
     13 C13        -3.5027  -16.4553  -48.9555 C.ar      23 UNK        -0.0193 
     14 C14        -2.6435  -15.4412  -48.5141 C.ar      23 UNK        -0.1150 
     15 C15        -4.8081  -16.7330  -48.2201 C.3       23 UNK        -0.0205 
     16 S16        -4.5380  -17.2714  -46.5047 S.3       23 UNK        -0.2404 
     17 C17        -4.7747  -19.0789  -46.5807 C.3       23 UNK        -0.0398 
     18 CA         -3.7468  -19.8729  -47.4290 C.3       11 UNK         0.1400 
     19 N          -2.3546  -19.4694  -47.2053 N.am      11 UNK        -0.5000 
     20 C          -1.3059  -19.9442  -47.8951 C.2       10 UNK         0.5000 
     21 O          -1.3998  -20.7400  -48.8301 O.2       10 UNK        -0.5000 
     22 CA          0.0880  -19.5052  -47.4245 C.3       10 UNK         0.1400 
     23 CB          0.4676  -18.1545  -48.0396 C.3       10 UNK        -0.1800 
     24 N           0.1622  -19.4288  -45.9661 N.am      10 UNK        -0.5000 
     25 C           0.2362  -20.5018  -45.1661 C.2       9 UNK         0.5000 
     26 O           0.2843  -21.6591  -45.5825 O.2       9 UNK        -0.5000 
     27 CA          0.2115  -20.2472  -43.6470 C.3       9 UNK         0.1400 
     28 CB          1.6220  -19.9393  -43.1251 C.3       9 UNK        -0.1800 
     29 N          -0.6956  -19.1658  -43.2624 N.am      9 UNK        -0.5000 
     30 C          -2.0248  -19.2068  -43.4274 C.2       8 UNK         0.5000 
     31 O          -2.6248  -20.1735  -43.8956 O.2       8 UNK        -0.5000 
     32 CA         -2.8223  -17.9500  -43.0436 C.3       8 UNK         0.1400 
     33 CB         -3.2285  -18.0056  -41.5641 C.3       8 UNK        -0.1800 
     34 N          -2.1454  -16.6789  -43.3029 N.am      8 UNK        -0.5000 
     35 C          -1.5938  -16.2705  -44.4520 C.2       7 UNK         0.5000 
     36 O          -1.4323  -16.9967  -45.4319 O.2       7 UNK        -0.5000 
     37 CA         -1.1371  -14.8020  -44.5154 C.3       7 UNK         0.1400 
     38 CB         -2.3381  -13.8419  -44.6003 C.3       7 UNK        -0.1800 
     39 N          -0.2142  -14.4076  -43.4471 N.am      7 UNK        -0.5000 
     40 C          -0.3993  -14.3568  -42.1202 C.2       6 UNK         0.5000 
     41 O          -1.4697  -14.6107  -41.5641 O.2       6 UNK        -0.5000 
     42 CA          0.8320  -13.9566  -41.2796 C.3       6 UNK         0.1400 
     43 CB          0.7223  -14.3995  -39.8063 C.3       6 UNK        -0.1800 
     44 N           2.1046  -14.4045  -41.8587 N.am      6 UNK        -0.5000 
     45 C           2.5001  -15.6629  -42.1072 C.2       5 UNK         0.5000 
     46 O           1.8107  -16.6584  -41.8823 O.2       5 UNK        -0.5000 
     47 CA          3.9048  -15.8409  -42.7240 C.3       5 UNK         0.1400 
     48 CB          3.7955  -16.2363  -44.2031 C.3       5 UNK        -0.1800 
     49 N           4.7578  -14.6491  -42.5949 N.am      5 UNK        -0.5000 
     50 C           5.3567  -14.2999  -41.4456 C.2       4 UNK         0.5000 
     51 O           5.2495  -14.9470  -40.4032 O.2       4 UNK        -0.5000 
     52 CA          6.1682  -12.9979  -41.4291 C.3       4 UNK         0.1400 
     53 CB          7.3628  -13.0159  -42.3977 C.3       4 UNK        -0.1800 
     54 N           5.2949  -11.8540  -41.6941 N.am      4 UNK        -0.5000 
     55 C           5.3244  -10.7051  -41.0017 C.2       3 UNK         0.5000 
     56 O           6.1490  -10.4746  -40.1098 O.2       3 UNK        -0.5000 
     57 CA          4.2449   -9.6378  -41.2967 C.3       3 UNK         0.1400 
     58 CB          4.8747   -8.2610  -41.5993 C.3       3 UNK        -0.1800 
     59 N           3.2384   -9.9888  -42.3108 N.am      3 UNK        -0.5000 
     60 C           3.4178  -10.1325  -43.6298 C.2       2 UNK         0.5000 
     61 O           4.5154  -10.0803  -44.1888 O.2       2 UNK        -0.5000 
     62 CA          2.1430  -10.3429  -44.4649 C.3       2 UNK         0.1400 
     63 CB          1.5924   -8.9955  -44.9558 C.3       2 UNK        -0.1800 
     64 N           2.4458  -11.1785  -45.6210 N.am      2 UNK        -0.5000 
     65 C           2.4000  -12.5155  -45.6135 C.2       1 UNK         0.5000 
     66 O           1.9652  -13.1786  -44.6730 O.2       1 UNK        -0.5000 
     67 C          -3.9286  -21.3868  -47.1849 C.2       11 UNK         0.5000 
     68 O          -4.5183  -22.0797  -48.0152 O.2       11 UNK        -0.5000 
     69 N          -3.3776  -21.8704  -46.0610 N.am      12 UNK        -0.5000 
     70 CA         -3.3558  -23.2774  -45.6720 C.3       12 UNK         0.1400 
     71 CB         -2.7984  -23.4157  -44.2477 C.3       12 UNK        -0.1800 
     72 C          -2.5609  -24.1490  -46.6552 C.2       12 UNK         0.5000 
     73 O          -3.0466  -25.2145  -47.0273 O.2       12 UNK        -0.5000 
     74 N          -1.3835  -23.6755  -47.0896 N.am      13 UNK        -0.5000 
     75 CA         -0.5426  -24.3494  -48.0816 C.3       13 UNK         0.1400 
     76 CB          0.7959  -23.6111  -48.2259 C.3       13 UNK        -0.1800 
     77 C          -1.2351  -24.4988  -49.4477 C.2       13 UNK         0.5000 
     78 O          -1.2074  -25.5870  -50.0217 O.2       13 UNK        -0.5000 
     79 N          -1.8826  -23.4231  -49.9183 N.am      14 UNK        -0.5000 
     80 CA         -2.6639  -23.3946  -51.1566 C.3       14 UNK         0.1400 
     81 CB         -3.1325  -21.9568  -51.4249 C.3       14 UNK        -0.1800 
     82 C          -3.8630  -24.3615  -51.1407 C.2       14 UNK         0.5000 
     83 O          -4.1597  -24.9802  -52.1663 O.2       14 UNK        -0.5000 
     84 N          -4.5146  -24.4831  -49.9766 N.am      15 UNK        -0.5000 
     85 CA         -5.6012  -25.4266  -49.7296 C.3       15 UNK         0.1400 
     86 CB         -6.3602  -25.0156  -48.4588 C.3       15 UNK        -0.1800 
     87 C          -5.0988  -26.8781  -49.6304 C.2       15 UNK         0.5000 
     88 O          -5.6683  -27.7568  -50.2767 O.2       15 UNK        -0.5000 
     89 N          -4.0320  -27.1053  -48.8502 N.am      16 UNK        -0.5000 
     90 CA         -3.4211  -28.4176  -48.6125 C.3       16 UNK         0.1400 
     91 CB         -2.3523  -28.2989  -47.5158 C.3       16 UNK        -0.1800 
     92 C          -2.8207  -29.0536  -49.8781 C.2       16 UNK         0.5000 
     93 O          -2.9138  -30.2694  -50.0501 O.2       16 UNK        -0.5000 
     94 N          -2.2520  -28.2190  -50.7580 N.am      17 UNK        -0.5000 
     95 CA         -1.7571  -28.6099  -52.0790 C.3       17 UNK         0.1400 
     96 CB         -0.8529  -27.4884  -52.6160 C.3       17 UNK        -0.1800 
     97 C          -2.8811  -28.9100  -53.0921 C.2       17 UNK         0.5000 
     98 O          -2.5901  -29.4433  -54.1632 O.2       17 UNK        -0.5000 
     99 N          -4.1256  -28.5288  -52.7591 N.am      18 UNK        -0.5000 
    100 CA        -5.3286  -28.5577  -53.5989 C.3       18 UNK         0.1400 
    101 CB        -5.7272  -30.0057  -53.9506 C.3       18 UNK        -0.1800 
    102 C         -5.2131  -27.6426  -54.8368 C.2       18 UNK         0.5000 
    103 O         -5.8642  -27.8895  -55.8534 O.2       18 UNK        -0.5000 
    104 N         -4.3789  -26.6007  -54.7262 N.am      19 UNK        -0.5000 
    105 CA        -4.1219  -25.6224  -55.7765 C.3       19 UNK         0.1400 
    106 CB        -2.7318  -25.0046  -55.5541 C.3       19 UNK        -0.1800 
    107 C         -5.1983  -24.5286  -55.7989 C.2       19 UNK         0.5000 
    108 O         -5.5729  -24.0744  -56.8802 O.2       19 UNK        -0.5000 
    109 N         -5.6556  -24.1215  -54.6021 N.am      20 UNK        -0.5000 
    110 CA        -6.6051  -23.0298  -54.3468 C.3       20 UNK         0.1400 
    111 CB        -8.0164  -23.4069  -54.8413 C.3       20 UNK        -0.1800 
    112 C         -6.1105  -21.6721  -54.8963 C.2       20 UNK         0.5000 
    113 O         -6.9033  -20.8657  -55.3877 O.2       20 UNK        -0.5000 
    114 N         -4.7881  -21.4688  -54.8233 N.am      21 UNK        -0.5000 
    115 CA        -4.0707  -20.2875  -55.2927 C.3       21 UNK         0.1400 
    116 CB        -2.5617  -20.5391  -55.1413 C.3       21 UNK        -0.1800 
    117 C         -4.4763  -19.0023  -54.5495 C.2       21 UNK         0.5000 
    118 O         -4.8884  -19.0588  -53.3883 O.2       21 UNK        -0.5000 
    119 N         -4.3097  -17.8694  -55.2407 N.am      22 UNK        -0.5000 
    120 CA        -4.5771  -16.4999  -54.7631 C.3       22 UNK         0.1400 
    121 C         -6.0878  -16.1310  -54.6366 C.2       22 UNK         0.5000 
    122 N         -7.0212  -16.9692  -55.0716 N.am      22 UNK        -0.7600 
    123 O         -6.4233  -15.0468  -54.1669 O.2       22 UNK        -0.5000 
    124 C124       -3.7801  -16.1148  -53.4842 C.3       23 UNK        -0.0398 
    125 S125       -1.9868  -16.4668  -53.5925 S.3       23 UNK        -0.2404 
    126 C126       -1.7352  -17.5652  -52.1570 C.3       23 UNK        -0.0205 
    127 H127        7.5059  -12.8354  -46.7910 H         1 UNK         0.0600 
    128 H128        6.9717  -11.3360  -46.0224 H         1 UNK         0.0600 
    129 H129        6.6059  -11.6354  -47.7251 H         1 UNK         0.0600 
    130 H130        4.4402  -12.1616  -48.0044 H         1 UNK         0.3000 
    131 H131        3.2039  -14.2604  -46.5511 H         1 UNK         0.0600 
    132 H132        1.5034  -12.3070  -48.1415 H         1 UNK         0.0800 
    133 H133        2.6473  -13.3177  -48.9806 H         1 UNK         0.0800 
    134 H134       -0.2953  -13.3907  -49.6285 H         1 UNK         0.0800 
    135 H135       -1.0613  -13.3567  -48.0549 H         1 UNK         0.0800 
    136 H136       -0.2958  -15.5943  -50.9574 H         1 UNK         0.1150 
    137 H137       -3.8515  -17.9363  -50.4761 H         1 UNK         0.1150 
    138 H138       -2.8901  -14.8871  -47.6208 H         1 UNK         0.1150 
    139 H139       -5.3950  -15.8138  -48.2040 H         1 UNK         0.0800 
    140 H140       -5.4137  -17.4689  -48.7509 H         1 UNK         0.0800 
    141 H141       -5.7852  -19.2741  -46.9436 H         1 UNK         0.0800 
    142 H142       -4.7621  -19.4259  -45.5461 H         1 UNK         0.0800 
    143 H143       -3.9643  -19.6840  -48.4820 H         1 UNK         0.0600 
    144 H144       -2.1908  -18.7747  -46.4856 H         1 UNK         0.3000 
    145 H145        0.8121  -20.2454  -47.7707 H         1 UNK         0.0600 
    146 H146        1.4573  -17.8328  -47.7155 H         1 UNK         0.0600 
    147 H147        0.4809  -18.2112  -49.1287 H         1 UNK         0.0600 
    148 H148       -0.2465  -17.3786  -47.7650 H         1 UNK         0.0600 
    149 H149        0.0081  -18.5153  -45.5554 H         1 UNK         0.3000 
    150 H150       -0.1366  -21.1630  -43.1645 H         1 UNK         0.0600 
    151 H151        2.3158  -20.7434  -43.3740 H         1 UNK         0.0600 
    152 H152        1.6270  -19.8282  -42.0406 H         1 UNK         0.0600 
    153 H153        2.0155  -19.0192  -43.5564 H         1 UNK         0.0600 
    154 H154       -0.2778  -18.3264  -42.8850 H         1 UNK         0.3000 
    155 H155       -3.7332  -17.9521  -43.6434 H         1 UNK         0.0600 
    156 H156       -2.3593  -17.9503  -40.9077 H         1 UNK         0.0600 
    157 H157       -3.7561  -18.9328  -41.3365 H         1 UNK         0.0600 
    158 H158       -3.8946  -17.1819  -41.3072 H         1 UNK         0.0600 
    159 H159       -2.1519  -16.0010  -42.5443 H         1 UNK         0.3000 
    160 H160       -0.5729  -14.6952  -45.4424 H         1 UNK         0.0600 
    161 H161       -2.0086  -12.8186  -44.7791 H         1 UNK         0.0600 
    162 H162       -2.9342  -13.8477  -43.6877 H         1 UNK         0.0600 
    163 H163       -3.0022  -14.1183  -45.4191 H         1 UNK         0.0600 
    164 H164        0.7053  -14.1290  -43.7864 H         1 UNK         0.3000 
    165 H165        0.8605  -12.8666  -41.2934 H         1 UNK         0.0600 
    166 H166        1.5998  -14.0937  -39.2372 H         1 UNK         0.0600 
    167 H167       -0.1475  -13.9513  -39.3251 H         1 UNK         0.0600 
    168 H168        0.6241  -15.4814  -39.7156 H         1 UNK         0.0600 
    169 H169        2.7349  -13.6718  -42.1460 H         1 UNK         0.3000 
    170 H170        4.3888  -16.6668  -42.1984 H         1 UNK         0.0600 
    171 H171        3.3352  -17.2180  -44.3118 H         1 UNK         0.0600 
    172 H172        3.1789  -15.5320  -44.7553 H         1 UNK         0.0600 
    173 H173        4.7742  -16.2805  -44.6809 H         1 UNK         0.0600 
    174 H174        4.9259  -14.1132  -43.4429 H         1 UNK         0.3000 
    175 H175        6.5783  -12.9208  -40.4196 H         1 UNK         0.0600 
    176 H176        7.9644  -13.9157  -42.2626 H         1 UNK         0.0600 
    177 H177        8.0150  -12.1598  -42.2232 H         1 UNK         0.0600 
    178 H178        7.0503  -12.9806  -43.4388 H         1 UNK         0.0600 
    179 H179        4.6132  -11.9585  -42.4356 H         1 UNK         0.3000 
    180 H180        3.6852   -9.5335  -40.3657 H         1 UNK         0.0600 
    181 H181        5.5140   -8.2905  -42.4822 H         1 UNK         0.0600 
    182 H182        5.4907   -7.9198  -40.7665 H         1 UNK         0.0600 
    183 H183        4.1082   -7.5033  -41.7637 H         1 UNK         0.0600 
    184 H184        2.2953  -10.0602  -41.9541 H         1 UNK         0.3000 
    185 H185        1.3810  -10.8240  -43.8472 H         1 UNK         0.0600 
    186 H186        1.3341   -8.3492  -44.1161 H         1 UNK         0.0600 
    187 H187        2.3191   -8.4617  -45.5698 H         1 UNK         0.0600 
    188 H188        0.6886   -9.1329  -45.5496 H         1 UNK         0.0600 
    189 H189        2.9089  -10.7175  -46.3904 H         1 UNK         0.3000 
    190 H190       -2.9489  -21.2203  -45.4062 H         1 UNK         0.3000 
    191 H191       -4.3870  -23.6362  -45.6694 H         1 UNK         0.0600 
    192 H192       -1.7808  -23.0307  -44.1738 H         1 UNK         0.0600 
    193 H193       -2.7793  -24.4604  -43.9348 H         1 UNK         0.0600 
    194 H194       -3.4135  -22.8726  -43.5301 H         1 UNK         0.0600 
    195 H195       -1.0258  -22.8088  -46.7031 H         1 UNK         0.3000 
    196 H196       -0.3331  -25.3535  -47.7075 H         1 UNK         0.0600 
    197 H197        1.4403  -24.1096  -48.9510 H         1 UNK         0.0600 
    198 H198        1.3347  -23.5833  -47.2788 H         1 UNK         0.0600 
    199 H199        0.6562  -22.5840  -48.5627 H         1 UNK         0.0600 
    200 H200       -1.8287  -22.5520  -49.3967 H         1 UNK         0.3000 
    201 H201       -2.0073  -23.7005  -51.9735 H         1 UNK         0.0600 
    202 H202       -2.2853  -21.2844  -51.5623 H         1 UNK         0.0600 
    203 H203       -3.7327  -21.5683  -50.6018 H         1 UNK         0.0600 
    204 H204       -3.7429  -21.9015  -52.3245 H         1 UNK         0.0600 
    205 H205       -4.2312  -23.8985  -49.1988 H         1 UNK         0.3000 
    206 H206       -6.2981  -25.3714  -50.5687 H         1 UNK         0.0600 
    207 H207       -6.7738  -24.0117  -48.5567 H         1 UNK         0.0600 
    208 H208       -7.1917  -25.6937  -48.2639 H         1 UNK         0.0600 
    209 H209       -5.7154  -25.0243  -47.5799 H         1 UNK         0.0600 
    210 H210       -3.6369  -26.3292  -48.3218 H         1 UNK         0.3000 
    211 H211       -4.2055  -29.0853  -48.2506 H         1 UNK         0.0600 
    212 H212       -1.5618  -27.6039  -47.8010 H         1 UNK         0.0600 
    213 H213       -1.8864  -29.2644  -47.3151 H         1 UNK         0.0600 
    214 H214       -2.7860  -27.9475  -46.5795 H         1 UNK         0.0600 
    215 H215       -2.1462  -27.2397  -50.5064 H         1 UNK         0.3000 
    216 H216       -1.1573  -29.5160  -51.9725 H         1 UNK         0.0600 
    217 H217       -0.4384  -27.7478  -53.5910 H         1 UNK         0.0600 
    218 H218       -0.0129  -27.3050  -51.9460 H         1 UNK         0.0600 
    219 H219       -1.4006  -26.5517  -52.7302 H         1 UNK         0.0600 
    220 H220       -4.2659  -28.1289  -51.8390 H         1 UNK         0.3000 
    221 H221       -6.1303  -28.1362  -52.9913 H         1 UNK         0.0600 
    222 H222       -6.7039  -30.0350  -54.4348 H         1 UNK         0.0600 
    223 H223       -5.7918  -30.6242  -53.0554 H         1 UNK         0.0600 
    224 H224       -5.0132  -30.4710  -54.6303 H         1 UNK         0.0600 
    225 H225       -3.9368  -26.4340  -53.8313 H         1 UNK         0.3000 
    226 H226       -4.1228  -26.1242  -56.7466 H         1 UNK         0.0600 
    227 H227       -1.9538  -25.7675  -55.5869 H         1 UNK         0.0600 
    228 H228       -2.5016  -24.2716  -56.3285 H         1 UNK         0.0600 
    229 H229       -2.6614  -24.4984  -54.5906 H         1 UNK         0.0600 
    230 H230       -5.2577  -24.5578  -53.7755 H         1 UNK         0.3000 
    231 H231       -6.6552  -22.9164  -53.2628 H         1 UNK         0.0600 
    232 H232       -8.3362  -24.3625  -54.4264 H         1 UNK         0.0600 
    233 H233       -8.0589  -23.4819  -55.9282 H         1 UNK         0.0600 
    234 H234       -8.7498  -22.6598  -54.5364 H         1 UNK         0.0600 
    235 H235       -4.2262  -22.1934  -54.4062 H         1 UNK         0.3000 
    236 H236       -4.3007  -20.1638  -56.3530 H         1 UNK         0.0600 
    237 H237       -2.2497  -21.4254  -55.6942 H         1 UNK         0.0600 
    238 H238       -1.9834  -19.6980  -55.5256 H         1 UNK         0.0600 
    239 H239       -2.2791  -20.6767  -54.0971 H         1 UNK         0.0600 
    240 H240       -3.9627  -17.9284  -56.1873 H         1 UNK         0.3000 
    241 H241       -4.2112  -15.8551  -55.5627 H         1 UNK         0.0600 
    242 H242       -7.9929  -16.7123  -54.9951 H         1 UNK         0.3800 
    243 H243       -6.7698  -17.8710  -55.4461 H         1 UNK         0.3800 
    244 H244       -4.2083  -16.6214  -52.6202 H         1 UNK         0.0800 
    245 H245       -3.8856  -15.0479  -53.2809 H         1 UNK         0.0800 
    246 H246       -0.7007  -17.9110  -52.1489 H         1 UNK         0.0800 
    247 H247       -2.3558  -18.4561  -52.2658 H         1 UNK         0.0800 
@<TRIPOS>BOND
     1    1    2 1    
     2    1  127 1    
     3    1  128 1    
     4    1  129 1    
     5    2    3 2    
     6    2    4 am   BACKBONE|DICT|INTERRES
     7    4    5 1    
     8    4  130 1    
     9    5    6 1    
    10    5   65 1    
    11    5  131 1    
    12    6    7 1    
    13    6  132 1    
    14    6  133 1    
    15    7    8 1    
    16    8    9 1    
    17    8  134 1    
    18    8  135 1    
    19    9   10 ar   
    20    9   14 ar   
    21   10   11 ar   
    22   10  136 1    
    23   11   12 ar   
    24   11  126 1    
    25   12   13 ar   
    26   12  137 1    
    27   13   14 ar   
    28   13   15 1    
    29   14  138 1    
    30   15   16 1    
    31   15  139 1    
    32   15  140 1    
    33   16   17 1    
    34   17   18 1    
    35   17  141 1    
    36   17  142 1    
    37   18   19 1    
    38   18   67 1    
    39   18  143 1    
    40   19   20 am   BACKBONE|DICT|INTERRES
    41   19  144 1    
    42   20   21 2    
    43   20   22 1    
    44   22   23 1    
    45   22   24 1    
    46   22  145 1    
    47   23  146 1    
    48   23  147 1    
    49   23  148 1    
    50   24   25 am   BACKBONE|DICT|INTERRES
    51   24  149 1    
    52   25   26 2    
    53   25   27 1    
    54   27   28 1    
    55   27   29 1    
    56   27  150 1    
    57   28  151 1    
    58   28  152 1    
    59   28  153 1    
    60   29   30 am   BACKBONE|DICT|INTERRES
    61   29  154 1    
    62   30   31 2    
    63   30   32 1    
    64   32   33 1    
    65   32   34 1    
    66   32  155 1    
    67   33  156 1    
    68   33  157 1    
    69   33  158 1    
    70   34   35 am   BACKBONE|DICT|INTERRES
    71   34  159 1    
    72   35   36 2    
    73   35   37 1    
    74   37   38 1    
    75   37   39 1    
    76   37  160 1    
    77   38  161 1    
    78   38  162 1    
    79   38  163 1    
    80   39   40 am   BACKBONE|DICT|INTERRES
    81   39  164 1    
    82   40   41 2    
    83   40   42 1    
    84   42   43 1    
    85   42   44 1    
    86   42  165 1    
    87   43  166 1    
    88   43  167 1    
    89   43  168 1    
    90   44   45 am   BACKBONE|DICT|INTERRES
    91   44  169 1    
    92   45   46 2    
    93   45   47 1    
    94   47   48 1    
    95   47   49 1    
    96   47  170 1    
    97   48  171 1    
    98   48  172 1    
    99   48  173 1    
   100   49   50 am   BACKBONE|DICT|INTERRES
   101   49  174 1    
   102   50   51 2    
   103   50   52 1    
   104   52   53 1    
   105   52   54 1    
   106   52  175 1    
   107   53  176 1    
   108   53  177 1    
   109   53  178 1    
   110   54   55 am   BACKBONE|DICT|INTERRES
   111   54  179 1    
   112   55   56 2    
   113   55   57 1    
   114   57   58 1    
   115   57   59 1    
   116   57  180 1    
   117   58  181 1    
   118   58  182 1    
   119   58  183 1    
   120   59   60 am   BACKBONE|DICT|INTERRES
   121   59  184 1    
   122   60   61 2    
   123   60   62 1    
   124   62   63 1    
   125   62   64 1    
   126   62  185 1    
   127   63  186 1    
   128   63  187 1    
   129   63  188 1    
   130   64   65 am   BACKBONE|DICT|INTERRES
   131   64  189 1    
   132   65   66 2    
   133   67   68 2    
   134   67   69 am   BACKBONE|DICT|INTERRES
   135   69   70 1    
   136   69  190 1    
   137   70   71 1    
   138   70   72 1    
   139   70  191 1    
   140   71  192 1    
   141   71  193 1    
   142   71  194 1    
   143   72   73 2    
   144   72   74 am   BACKBONE|DICT|INTERRES
   145   74   75 1    
   146   74  195 1    
   147   75   76 1    
   148   75   77 1    
   149   75  196 1    
   150   76  197 1    
   151   76  198 1    
   152   76  199 1    
   153   77   78 2    
   154   77   79 am   BACKBONE|DICT|INTERRES
   155   79   80 1    
   156   79  200 1    
   157   80   81 1    
   158   80   82 1    
   159   80  201 1    
   160   81  202 1    
   161   81  203 1    
   162   81  204 1    
   163   82   83 2    
   164   82   84 am   BACKBONE|DICT|INTERRES
   165   84   85 1    
   166   84  205 1    
   167   85   86 1    
   168   85   87 1    
   169   85  206 1    
   170   86  207 1    
   171   86  208 1    
   172   86  209 1    
   173   87   88 2    
   174   87   89 am   BACKBONE|DICT|INTERRES
   175   89   90 1    
   176   89  210 1    
   177   90   91 1    
   178   90   92 1    
   179   90  211 1    
   180   91  212 1    
   181   91  213 1    
   182   91  214 1    
   183   92   93 2    
   184   92   94 am   BACKBONE|DICT|INTERRES
   185   94   95 1    
   186   94  215 1    
   187   95   96 1    
   188   95   97 1    
   189   95  216 1    
   190   96  217 1    
   191   96  218 1    
   192   96  219 1    
   193   97   98 2    
   194   97   99 am   BACKBONE|DICT|INTERRES
   195   99  100 1    
   196   99  220 1    
   197  100  101 1    
   198  100  102 1    
   199  100  221 1    
   200  101  222 1    
   201  101  223 1    
   202  101  224 1    
   203  102  103 2    
   204  102  104 am   BACKBONE|DICT|INTERRES
   205  104  105 1    
   206  104  225 1    
   207  105  106 1    
   208  105  107 1    
   209  105  226 1    
   210  106  227 1    
   211  106  228 1    
   212  106  229 1    
   213  107  108 2    
   214  107  109 am   BACKBONE|DICT|INTERRES
   215  109  110 1    
   216  109  230 1    
   217  110  111 1    
   218  110  112 1    
   219  110  231 1    
   220  111  232 1    
   221  111  233 1    
   222  111  234 1    
   223  112  113 2    
   224  112  114 am   BACKBONE|DICT|INTERRES
   225  114  115 1    
   226  114  235 1    
   227  115  116 1    
   228  115  117 1    
   229  115  236 1    
   230  116  237 1    
   231  116  238 1    
   232  116  239 1    
   233  117  118 2    
   234  117  119 am   BACKBONE|DICT|INTERRES
   235  119  120 1    
   236  119  240 1    
   237  120  121 1    
   238  120  124 1    
   239  120  241 1    
   240  121  122 am   BACKBONE|DICT|INTERRES
   241  121  123 2    
   242  122  242 1    
   243  122  243 1    
   244  124  125 1    
   245  124  244 1    
   246  124  245 1    
   247  125  126 1    
   248  126  246 1    
   249  126  247 1    
@<TRIPOS>SUBSTRUCTURE
     1 UNK         1 GROUP             0       ****    0 ROOT    
