@<TRIPOS>MOLECULE
3R540
247   249    1
SMALL
USER_CHARGES


@<TRIPOS>ATOM
      1 CA         -1.2839  -14.3072  -43.3799 C.3       0 UNK        -0.1800 
      2 C          -0.6159  -14.1604  -44.7392 C.2       0 UNK         0.5000 
      3 O           0.2106  -13.2697  -44.9206 O.2       0 UNK        -0.5000 
      4 N          -0.9712  -15.0327  -45.6898 N.am      1 UNK        -0.5000 
      5 CA         -0.4126  -15.1294  -47.0497 C.3       1 UNK         0.1400 
      6 C6          1.1185  -15.4082  -47.1053 C.3       23 UNK        -0.0398 
      7 S7          1.7177  -16.6943  -45.9533 S.3       23 UNK        -0.2404 
      8 C8          1.1331  -18.2358  -46.7260 C.3       23 UNK        -0.0205 
      9 C9         -0.3682  -18.4274  -46.5823 C.ar      23 UNK        -0.0193 
     10 C10        -1.1600  -18.6518  -47.7092 C.ar      23 UNK        -0.1150 
     11 C11        -2.5494  -18.7813  -47.5921 C.ar      23 UNK        -0.0193 
     12 C12        -3.1371  -18.6990  -46.3264 C.ar      23 UNK        -0.1150 
     13 C13        -2.3509  -18.5149  -45.1868 C.ar      23 UNK        -0.0193 
     14 C14        -0.9682  -18.3824  -45.3232 C.ar      23 UNK        -0.1150 
     15 C15        -2.9851  -18.4961  -43.8036 C.3       23 UNK        -0.0205 
     16 S16        -3.5482  -20.1507  -43.2827 S.3       23 UNK        -0.2404 
     17 C17        -2.0629  -21.1683  -43.5839 C.3       23 UNK        -0.0398 
     18 CA         -2.1935  -22.0028  -44.8899 C.3       11 UNK         0.1400 
     19 N          -0.9487  -22.0347  -45.6638 N.am      11 UNK        -0.5000 
     20 C          -0.8368  -22.5291  -46.9082 C.2       10 UNK         0.5000 
     21 O          -1.7981  -22.9026  -47.5817 O.2       10 UNK        -0.5000 
     22 CA          0.5852  -22.6990  -47.4869 C.3       10 UNK         0.1400 
     23 CB          0.9067  -21.6020  -48.5094 C.3       10 UNK        -0.1800 
     24 N           1.6355  -22.7576  -46.4666 N.am      10 UNK        -0.5000 
     25 C           1.7153  -23.7025  -45.5189 C.2       9 UNK         0.5000 
     26 O           0.9657  -24.6795  -45.4814 O.2       9 UNK        -0.5000 
     27 CA          2.7540  -23.5145  -44.3941 C.3       9 UNK         0.1400 
     28 CB          3.9266  -24.4874  -44.5902 C.3       9 UNK        -0.1800 
     29 N           3.2912  -22.1580  -44.2165 N.am      9 UNK        -0.5000 
     30 C           2.5980  -21.0305  -43.9977 C.2       8 UNK         0.5000 
     31 O           1.3670  -20.9633  -44.0519 O.2       8 UNK        -0.5000 
     32 CA          3.4479  -19.7772  -43.6927 C.3       8 UNK         0.1400 
     33 CB          4.3834  -19.4212  -44.8627 C.3       8 UNK        -0.1800 
     34 N           2.6457  -18.5986  -43.3634 N.am      8 UNK        -0.5000 
     35 C           2.0100  -18.3951  -42.2023 C.2       7 UNK         0.5000 
     36 O           2.0177  -19.2024  -41.2705 O.2       7 UNK        -0.5000 
     37 CA          1.2749  -17.0408  -42.0584 C.3       7 UNK         0.1400 
     38 CB          0.8106  -16.7579  -40.6152 C.3       7 UNK        -0.1800 
     39 N           2.0393  -15.8972  -42.5766 N.am      7 UNK        -0.5000 
     40 C           3.2722  -15.5118  -42.2110 C.2       6 UNK         0.5000 
     41 O           3.9719  -16.1049  -41.3892 O.2       6 UNK        -0.5000 
     42 CA          3.8084  -14.2238  -42.8628 C.3       6 UNK         0.1400 
     43 CB          4.4597  -14.5176  -44.2225 C.3       6 UNK        -0.1800 
     44 N           2.7913  -13.1841  -43.0300 N.am      6 UNK        -0.5000 
     45 C           2.2125  -12.5113  -42.0246 C.2       5 UNK         0.5000 
     46 O           2.4166  -12.7537  -40.8336 O.2       5 UNK        -0.5000 
     47 CA          1.2831  -11.3476  -42.4347 C.3       5 UNK         0.1400 
     48 CB          0.9107  -10.4197  -41.2590 C.3       5 UNK        -0.1800 
     49 N           1.8239  -10.5780  -43.5630 N.am      5 UNK        -0.5000 
     50 C           2.9815   -9.8993  -43.6036 C.2       4 UNK         0.5000 
     51 O           3.7305   -9.7758  -42.6334 O.2       4 UNK        -0.5000 
     52 CA          3.3867   -9.2233  -44.9334 C.3       4 UNK         0.1400 
     53 CB          4.7016   -9.8188  -45.4782 C.3       4 UNK        -0.1800 
     54 N           2.3543   -9.1873  -45.9822 N.am      4 UNK        -0.5000 
     55 C           1.8334  -10.2118  -46.6696 C.2       3 UNK         0.5000 
     56 O           2.1221  -11.3937  -46.4751 O.2       3 UNK        -0.5000 
     57 CA          0.8140   -9.8519  -47.7564 C.3       3 UNK         0.1400 
     58 CB          1.4993   -9.7582  -49.1324 C.3       3 UNK        -0.1800 
     59 N          -0.2212  -10.8777  -47.7660 N.am      3 UNK        -0.5000 
     60 C          -1.4193  -10.7872  -48.3545 C.2       2 UNK         0.5000 
     61 O          -1.7935   -9.7854  -48.9666 O.2       2 UNK        -0.5000 
     62 CA         -2.3843  -11.9879  -48.2154 C.3       2 UNK         0.1400 
     63 CB         -3.0293  -12.3762  -49.5629 C.3       2 UNK        -0.1800 
     64 N          -1.8132  -13.1668  -47.5497 N.am      2 UNK        -0.5000 
     65 C          -0.8195  -13.9619  -47.9762 C.2       1 UNK         0.5000 
     66 O          -0.2414  -13.8124  -49.0529 O.2       1 UNK        -0.5000 
     67 C          -2.7008  -23.4283  -44.5870 C.2       11 UNK         0.5000 
     68 O          -3.8649  -23.7372  -44.8433 O.2       11 UNK        -0.5000 
     69 N          -1.7963  -24.2829  -44.0854 N.am      12 UNK        -0.5000 
     70 CA         -2.0609  -25.6855  -43.7572 C.3       12 UNK         0.1400 
     71 CB         -0.9079  -26.2347  -42.9032 C.3       12 UNK        -0.1800 
     72 C          -2.2762  -26.5538  -45.0093 C.2       12 UNK         0.5000 
     73 O          -3.0783  -27.4870  -44.9720 O.2       12 UNK        -0.5000 
     74 N          -1.5895  -26.2041  -46.1057 N.am      13 UNK        -0.5000 
     75 CA         -1.7440  -26.8228  -47.4242 C.3       13 UNK         0.1400 
     76 CB         -0.4775  -26.5579  -48.2529 C.3       13 UNK        -0.1800 
     77 C          -3.0007  -26.3495  -48.1875 C.2       13 UNK         0.5000 
     78 O          -3.2174  -26.8093  -49.3090 O.2       13 UNK        -0.5000 
     79 N          -3.7863  -25.4337  -47.5984 N.am      14 UNK        -0.5000 
     80 CA         -5.0314  -24.8607  -48.1182 C.3       14 UNK         0.1400 
     81 CB         -6.1412  -25.9318  -48.1624 C.3       14 UNK        -0.1800 
     82 C          -4.8263  -24.1516  -49.4703 C.2       14 UNK         0.5000 
     83 O          -5.4638  -24.5076  -50.4641 O.2       14 UNK        -0.5000 
     84 N          -3.8903  -23.1908  -49.4864 N.am      15 UNK        -0.5000 
     85 CA         -3.4479  -22.4226  -50.6558 C.3       15 UNK         0.1400 
     86 CB         -4.6037  -21.5675  -51.2227 C.3       15 UNK        -0.1800 
     87 C          -2.7813  -23.3214  -51.7154 C.2       15 UNK         0.5000 
     88 O          -2.9721  -23.1103  -52.9135 O.2       15 UNK        -0.5000 
     89 N          -2.0366  -24.3320  -51.2402 N.am      16 UNK        -0.5000 
     90 CA         -1.4058  -25.4045  -52.0170 C.3       16 UNK         0.1400 
     91 CB         -0.2378  -24.8490  -52.8580 C.3       16 UNK        -0.1800 
     92 C          -2.4426  -26.1929  -52.8452 C.2       16 UNK         0.5000 
     93 O          -2.2823  -26.3511  -54.0556 O.2       16 UNK        -0.5000 
     94 N          -3.5104  -26.6318  -52.1626 N.am      17 UNK        -0.5000 
     95 CA         -4.7124  -27.2722  -52.7038 C.3       17 UNK         0.1400 
     96 CB         -4.3835  -28.6696  -53.2697 C.3       17 UNK        -0.1800 
     97 C          -5.4585  -26.3640  -53.7054 C.2       17 UNK         0.5000 
     98 O          -5.7793  -26.7931  -54.8156 O.2       17 UNK        -0.5000 
     99 N          -5.7125  -25.1171  -53.2800 N.am      18 UNK        -0.5000 
    100 CA        -6.4128  -24.0518  -54.0087 C.3       18 UNK         0.1400 
    101 CB        -7.8995  -24.4175  -54.2033 C.3       18 UNK        -0.1800 
    102 C         -5.7236  -23.6165  -55.3220 C.2       18 UNK         0.5000 
    103 O         -6.4039  -23.1913  -56.2582 O.2       18 UNK        -0.5000 
    104 N         -4.3902  -23.7213  -55.3734 N.am      19 UNK        -0.5000 
    105 CA        -3.5717  -23.3044  -56.5105 C.3       19 UNK         0.1400 
    106 CB        -2.3378  -24.2130  -56.6086 C.3       19 UNK        -0.1800 
    107 C         -3.1456  -21.8308  -56.3987 C.2       19 UNK         0.5000 
    108 O         -3.1032  -21.1357  -57.4153 O.2       19 UNK        -0.5000 
    109 N         -2.8278  -21.3809  -55.1778 N.am      20 UNK        -0.5000 
    110 CA        -2.4291  -20.0067  -54.8796 C.3       20 UNK         0.1400 
    111 CB        -1.5980  -19.9945  -53.5871 C.3       20 UNK        -0.1800 
    112 C         -3.6481  -19.0708  -54.7724 C.2       20 UNK         0.5000 
    113 O         -4.7595  -19.5216  -54.4862 O.2       20 UNK        -0.5000 
    114 N         -3.4064  -17.7737  -54.9984 N.am      21 UNK        -0.5000 
    115 CA        -4.4252  -16.7185  -55.0180 C.3       21 UNK         0.1400 
    116 CB        -3.9340  -15.5915  -55.9424 C.3       21 UNK        -0.1800 
    117 C         -4.7809  -16.1588  -53.6239 C.2       21 UNK         0.5000 
    118 O         -5.6886  -15.3311  -53.5252 O.2       21 UNK        -0.5000 
    119 N         -4.0537  -16.5832  -52.5835 N.am      22 UNK        -0.5000 
    120 CA        -4.2659  -16.2076  -51.1770 C.3       22 UNK         0.1400 
    121 C         -5.6478  -16.6367  -50.5986 C.2       22 UNK         0.5000 
    122 N         -6.1280  -15.9562  -49.5658 N.am      22 UNK        -0.7600 
    123 O         -6.2741  -17.5940  -51.0475 O.2       22 UNK        -0.5000 
    124 C124       -3.0923  -16.6928  -50.2850 C.3       23 UNK        -0.0398 
    125 S125       -2.7823  -18.4907  -50.3986 S.3       23 UNK        -0.2404 
    126 C126       -3.4377  -19.0719  -48.7963 C.3       23 UNK        -0.0205 
    127 H127       -1.9320  -13.4523  -43.1879 H         1 UNK         0.0600 
    128 H128       -0.5323  -14.3477  -42.5920 H         1 UNK         0.0600 
    129 H129       -1.8860  -15.2143  -43.3204 H         1 UNK         0.0600 
    130 H130       -1.6568  -15.7414  -45.4699 H         1 UNK         0.3000 
    131 H131       -0.9134  -15.9833  -47.4990 H         1 UNK         0.0600 
    132 H132        1.6707  -14.4940  -46.8791 H         1 UNK         0.0800 
    133 H133        1.4163  -15.6935  -48.1155 H         1 UNK         0.0800 
    134 H134        1.6216  -19.0824  -46.2471 H         1 UNK         0.0800 
    135 H135        1.4390  -18.2474  -47.7731 H         1 UNK         0.0800 
    136 H136       -0.6857  -18.7219  -48.6769 H         1 UNK         0.1150 
    137 H137       -4.2064  -18.8174  -46.2198 H         1 UNK         0.1150 
    138 H138       -0.3499  -18.2507  -44.4495 H         1 UNK         0.1150 
    139 H139       -2.2829  -18.1111  -43.0623 H         1 UNK         0.0800 
    140 H140       -3.8359  -17.8135  -43.8029 H         1 UNK         0.0800 
    141 H141       -1.8870  -21.7935  -42.7065 H         1 UNK         0.0800 
    142 H142       -1.1952  -20.5115  -43.6230 H         1 UNK         0.0800 
    143 H143       -2.9337  -21.5312  -45.5401 H         1 UNK         0.0600 
    144 H144       -0.1109  -21.7162  -45.1862 H         1 UNK         0.3000 
    145 H145        0.6018  -23.6496  -48.0186 H         1 UNK         0.0600 
    146 H146        0.9984  -20.6294  -48.0343 H         1 UNK         0.0600 
    147 H147        1.8420  -21.8101  -49.0290 H         1 UNK         0.0600 
    148 H148        0.1241  -21.5266  -49.2660 H         1 UNK         0.0600 
    149 H149        2.2774  -21.9808  -46.4217 H         1 UNK         0.3000 
    150 H150        2.2495  -23.7785  -43.4627 H         1 UNK         0.0600 
    151 H151        3.5729  -25.5146  -44.6917 H         1 UNK         0.0600 
    152 H152        4.6066  -24.4649  -43.7384 H         1 UNK         0.0600 
    153 H153        4.5004  -24.2480  -45.4864 H         1 UNK         0.0600 
    154 H154        4.2986  -22.1022  -44.1773 H         1 UNK         0.3000 
    155 H155        4.0687  -20.0112  -42.8253 H         1 UNK         0.0600 
    156 H156        5.0890  -20.2262  -45.0695 H         1 UNK         0.0600 
    157 H157        4.9748  -18.5341  -44.6340 H         1 UNK         0.0600 
    158 H158        3.8370  -19.2241  -45.7838 H         1 UNK         0.0600 
    159 H159        2.5634  -17.8946  -44.0841 H         1 UNK         0.3000 
    160 H160        0.3788  -17.1100  -42.6736 H         1 UNK         0.0600 
    161 H161        0.2686  -15.8143  -40.5530 H         1 UNK         0.0600 
    162 H162        1.6521  -16.7058  -39.9236 H         1 UNK         0.0600 
    163 H163        0.1398  -17.5404  -40.2585 H         1 UNK         0.0600 
    164 H164        1.5812  -15.3449  -43.2869 H         1 UNK         0.3000 
    165 H165        4.5824  -13.8264  -42.2027 H         1 UNK         0.0600 
    166 H166        3.7229  -14.8153  -44.9675 H         1 UNK         0.0600 
    167 H167        4.9799  -13.6391  -44.6050 H         1 UNK         0.0600 
    168 H168        5.1930  -15.3213  -44.1430 H         1 UNK         0.0600 
    169 H169        2.5396  -12.9328  -43.9777 H         1 UNK         0.3000 
    170 H170        0.3566  -11.8014  -42.7844 H         1 UNK         0.0600 
    171 H171        1.7905   -9.9683  -40.8001 H         1 UNK         0.0600 
    172 H172        0.2523   -9.6149  -41.5858 H         1 UNK         0.0600 
    173 H173        0.3843  -10.9718  -40.4796 H         1 UNK         0.0600 
    174 H174        1.3254  -10.6847  -44.4362 H         1 UNK         0.3000 
    175 H175        3.5830   -8.1794  -44.6847 H         1 UNK         0.0600 
    176 H176        4.6087  -10.8838  -45.6933 H         1 UNK         0.0600 
    177 H177        5.0139   -9.3164  -46.3937 H         1 UNK         0.0600 
    178 H178        5.5104   -9.7056  -44.7554 H         1 UNK         0.0600 
    179 H179        2.0224   -8.2590  -46.2061 H         1 UNK         0.3000 
    180 H180        0.3559   -8.8917  -47.5105 H         1 UNK         0.0600 
    181 H181        1.9289  -10.7158  -49.4300 H         1 UNK         0.0600 
    182 H182        2.3068   -9.0252  -49.1180 H         1 UNK         0.0600 
    183 H183        0.7990   -9.4506  -49.9088 H         1 UNK         0.0600 
    184 H184        0.0234  -11.7213  -47.2609 H         1 UNK         0.3000 
    185 H185       -3.1860  -11.6425  -47.5612 H         1 UNK         0.0600 
    186 H186       -3.7263  -13.2049  -49.4418 H         1 UNK         0.0600 
    187 H187       -3.5914  -11.5413  -49.9828 H         1 UNK         0.0600 
    188 H188       -2.2840  -12.6686  -50.3028 H         1 UNK         0.0600 
    189 H189       -2.1988  -13.3752  -46.6395 H         1 UNK         0.3000 
    190 H190       -0.8425  -23.9709  -43.9736 H         1 UNK         0.3000 
    191 H191       -2.9757  -25.7282  -43.1622 H         1 UNK         0.0600 
    192 H192        0.0399  -26.2169  -43.4421 H         1 UNK         0.0600 
    193 H193       -0.7847  -25.6564  -41.9874 H         1 UNK         0.0600 
    194 H194       -1.0984  -27.2682  -42.6111 H         1 UNK         0.0600 
    195 H195       -0.8988  -25.4664  -46.0222 H         1 UNK         0.3000 
    196 H196       -1.8351  -27.9021  -47.2870 H         1 UNK         0.0600 
    197 H197        0.4277  -26.7660  -47.6818 H         1 UNK         0.0600 
    198 H198       -0.4334  -25.5262  -48.5966 H         1 UNK         0.0600 
    199 H199       -0.4552  -27.1955  -49.1373 H         1 UNK         0.0600 
    200 H200       -3.5001  -25.0831  -46.6937 H         1 UNK         0.3000 
    201 H201       -5.3407  -24.0925  -47.4079 H         1 UNK         0.0600 
    202 H202       -7.0938  -25.4930  -48.4613 H         1 UNK         0.0600 
    203 H203       -6.2864  -26.3876  -47.1830 H         1 UNK         0.0600 
    204 H204       -5.9121  -26.7278  -48.8717 H         1 UNK         0.0600 
    205 H205       -3.3453  -23.0362  -48.6401 H         1 UNK         0.3000 
    206 H206       -2.6670  -21.7455  -50.3082 H         1 UNK         0.0600 
    207 H207       -5.0494  -20.9365  -50.4552 H         1 UNK         0.0600 
    208 H208       -5.4002  -22.1817  -51.6351 H         1 UNK         0.0600 
    209 H209       -4.2623  -20.9087  -52.0199 H         1 UNK         0.0600 
    210 H210       -1.9833  -24.4285  -50.2369 H         1 UNK         0.3000 
    211 H211       -0.9877  -26.1105  -51.2988 H         1 UNK         0.0600 
    212 H212        0.4983  -24.3525  -52.2260 H         1 UNK         0.0600 
    213 H213        0.2775  -25.6504  -53.3886 H         1 UNK         0.0600 
    214 H214       -0.5767  -24.1287  -53.6023 H         1 UNK         0.0600 
    215 H215       -3.5200  -26.4852  -51.1557 H         1 UNK         0.3000 
    216 H216       -5.3871  -27.4118  -51.8578 H         1 UNK         0.0600 
    217 H217       -5.2932  -29.1932  -53.5656 H         1 UNK         0.0600 
    218 H218       -3.7396  -28.6129  -54.1477 H         1 UNK         0.0600 
    219 H219       -3.8817  -29.2872  -52.5248 H         1 UNK         0.0600 
    220 H220       -5.4365  -24.8786  -52.3297 H         1 UNK         0.3000 
    221 H221       -6.3846  -23.1756  -53.3634 H         1 UNK         0.0600 
    222 H222       -8.0248  -25.2493  -54.8970 H         1 UNK         0.0600 
    223 H223       -8.3634  -24.6961  -53.2570 H         1 UNK         0.0600 
    224 H224       -8.4628  -23.5727  -54.6011 H         1 UNK         0.0600 
    225 H225       -3.8946  -24.0144  -54.5387 H         1 UNK         0.3000 
    226 H226       -4.1425  -23.4206  -57.4342 H         1 UNK         0.0600 
    227 H227       -2.6270  -25.2576  -56.7263 H         1 UNK         0.0600 
    228 H228       -1.7218  -23.9454  -57.4678 H         1 UNK         0.0600 
    229 H229       -1.7123  -24.1386  -55.7190 H         1 UNK         0.0600 
    230 H230       -2.9245  -22.0081  -54.3823 H         1 UNK         0.3000 
    231 H231       -1.7930  -19.6461  -55.6909 H         1 UNK         0.0600 
    232 H232       -1.2569  -18.9874  -53.3451 H         1 UNK         0.0600 
    233 H233       -0.7119  -20.6219  -53.6848 H         1 UNK         0.0600 
    234 H234       -2.1675  -20.3600  -52.7347 H         1 UNK         0.0600 
    235 H235       -2.4634  -17.4820  -55.2129 H         1 UNK         0.3000 
    236 H236       -5.3453  -17.1248  -55.4436 H         1 UNK         0.0600 
    237 H237       -3.7369  -15.9636  -56.9480 H         1 UNK         0.0600 
    238 H238       -4.6816  -14.8023  -56.0327 H         1 UNK         0.0600 
    239 H239       -3.0178  -15.1339  -55.5669 H         1 UNK         0.0600 
    240 H240       -3.3588  -17.2957  -52.7462 H         1 UNK         0.3000 
    241 H241       -4.2540  -15.1161  -51.1559 H         1 UNK         0.0600 
    242 H242       -5.6437  -15.1642  -49.1745 H         1 UNK         0.3800 
    243 H243       -7.0168  -16.2302  -49.1768 H         1 UNK         0.3800 
    244 H244       -2.1765  -16.1838  -50.5887 H         1 UNK         0.0800 
    245 H245       -3.2470  -16.4049  -49.2437 H         1 UNK         0.0800 
    246 H246       -3.5700  -20.1513  -48.8387 H         1 UNK         0.0800 
    247 H247       -4.4317  -18.6479  -48.6469 H         1 UNK         0.0800 
@<TRIPOS>BOND
     1    1    2 1    
     2    1  127 1    
     3    1  128 1    
     4    1  129 1    
     5    2    3 2    
     6    2    4 am   BACKBONE|DICT|INTERRES
     7    4    5 1    
     8    4  130 1    
     9    5    6 1    
    10    5   65 1    
    11    5  131 1    
    12    6    7 1    
    13    6  132 1    
    14    6  133 1    
    15    7    8 1    
    16    8    9 1    
    17    8  134 1    
    18    8  135 1    
    19    9   10 ar   
    20    9   14 ar   
    21   10   11 ar   
    22   10  136 1    
    23   11   12 ar   
    24   11  126 1    
    25   12   13 ar   
    26   12  137 1    
    27   13   14 ar   
    28   13   15 1    
    29   14  138 1    
    30   15   16 1    
    31   15  139 1    
    32   15  140 1    
    33   16   17 1    
    34   17   18 1    
    35   17  141 1    
    36   17  142 1    
    37   18   19 1    
    38   18   67 1    
    39   18  143 1    
    40   19   20 am   BACKBONE|DICT|INTERRES
    41   19  144 1    
    42   20   21 2    
    43   20   22 1    
    44   22   23 1    
    45   22   24 1    
    46   22  145 1    
    47   23  146 1    
    48   23  147 1    
    49   23  148 1    
    50   24   25 am   BACKBONE|DICT|INTERRES
    51   24  149 1    
    52   25   26 2    
    53   25   27 1    
    54   27   28 1    
    55   27   29 1    
    56   27  150 1    
    57   28  151 1    
    58   28  152 1    
    59   28  153 1    
    60   29   30 am   BACKBONE|DICT|INTERRES
    61   29  154 1    
    62   30   31 2    
    63   30   32 1    
    64   32   33 1    
    65   32   34 1    
    66   32  155 1    
    67   33  156 1    
    68   33  157 1    
    69   33  158 1    
    70   34   35 am   BACKBONE|DICT|INTERRES
    71   34  159 1    
    72   35   36 2    
    73   35   37 1    
    74   37   38 1    
    75   37   39 1    
    76   37  160 1    
    77   38  161 1    
    78   38  162 1    
    79   38  163 1    
    80   39   40 am   BACKBONE|DICT|INTERRES
    81   39  164 1    
    82   40   41 2    
    83   40   42 1    
    84   42   43 1    
    85   42   44 1    
    86   42  165 1    
    87   43  166 1    
    88   43  167 1    
    89   43  168 1    
    90   44   45 am   BACKBONE|DICT|INTERRES
    91   44  169 1    
    92   45   46 2    
    93   45   47 1    
    94   47   48 1    
    95   47   49 1    
    96   47  170 1    
    97   48  171 1    
    98   48  172 1    
    99   48  173 1    
   100   49   50 am   BACKBONE|DICT|INTERRES
   101   49  174 1    
   102   50   51 2    
   103   50   52 1    
   104   52   53 1    
   105   52   54 1    
   106   52  175 1    
   107   53  176 1    
   108   53  177 1    
   109   53  178 1    
   110   54   55 am   BACKBONE|DICT|INTERRES
   111   54  179 1    
   112   55   56 2    
   113   55   57 1    
   114   57   58 1    
   115   57   59 1    
   116   57  180 1    
   117   58  181 1    
   118   58  182 1    
   119   58  183 1    
   120   59   60 am   BACKBONE|DICT|INTERRES
   121   59  184 1    
   122   60   61 2    
   123   60   62 1    
   124   62   63 1    
   125   62   64 1    
   126   62  185 1    
   127   63  186 1    
   128   63  187 1    
   129   63  188 1    
   130   64   65 am   BACKBONE|DICT|INTERRES
   131   64  189 1    
   132   65   66 2    
   133   67   68 2    
   134   67   69 am   BACKBONE|DICT|INTERRES
   135   69   70 1    
   136   69  190 1    
   137   70   71 1    
   138   70   72 1    
   139   70  191 1    
   140   71  192 1    
   141   71  193 1    
   142   71  194 1    
   143   72   73 2    
   144   72   74 am   BACKBONE|DICT|INTERRES
   145   74   75 1    
   146   74  195 1    
   147   75   76 1    
   148   75   77 1    
   149   75  196 1    
   150   76  197 1    
   151   76  198 1    
   152   76  199 1    
   153   77   78 2    
   154   77   79 am   BACKBONE|DICT|INTERRES
   155   79   80 1    
   156   79  200 1    
   157   80   81 1    
   158   80   82 1    
   159   80  201 1    
   160   81  202 1    
   161   81  203 1    
   162   81  204 1    
   163   82   83 2    
   164   82   84 am   BACKBONE|DICT|INTERRES
   165   84   85 1    
   166   84  205 1    
   167   85   86 1    
   168   85   87 1    
   169   85  206 1    
   170   86  207 1    
   171   86  208 1    
   172   86  209 1    
   173   87   88 2    
   174   87   89 am   BACKBONE|DICT|INTERRES
   175   89   90 1    
   176   89  210 1    
   177   90   91 1    
   178   90   92 1    
   179   90  211 1    
   180   91  212 1    
   181   91  213 1    
   182   91  214 1    
   183   92   93 2    
   184   92   94 am   BACKBONE|DICT|INTERRES
   185   94   95 1    
   186   94  215 1    
   187   95   96 1    
   188   95   97 1    
   189   95  216 1    
   190   96  217 1    
   191   96  218 1    
   192   96  219 1    
   193   97   98 2    
   194   97   99 am   BACKBONE|DICT|INTERRES
   195   99  100 1    
   196   99  220 1    
   197  100  101 1    
   198  100  102 1    
   199  100  221 1    
   200  101  222 1    
   201  101  223 1    
   202  101  224 1    
   203  102  103 2    
   204  102  104 am   BACKBONE|DICT|INTERRES
   205  104  105 1    
   206  104  225 1    
   207  105  106 1    
   208  105  107 1    
   209  105  226 1    
   210  106  227 1    
   211  106  228 1    
   212  106  229 1    
   213  107  108 2    
   214  107  109 am   BACKBONE|DICT|INTERRES
   215  109  110 1    
   216  109  230 1    
   217  110  111 1    
   218  110  112 1    
   219  110  231 1    
   220  111  232 1    
   221  111  233 1    
   222  111  234 1    
   223  112  113 2    
   224  112  114 am   BACKBONE|DICT|INTERRES
   225  114  115 1    
   226  114  235 1    
   227  115  116 1    
   228  115  117 1    
   229  115  236 1    
   230  116  237 1    
   231  116  238 1    
   232  116  239 1    
   233  117  118 2    
   234  117  119 am   BACKBONE|DICT|INTERRES
   235  119  120 1    
   236  119  240 1    
   237  120  121 1    
   238  120  124 1    
   239  120  241 1    
   240  121  122 am   BACKBONE|DICT|INTERRES
   241  121  123 2    
   242  122  242 1    
   243  122  243 1    
   244  124  125 1    
   245  124  244 1    
   246  124  245 1    
   247  125  126 1    
   248  126  246 1    
   249  126  247 1    
@<TRIPOS>SUBSTRUCTURE
     1 UNK         1 GROUP             0       ****    0 ROOT    
