@<TRIPOS>MOLECULE
3R540
247   249    1
SMALL
USER_CHARGES


@<TRIPOS>ATOM
      1 CA         -1.4984   -8.7852  -45.8069 C.3       0 UNK        -0.1800 
      2 C          -0.6517   -9.9989  -46.1636 C.2       0 UNK         0.5000 
      3 O           0.4996  -10.0867  -45.7384 O.2       0 UNK        -0.5000 
      4 N          -1.2149  -10.9259  -46.9497 N.am      1 UNK        -0.5000 
      5 CA         -0.5782  -12.1836  -47.3567 C.3       1 UNK         0.1400 
      6 C6         -1.3482  -12.8358  -48.5336 C.3       23 UNK        -0.0398 
      7 S7         -0.4691  -14.2137  -49.3519 S.3       23 UNK        -0.2404 
      8 C8         -1.2657  -15.6417  -48.5524 C.3       23 UNK        -0.0205 
      9 C9         -0.9386  -16.9485  -49.2565 C.ar      23 UNK        -0.0193 
     10 C10        -1.8650  -17.5240  -50.1341 C.ar      23 UNK        -0.1150 
     11 C11        -1.5957  -18.7566  -50.7342 C.ar      23 UNK        -0.0193 
     12 C12        -0.3816  -19.3925  -50.4760 C.ar      23 UNK        -0.1150 
     13 C13         0.5531  -18.8316  -49.6068 C.ar      23 UNK        -0.0193 
     14 C14         0.2680  -17.6072  -48.9942 C.ar      23 UNK        -0.1150 
     15 C15         1.8606  -19.5640  -49.3364 C.3       23 UNK        -0.0205 
     16 S16         1.5944  -21.2333  -48.6451 S.3       23 UNK        -0.2404 
     17 C17         0.9370  -20.8179  -46.9995 C.3       23 UNK        -0.0398 
     18 CA         -0.3280  -21.6111  -46.5961 C.3       11 UNK         0.1400 
     19 N          -0.5071  -21.5700  -45.1416 N.am      11 UNK        -0.5000 
     20 C          -1.4561  -22.2110  -44.4463 C.2       10 UNK         0.5000 
     21 O          -2.2681  -22.9897  -44.9433 O.2       10 UNK        -0.5000 
     22 CA         -1.5467  -21.8672  -42.9495 C.3       10 UNK         0.1400 
     23 CB         -0.5500  -22.7010  -42.1305 C.3       10 UNK        -0.1800 
     24 N          -1.3173  -20.4399  -42.7110 N.am      10 UNK        -0.5000 
     25 C          -2.1810  -19.4742  -43.0594 C.2       9 UNK         0.5000 
     26 O          -3.2788  -19.6954  -43.5678 O.2       9 UNK        -0.5000 
     27 CA         -1.7212  -18.0184  -42.8555 C.3       9 UNK         0.1400 
     28 CB         -1.9448  -17.5738  -41.4025 C.3       9 UNK        -0.1800 
     29 N          -0.3156  -17.8241  -43.2186 N.am      9 UNK        -0.5000 
     30 C           0.1531  -17.9032  -44.4740 C.2       8 UNK         0.5000 
     31 O          -0.5692  -18.0394  -45.4581 O.2       8 UNK        -0.5000 
     32 CA          1.6813  -17.8636  -44.6595 C.3       8 UNK         0.1400 
     33 CB          2.1497  -16.4674  -45.0845 C.3       8 UNK        -0.1800 
     34 N           2.4134  -18.2702  -43.4633 N.am      8 UNK        -0.5000 
     35 C           2.4316  -19.5000  -42.9376 C.2       7 UNK         0.5000 
     36 O           1.7858  -20.4346  -43.4163 O.2       7 UNK        -0.5000 
     37 CA          3.2828  -19.7005  -41.6588 C.3       7 UNK         0.1400 
     38 CB          3.6287  -21.1809  -41.4209 C.3       7 UNK        -0.1800 
     39 N           4.5252  -18.9142  -41.6331 N.am      7 UNK        -0.5000 
     40 C           4.6231  -17.5868  -41.4813 C.2       6 UNK         0.5000 
     41 O           3.6437  -16.8448  -41.3470 O.2       6 UNK        -0.5000 
     42 CA          6.0331  -16.9823  -41.5592 C.3       6 UNK         0.1400 
     43 CB          6.6463  -17.1941  -42.9587 C.3       6 UNK        -0.1800 
     44 N           5.9195  -15.5574  -41.2754 N.am      6 UNK        -0.5000 
     45 C           6.9092  -14.6996  -41.0122 C.2       5 UNK         0.5000 
     46 O           8.0920  -15.0334  -40.9193 O.2       5 UNK        -0.5000 
     47 CA          6.4971  -13.2234  -40.8102 C.3       5 UNK         0.1400 
     48 CB          7.6355  -12.2357  -41.1410 C.3       5 UNK        -0.1800 
     49 N           5.2631  -12.8498  -41.5181 N.am      5 UNK        -0.5000 
     50 C           5.0362  -12.8585  -42.8400 C.2       4 UNK         0.5000 
     51 O           5.8683  -13.2166  -43.6752 O.2       4 UNK        -0.5000 
     52 CA          3.6290  -12.4055  -43.2904 C.3       4 UNK         0.1400 
     53 CB          3.5073  -12.2929  -44.8204 C.3       4 UNK        -0.1800 
     54 N           2.5658  -13.2895  -42.8062 N.am      4 UNK        -0.5000 
     55 C           2.1022  -13.3542  -41.5502 C.2       3 UNK         0.5000 
     56 O           2.5592  -12.6746  -40.6285 O.2       3 UNK        -0.5000 
     57 CA          0.9503  -14.3495  -41.2796 C.3       3 UNK         0.1400 
     58 CB          0.1343  -13.9890  -40.0207 C.3       3 UNK        -0.1800 
     59 N           0.0581  -14.5640  -42.4275 N.am      3 UNK        -0.5000 
     60 C          -0.6866  -13.6466  -43.0607 C.2       2 UNK         0.5000 
     61 O          -0.7230  -12.4502  -42.7665 O.2       2 UNK        -0.5000 
     62 CA         -1.5621  -14.1754  -44.2109 C.3       2 UNK         0.1400 
     63 CB         -3.0214  -14.3364  -43.7598 C.3       2 UNK        -0.1800 
     64 N          -1.5114  -13.2969  -45.3765 N.am      2 UNK        -0.5000 
     65 C          -0.4347  -13.1491  -46.1610 C.2       1 UNK         0.5000 
     66 O           0.6291  -13.7386  -45.9738 O.2       1 UNK        -0.5000 
     67 C          -1.5930  -21.1270  -47.3445 C.2       11 UNK         0.5000 
     68 O          -2.0496  -21.7996  -48.2724 O.2       11 UNK        -0.5000 
     69 N          -2.1648  -20.0053  -46.8791 N.am      12 UNK        -0.5000 
     70 CA         -3.4206  -19.4354  -47.3620 C.3       12 UNK         0.1400 
     71 CB         -3.6182  -18.0354  -46.7610 C.3       12 UNK        -0.1800 
     72 C          -4.6371  -20.3250  -47.0586 C.2       12 UNK         0.5000 
     73 O          -5.4709  -20.5173  -47.9421 O.2       12 UNK        -0.5000 
     74 N          -4.7105  -20.8714  -45.8355 N.am      13 UNK        -0.5000 
     75 CA         -5.7796  -21.7700  -45.3872 C.3       13 UNK         0.1400 
     76 CB         -5.6436  -22.0281  -43.8795 C.3       13 UNK        -0.1800 
     77 C          -5.8173  -23.0985  -46.1655 C.2       13 UNK         0.5000 
     78 O          -6.9011  -23.5773  -46.5007 O.2       13 UNK        -0.5000 
     79 N          -4.6342  -23.6457  -46.4743 N.am      14 UNK        -0.5000 
     80 CA         -4.4537  -24.8092  -47.3450 C.3       14 UNK         0.1400 
     81 CB         -3.0490  -25.3872  -47.1108 C.3       14 UNK        -0.1800 
     82 C          -4.6433  -24.4817  -48.8395 C.2       14 UNK         0.5000 
     83 O          -4.7452  -25.4044  -49.6495 O.2       14 UNK        -0.5000 
     84 N          -4.6379  -23.1861  -49.1857 N.am      15 UNK        -0.5000 
     85 CA         -4.7123  -22.6147  -50.5319 C.3       15 UNK         0.1400 
     86 CB         -6.1255  -22.8081  -51.1168 C.3       15 UNK        -0.1800 
     87 C          -3.5904  -23.1353  -51.4536 C.2       15 UNK         0.5000 
     88 O          -3.8451  -23.4413  -52.6169 O.2       15 UNK        -0.5000 
     89 N          -2.3773  -23.2738  -50.8926 N.am      16 UNK        -0.5000 
     90 CA         -1.1919  -23.8891  -51.5073 C.3       16 UNK         0.1400 
     91 CB         -0.6302  -22.9944  -52.6309 C.3       16 UNK        -0.1800 
     92 C          -1.4453  -25.3408  -51.9788 C.2       16 UNK         0.5000 
     93 O          -0.9814  -25.7331  -53.0505 O.2       16 UNK        -0.5000 
     94 N          -2.1999  -26.0966  -51.1664 N.am      17 UNK        -0.5000 
     95 CA         -2.7387  -27.4335  -51.4364 C.3       17 UNK         0.1400 
     96 CB         -1.6162  -28.4723  -51.6468 C.3       17 UNK        -0.1800 
     97 C          -3.7831  -27.4043  -52.5721 C.2       17 UNK         0.5000 
     98 O          -3.6883  -28.1762  -53.5283 O.2       17 UNK        -0.5000 
     99 N          -4.7656  -26.5031  -52.4218 N.am      18 UNK        -0.5000 
    100 CA        -5.9045  -26.2602  -53.3152 C.3       18 UNK         0.1400 
    101 CB        -6.8850  -27.4507  -53.2680 C.3       18 UNK        -0.1800 
    102 C         -5.4960  -25.8679  -54.7524 C.2       18 UNK         0.5000 
    103 O         -6.0411  -26.4017  -55.7214 O.2       18 UNK        -0.5000 
    104 N         -4.5426  -24.9369  -54.8677 N.am      19 UNK        -0.5000 
    105 CA        -4.0860  -24.3736  -56.1339 C.3       19 UNK         0.1400 
    106 CB        -2.6600  -23.8318  -55.9604 C.3       19 UNK        -0.1800 
    107 C         -5.0218  -23.2415  -56.5849 C.2       19 UNK         0.5000 
    108 O         -5.4051  -22.3959  -55.7722 O.2       19 UNK        -0.5000 
    109 N         -5.3162  -23.1957  -57.8897 N.am      20 UNK        -0.5000 
    110 CA        -6.1486  -22.1656  -58.5227 C.3       20 UNK         0.1400 
    111 CB        -6.4816  -22.6116  -59.9552 C.3       20 UNK        -0.1800 
    112 C         -5.5128  -20.7584  -58.5285 C.2       20 UNK         0.5000 
    113 O         -6.2201  -19.7758  -58.7542 O.2       20 UNK        -0.5000 
    114 N         -4.1967  -20.6860  -58.2848 N.am      21 UNK        -0.5000 
    115 CA        -3.4092  -19.4562  -58.2174 C.3       21 UNK         0.1400 
    116 CB        -1.9184  -19.8267  -58.1768 C.3       21 UNK        -0.1800 
    117 C         -3.7642  -18.5464  -57.0248 C.2       21 UNK         0.5000 
    118 O         -3.5915  -17.3313  -57.1345 O.2       21 UNK        -0.5000 
    119 N         -4.2400  -19.1291  -55.9163 N.am      22 UNK        -0.5000 
    120 CA        -4.5699  -18.3956  -54.6825 C.3       22 UNK         0.1400 
    121 C         -5.6455  -19.0649  -53.7797 C.2       22 UNK         0.5000 
    122 N         -6.1353  -20.2666  -54.0591 N.am      22 UNK        -0.7600 
    123 O         -6.0780  -18.4588  -52.8035 O.2       22 UNK        -0.5000 
    124 C124       -3.3079  -17.9483  -53.8889 C.3       23 UNK        -0.0398 
    125 S125       -2.2415  -19.3389  -53.3753 S.3       23 UNK        -0.2404 
    126 C126       -2.6283  -19.4541  -51.6023 C.3       23 UNK        -0.0205 
    127 H127       -1.6247   -8.7219  -44.7261 H         1 UNK         0.0600 
    128 H128       -2.4878   -8.8315  -46.2627 H         1 UNK         0.0600 
    129 H129       -1.0093   -7.8728  -46.1483 H         1 UNK         0.0600 
    130 H130       -2.1593  -10.7806  -47.2775 H         1 UNK         0.3000 
    131 H131        0.4285  -11.9435  -47.7063 H         1 UNK         0.0600 
    132 H132       -1.5199  -12.0844  -49.3058 H         1 UNK         0.0800 
    133 H133       -2.3421  -13.1591  -48.2201 H         1 UNK         0.0800 
    134 H134       -0.9461  -15.7046  -47.5110 H         1 UNK         0.0800 
    135 H135       -2.3465  -15.4940  -48.5344 H         1 UNK         0.0800 
    136 H136       -2.8075  -17.0299  -50.3235 H         1 UNK         0.1150 
    137 H137       -0.1693  -20.3469  -50.9291 H         1 UNK         0.1150 
    138 H138        0.9778  -17.1667  -48.3084 H         1 UNK         0.1150 
    139 H139        2.4103  -19.6558  -50.2741 H         1 UNK         0.0800 
    140 H140        2.4980  -18.9908  -48.6612 H         1 UNK         0.0800 
    141 H141        0.7421  -19.7484  -46.9463 H         1 UNK         0.0800 
    142 H142        1.7416  -21.0126  -46.2885 H         1 UNK         0.0800 
    143 H143       -0.1743  -22.6596  -46.8597 H         1 UNK         0.0600 
    144 H144        0.1453  -20.9948  -44.6215 H         1 UNK         0.3000 
    145 H145       -2.5532  -22.1144  -42.6066 H         1 UNK         0.0600 
    146 H146       -0.6273  -22.4760  -41.0667 H         1 UNK         0.0600 
    147 H147       -0.7462  -23.7670  -42.2520 H         1 UNK         0.0600 
    148 H148        0.4805  -22.5231  -42.4376 H         1 UNK         0.0600 
    149 H149       -0.4139  -20.1842  -42.3415 H         1 UNK         0.3000 
    150 H150       -2.3341  -17.3874  -43.5029 H         1 UNK         0.0600 
    151 H151       -1.3261  -18.1402  -40.7054 H         1 UNK         0.0600 
    152 H152       -2.9853  -17.7170  -41.1078 H         1 UNK         0.0600 
    153 H153       -1.7175  -16.5168  -41.2704 H         1 UNK         0.0600 
    154 H154        0.3512  -17.7784  -42.4622 H         1 UNK         0.3000 
    155 H155        1.9436  -18.5583  -45.4568 H         1 UNK         0.0600 
    156 H156        1.9132  -15.7143  -44.3344 H         1 UNK         0.0600 
    157 H157        1.6712  -16.1685  -46.0178 H         1 UNK         0.0600 
    158 H158        3.2264  -16.4448  -45.2536 H         1 UNK         0.0600 
    159 H159        2.9260  -17.5501  -42.9644 H         1 UNK         0.3000 
    160 H160        2.6628  -19.3698  -40.8233 H         1 UNK         0.0600 
    161 H161        4.2258  -21.5891  -42.2372 H         1 UNK         0.0600 
    162 H162        2.7272  -21.7890  -41.3365 H         1 UNK         0.0600 
    163 H163        4.1897  -21.3119  -40.4954 H         1 UNK         0.0600 
    164 H164        5.3747  -19.4414  -41.7757 H         1 UNK         0.3000 
    165 H165        6.6572  -17.4539  -40.7979 H         1 UNK         0.0600 
    166 H166        7.6468  -16.7671  -43.0257 H         1 UNK         0.0600 
    167 H167        6.7383  -18.2536  -43.1991 H         1 UNK         0.0600 
    168 H168        6.0362  -16.7314  -43.7358 H         1 UNK         0.0600 
    169 H169        4.9647  -15.2205  -41.2873 H         1 UNK         0.3000 
    170 H170        6.2750  -13.1208  -39.7473 H         1 UNK         0.0600 
    171 H171        8.5053  -12.4129  -40.5074 H         1 UNK         0.0600 
    172 H172        7.9627  -12.3271  -42.1771 H         1 UNK         0.0600 
    173 H173        7.3229  -11.2044  -40.9773 H         1 UNK         0.0600 
    174 H174        4.4749  -12.5973  -40.9273 H         1 UNK         0.3000 
    175 H175        3.4647  -11.4092  -42.8747 H         1 UNK         0.0600 
    176 H176        3.6135  -13.2635  -45.3070 H         1 UNK         0.0600 
    177 H177        2.5396  -11.8810  -45.1069 H         1 UNK         0.0600 
    178 H178        4.2718  -11.6312  -45.2292 H         1 UNK         0.0600 
    179 H179        2.1227  -13.8647  -43.5071 H         1 UNK         0.3000 
    180 H180        1.4299  -15.3098  -41.0876 H         1 UNK         0.0600 
    181 H181       -0.3323  -13.0075  -40.1085 H         1 UNK         0.0600 
    182 H182        0.7684  -13.9710  -39.1336 H         1 UNK         0.0600 
    183 H183       -0.6533  -14.7195  -39.8370 H         1 UNK         0.0600 
    184 H184       -0.0025  -15.5170  -42.7513 H         1 UNK         0.3000 
    185 H185       -1.1930  -15.1563  -44.5174 H         1 UNK         0.0600 
    186 H186       -3.0933  -14.9867  -42.8874 H         1 UNK         0.0600 
    187 H187       -3.4669  -13.3780  -43.4900 H         1 UNK         0.0600 
    188 H188       -3.6303  -14.7816  -44.5470 H         1 UNK         0.0600 
    189 H189       -2.3277  -12.7314  -45.5542 H         1 UNK         0.3000 
    190 H190       -1.6852  -19.4740  -46.1594 H         1 UNK         0.3000 
    191 H191       -3.3439  -19.3357  -48.4458 H         1 UNK         0.0600 
    192 H192       -2.7645  -17.3936  -46.9673 H         1 UNK         0.0600 
    193 H193       -4.5005  -17.5514  -47.1810 H         1 UNK         0.0600 
    194 H194       -3.7463  -18.0718  -45.6792 H         1 UNK         0.0600 
    195 H195       -4.0152  -20.6133  -45.1416 H         1 UNK         0.3000 
    196 H196       -6.7305  -21.2610  -45.5577 H         1 UNK         0.0600 
    197 H197       -6.4527  -22.6637  -43.5179 H         1 UNK         0.0600 
    198 H198       -5.6846  -21.0971  -43.3138 H         1 UNK         0.0600 
    199 H199       -4.7042  -22.5259  -43.6401 H         1 UNK         0.0600 
    200 H200       -3.7879  -23.2285  -46.0942 H         1 UNK         0.3000 
    201 H201       -5.1900  -25.5691  -47.0759 H         1 UNK         0.0600 
    202 H202       -2.8846  -26.2813  -47.7135 H         1 UNK         0.0600 
    203 H203       -2.9088  -25.6692  -46.0671 H         1 UNK         0.0600 
    204 H204       -2.2712  -24.6667  -47.3685 H         1 UNK         0.0600 
    205 H205       -4.5355  -22.5076  -48.4425 H         1 UNK         0.3000 
    206 H206       -4.5478  -21.5428  -50.4225 H         1 UNK         0.0600 
    207 H207       -6.8729  -22.3158  -50.4946 H         1 UNK         0.0600 
    208 H208       -6.2032  -22.3802  -52.1162 H         1 UNK         0.0600 
    209 H209       -6.3948  -23.8608  -51.1868 H         1 UNK         0.0600 
    210 H210       -2.2645  -22.9528  -49.9346 H         1 UNK         0.3000 
    211 H211       -0.4355  -23.9483  -50.7235 H         1 UNK         0.0600 
    212 H212       -1.3212  -22.9174  -53.4676 H         1 UNK         0.0600 
    213 H213        0.3097  -23.3903  -53.0168 H         1 UNK         0.0600 
    214 H214       -0.4324  -21.9862  -52.2792 H         1 UNK         0.0600 
    215 H215       -2.5798  -25.6505  -50.3429 H         1 UNK         0.3000 
    216 H216       -3.2804  -27.7268  -50.5358 H         1 UNK         0.0600 
    217 H217       -2.0289  -29.4802  -51.7018 H         1 UNK         0.0600 
    218 H218       -0.9053  -28.4573  -50.8208 H         1 UNK         0.0600 
    219 H219       -1.0629  -28.2999  -52.5700 H         1 UNK         0.0600 
    220 H220       -4.7422  -25.9312  -51.5829 H         1 UNK         0.3000 
    221 H221       -6.4294  -25.3943  -52.9128 H         1 UNK         0.0600 
    222 H222       -6.4450  -28.3551  -53.6890 H         1 UNK         0.0600 
    223 H223       -7.1882  -27.6703  -52.2443 H         1 UNK         0.0600 
    224 H224       -7.7919  -27.2337  -53.8337 H         1 UNK         0.0600 
    225 H225       -4.2041  -24.4740  -54.0242 H         1 UNK         0.3000 
    226 H226       -4.0666  -25.1606  -56.8908 H         1 UNK         0.0600 
    227 H227       -1.9945  -24.5879  -55.5430 H         1 UNK         0.0600 
    228 H228       -2.2412  -23.5189  -56.9173 H         1 UNK         0.0600 
    229 H229       -2.6435  -22.9655  -55.2984 H         1 UNK         0.0600 
    230 H230       -4.9541  -23.9145  -58.5001 H         1 UNK         0.3000 
    231 H231       -7.0824  -22.0948  -57.9610 H         1 UNK         0.0600 
    232 H232       -5.5822  -22.7150  -60.5634 H         1 UNK         0.0600 
    233 H233       -7.1309  -21.8880  -60.4501 H         1 UNK         0.0600 
    234 H234       -7.0035  -23.5687  -59.9598 H         1 UNK         0.0600 
    235 H235       -3.7001  -21.5488  -58.1239 H         1 UNK         0.3000 
    236 H236       -3.5961  -18.8880  -59.1310 H         1 UNK         0.0600 
    237 H237       -1.6293  -20.4018  -59.0566 H         1 UNK         0.0600 
    238 H238       -1.2939  -18.9325  -58.1553 H         1 UNK         0.0600 
    239 H239       -1.6750  -20.4175  -57.2925 H         1 UNK         0.0600 
    240 H240       -4.3581  -20.1314  -55.8927 H         1 UNK         0.3000 
    241 H241       -5.0688  -17.4789  -55.0031 H         1 UNK         0.0600 
    242 H242       -6.8519  -20.6305  -53.4539 H         1 UNK         0.3800 
    243 H243       -5.7967  -20.8618  -54.8093 H         1 UNK         0.3800 
    244 H244       -2.7029  -17.2858  -54.5084 H         1 UNK         0.0800 
    245 H245       -3.5851  -17.3473  -53.0215 H         1 UNK         0.0800 
    246 H246       -3.6333  -19.0841  -51.3947 H         1 UNK         0.0800 
    247 H247       -2.6343  -20.5063  -51.3307 H         1 UNK         0.0800 
@<TRIPOS>BOND
     1    1    2 1    
     2    1  127 1    
     3    1  128 1    
     4    1  129 1    
     5    2    3 2    
     6    2    4 am   BACKBONE|DICT|INTERRES
     7    4    5 1    
     8    4  130 1    
     9    5    6 1    
    10    5   65 1    
    11    5  131 1    
    12    6    7 1    
    13    6  132 1    
    14    6  133 1    
    15    7    8 1    
    16    8    9 1    
    17    8  134 1    
    18    8  135 1    
    19    9   10 ar   
    20    9   14 ar   
    21   10   11 ar   
    22   10  136 1    
    23   11   12 ar   
    24   11  126 1    
    25   12   13 ar   
    26   12  137 1    
    27   13   14 ar   
    28   13   15 1    
    29   14  138 1    
    30   15   16 1    
    31   15  139 1    
    32   15  140 1    
    33   16   17 1    
    34   17   18 1    
    35   17  141 1    
    36   17  142 1    
    37   18   19 1    
    38   18   67 1    
    39   18  143 1    
    40   19   20 am   BACKBONE|DICT|INTERRES
    41   19  144 1    
    42   20   21 2    
    43   20   22 1    
    44   22   23 1    
    45   22   24 1    
    46   22  145 1    
    47   23  146 1    
    48   23  147 1    
    49   23  148 1    
    50   24   25 am   BACKBONE|DICT|INTERRES
    51   24  149 1    
    52   25   26 2    
    53   25   27 1    
    54   27   28 1    
    55   27   29 1    
    56   27  150 1    
    57   28  151 1    
    58   28  152 1    
    59   28  153 1    
    60   29   30 am   BACKBONE|DICT|INTERRES
    61   29  154 1    
    62   30   31 2    
    63   30   32 1    
    64   32   33 1    
    65   32   34 1    
    66   32  155 1    
    67   33  156 1    
    68   33  157 1    
    69   33  158 1    
    70   34   35 am   BACKBONE|DICT|INTERRES
    71   34  159 1    
    72   35   36 2    
    73   35   37 1    
    74   37   38 1    
    75   37   39 1    
    76   37  160 1    
    77   38  161 1    
    78   38  162 1    
    79   38  163 1    
    80   39   40 am   BACKBONE|DICT|INTERRES
    81   39  164 1    
    82   40   41 2    
    83   40   42 1    
    84   42   43 1    
    85   42   44 1    
    86   42  165 1    
    87   43  166 1    
    88   43  167 1    
    89   43  168 1    
    90   44   45 am   BACKBONE|DICT|INTERRES
    91   44  169 1    
    92   45   46 2    
    93   45   47 1    
    94   47   48 1    
    95   47   49 1    
    96   47  170 1    
    97   48  171 1    
    98   48  172 1    
    99   48  173 1    
   100   49   50 am   BACKBONE|DICT|INTERRES
   101   49  174 1    
   102   50   51 2    
   103   50   52 1    
   104   52   53 1    
   105   52   54 1    
   106   52  175 1    
   107   53  176 1    
   108   53  177 1    
   109   53  178 1    
   110   54   55 am   BACKBONE|DICT|INTERRES
   111   54  179 1    
   112   55   56 2    
   113   55   57 1    
   114   57   58 1    
   115   57   59 1    
   116   57  180 1    
   117   58  181 1    
   118   58  182 1    
   119   58  183 1    
   120   59   60 am   BACKBONE|DICT|INTERRES
   121   59  184 1    
   122   60   61 2    
   123   60   62 1    
   124   62   63 1    
   125   62   64 1    
   126   62  185 1    
   127   63  186 1    
   128   63  187 1    
   129   63  188 1    
   130   64   65 am   BACKBONE|DICT|INTERRES
   131   64  189 1    
   132   65   66 2    
   133   67   68 2    
   134   67   69 am   BACKBONE|DICT|INTERRES
   135   69   70 1    
   136   69  190 1    
   137   70   71 1    
   138   70   72 1    
   139   70  191 1    
   140   71  192 1    
   141   71  193 1    
   142   71  194 1    
   143   72   73 2    
   144   72   74 am   BACKBONE|DICT|INTERRES
   145   74   75 1    
   146   74  195 1    
   147   75   76 1    
   148   75   77 1    
   149   75  196 1    
   150   76  197 1    
   151   76  198 1    
   152   76  199 1    
   153   77   78 2    
   154   77   79 am   BACKBONE|DICT|INTERRES
   155   79   80 1    
   156   79  200 1    
   157   80   81 1    
   158   80   82 1    
   159   80  201 1    
   160   81  202 1    
   161   81  203 1    
   162   81  204 1    
   163   82   83 2    
   164   82   84 am   BACKBONE|DICT|INTERRES
   165   84   85 1    
   166   84  205 1    
   167   85   86 1    
   168   85   87 1    
   169   85  206 1    
   170   86  207 1    
   171   86  208 1    
   172   86  209 1    
   173   87   88 2    
   174   87   89 am   BACKBONE|DICT|INTERRES
   175   89   90 1    
   176   89  210 1    
   177   90   91 1    
   178   90   92 1    
   179   90  211 1    
   180   91  212 1    
   181   91  213 1    
   182   91  214 1    
   183   92   93 2    
   184   92   94 am   BACKBONE|DICT|INTERRES
   185   94   95 1    
   186   94  215 1    
   187   95   96 1    
   188   95   97 1    
   189   95  216 1    
   190   96  217 1    
   191   96  218 1    
   192   96  219 1    
   193   97   98 2    
   194   97   99 am   BACKBONE|DICT|INTERRES
   195   99  100 1    
   196   99  220 1    
   197  100  101 1    
   198  100  102 1    
   199  100  221 1    
   200  101  222 1    
   201  101  223 1    
   202  101  224 1    
   203  102  103 2    
   204  102  104 am   BACKBONE|DICT|INTERRES
   205  104  105 1    
   206  104  225 1    
   207  105  106 1    
   208  105  107 1    
   209  105  226 1    
   210  106  227 1    
   211  106  228 1    
   212  106  229 1    
   213  107  108 2    
   214  107  109 am   BACKBONE|DICT|INTERRES
   215  109  110 1    
   216  109  230 1    
   217  110  111 1    
   218  110  112 1    
   219  110  231 1    
   220  111  232 1    
   221  111  233 1    
   222  111  234 1    
   223  112  113 2    
   224  112  114 am   BACKBONE|DICT|INTERRES
   225  114  115 1    
   226  114  235 1    
   227  115  116 1    
   228  115  117 1    
   229  115  236 1    
   230  116  237 1    
   231  116  238 1    
   232  116  239 1    
   233  117  118 2    
   234  117  119 am   BACKBONE|DICT|INTERRES
   235  119  120 1    
   236  119  240 1    
   237  120  121 1    
   238  120  124 1    
   239  120  241 1    
   240  121  122 am   BACKBONE|DICT|INTERRES
   241  121  123 2    
   242  122  242 1    
   243  122  243 1    
   244  124  125 1    
   245  124  244 1    
   246  124  245 1    
   247  125  126 1    
   248  126  246 1    
   249  126  247 1    
@<TRIPOS>SUBSTRUCTURE
     1 UNK         1 GROUP             0       ****    0 ROOT    
