@<TRIPOS>MOLECULE
3R540
247   249    1
SMALL
USER_CHARGES


@<TRIPOS>ATOM
      1 CA         -2.2321  -20.9892  -41.1872 C.3       0 UNK        -0.1800 
      2 C          -2.5677  -19.5327  -41.4729 C.2       0 UNK         0.5000 
      3 O          -3.4009  -18.9490  -40.7799 O.2       0 UNK        -0.5000 
      4 N          -1.9148  -18.9484  -42.4837 N.am      1 UNK        -0.5000 
      5 CA         -2.0146  -17.5255  -42.8236 C.3       1 UNK         0.1400 
      6 C6         -1.9211  -17.2756  -44.3470 C.3       23 UNK        -0.0398 
      7 S7         -3.4067  -17.8729  -45.2183 S.3       23 UNK        -0.2404 
      8 C8         -2.8339  -19.4593  -45.9003 C.3       23 UNK        -0.0205 
      9 C9         -4.0069  -20.4084  -46.0902 C.ar      23 UNK        -0.0193 
     10 C10        -4.6136  -20.5648  -47.3413 C.ar      23 UNK        -0.1150 
     11 C11        -5.7126  -21.4171  -47.4930 C.ar      23 UNK        -0.0193 
     12 C12        -6.1866  -22.1327  -46.3905 C.ar      23 UNK        -0.1150 
     13 C13        -5.5838  -21.9932  -45.1385 C.ar      23 UNK        -0.0193 
     14 C14        -4.5023  -21.1190  -44.9932 C.ar      23 UNK        -0.1150 
     15 C15        -6.1099  -22.7822  -43.9475 C.3       23 UNK        -0.0205 
     16 S16        -4.8244  -23.8033  -43.1590 S.3       23 UNK        -0.2404 
     17 C17        -4.3395  -24.9435  -44.5070 C.3       23 UNK        -0.0398 
     18 CA         -3.1857  -24.4187  -45.4061 C.3       11 UNK         0.1400 
     19 N          -2.1437  -23.7313  -44.6334 N.am      11 UNK        -0.5000 
     20 C          -1.0942  -23.0683  -45.1314 C.2       10 UNK         0.5000 
     21 O          -0.7887  -23.0585  -46.3262 O.2       10 UNK        -0.5000 
     22 CA         -0.2530  -22.2945  -44.1081 C.3       10 UNK         0.1400 
     23 CB          0.3502  -23.2254  -43.0409 C.3       10 UNK        -0.1800 
     24 N           0.8262  -21.5713  -44.7713 N.am      10 UNK        -0.5000 
     25 C           1.2352  -20.3372  -44.4614 C.2       9 UNK         0.5000 
     26 O           0.6981  -19.6454  -43.5913 O.2       9 UNK        -0.5000 
     27 CA          2.4706  -19.7901  -45.2142 C.3       9 UNK         0.1400 
     28 CB          2.8160  -20.5599  -46.5090 C.3       9 UNK        -0.1800 
     29 N           2.3834  -18.3526  -45.4883 N.am      9 UNK        -0.5000 
     30 C           1.4479  -17.7376  -46.2239 C.2       8 UNK         0.5000 
     31 O           0.4923  -18.3251  -46.7341 O.2       8 UNK        -0.5000 
     32 CA          1.6264  -16.2126  -46.3869 C.3       8 UNK         0.1400 
     33 CB          2.9366  -15.8735  -47.1286 C.3       8 UNK        -0.1800 
     34 N           0.4829  -15.5476  -47.0210 N.am      8 UNK        -0.5000 
     35 C           0.0153  -15.7021  -48.2705 C.2       7 UNK         0.5000 
     36 O           0.5498  -16.3933  -49.1375 O.2       7 UNK        -0.5000 
     37 CA         -1.2561  -14.9097  -48.6151 C.3       7 UNK         0.1400 
     38 CB         -2.4770  -15.4534  -47.8559 C.3       7 UNK        -0.1800 
     39 N          -1.0673  -13.5023  -48.2785 N.am      7 UNK        -0.5000 
     40 C          -0.8019  -12.5293  -49.1604 C.2       6 UNK         0.5000 
     41 O          -0.8315  -12.6775  -50.3822 O.2       6 UNK        -0.5000 
     42 CA         -0.4073  -11.1570  -48.5748 C.3       6 UNK         0.1400 
     43 CB         -1.6467  -10.2658  -48.4032 C.3       6 UNK        -0.1800 
     44 N           0.2828  -11.2705  -47.2879 N.am      6 UNK        -0.5000 
     45 C           1.4727  -11.8616  -47.1090 C.2       5 UNK         0.5000 
     46 O           2.1906  -12.2363  -48.0361 O.2       5 UNK        -0.5000 
     47 CA          1.9330  -12.1048  -45.6582 C.3       5 UNK         0.1400 
     48 CB          3.0932  -11.1661  -45.2945 C.3       5 UNK        -0.1800 
     49 N           0.8892  -11.9731  -44.6377 N.am      5 UNK        -0.5000 
     50 C          -0.2185  -12.7152  -44.5113 C.2       4 UNK         0.5000 
     51 O          -0.5725  -13.5649  -45.3319 O.2       4 UNK        -0.5000 
     52 CA         -1.0367  -12.4743  -43.2267 C.3       4 UNK         0.1400 
     53 CB         -2.4243  -13.1369  -43.2749 C.3       4 UNK        -0.1800 
     54 N          -0.2996  -12.9638  -42.0599 N.am      4 UNK        -0.5000 
     55 C           0.7497  -12.3411  -41.5008 C.2       3 UNK         0.5000 
     56 O           1.1196  -11.2138  -41.8350 O.2       3 UNK        -0.5000 
     57 CA          1.5465  -13.0952  -40.4180 C.3       3 UNK         0.1400 
     58 CB          1.1560  -12.5952  -39.0189 C.3       3 UNK        -0.1800 
     59 N           1.3924  -14.5498  -40.4593 N.am      3 UNK        -0.5000 
     60 C           1.7844  -15.3619  -41.4516 C.2       2 UNK         0.5000 
     61 O           2.3493  -14.9776  -42.4765 O.2       2 UNK        -0.5000 
     62 CA          1.4715  -16.8629  -41.2780 C.3       2 UNK         0.1400 
     63 CB          1.3138  -17.2959  -39.8040 C.3       2 UNK        -0.1800 
     64 N           0.3006  -17.2980  -42.0436 N.am      2 UNK        -0.5000 
     65 C          -0.9266  -16.7507  -42.0591 C.2       1 UNK         0.5000 
     66 O          -1.2297  -15.7130  -41.4693 O.2       1 UNK        -0.5000 
     67 C          -2.6386  -25.5523  -46.2982 C.2       11 UNK         0.5000 
     68 O          -3.1694  -25.7810  -47.3842 O.2       11 UNK        -0.5000 
     69 N          -1.5662  -26.2139  -45.8390 N.am      12 UNK        -0.5000 
     70 CA         -0.8490  -27.2572  -46.5748 C.3       12 UNK         0.1400 
     71 CB          0.0841  -27.9994  -45.6060 C.3       12 UNK        -0.1800 
     72 C          -0.0535  -26.7126  -47.7779 C.2       12 UNK         0.5000 
     73 O           0.1267  -27.4355  -48.7584 O.2       12 UNK        -0.5000 
     74 N           0.3991  -25.4540  -47.6873 N.am      13 UNK        -0.5000 
     75 CA          1.0778  -24.7381  -48.7685 C.3       13 UNK         0.1400 
     76 CB          2.0520  -23.7175  -48.1634 C.3       13 UNK        -0.1800 
     77 C           0.0832  -24.0319  -49.7066 C.2       13 UNK         0.5000 
     78 O           0.4554  -23.7065  -50.8318 O.2       13 UNK        -0.5000 
     79 N          -1.1486  -23.7967  -49.2291 N.am      14 UNK        -0.5000 
     80 CA         -2.2830  -23.2032  -49.9434 C.3       14 UNK         0.1400 
     81 CB         -2.7477  -24.1432  -51.0729 C.3       14 UNK        -0.1800 
     82 C          -2.0021  -21.7683  -50.4353 C.2       14 UNK         0.5000 
     83 O          -2.3727  -21.4123  -51.5579 O.2       14 UNK        -0.5000 
     84 N          -1.3209  -20.9864  -49.5824 N.am      15 UNK        -0.5000 
     85 CA         -0.8156  -19.6328  -49.8394 C.3       15 UNK         0.1400 
     86 CB         -1.9791  -18.6466  -50.0354 C.3       15 UNK        -0.1800 
     87 C           0.1941  -19.6309  -51.0053 C.2       15 UNK         0.5000 
     88 O          -0.0416  -19.0226  -52.0545 O.2       15 UNK        -0.5000 
     89 N           1.2704  -20.4109  -50.8159 N.am      16 UNK        -0.5000 
     90 CA          2.3714  -20.6612  -51.7582 C.3       16 UNK         0.1400 
     91 CB          3.2014  -19.3760  -51.9566 C.3       16 UNK        -0.1800 
     92 C           1.9215  -21.2807  -53.1017 C.2       16 UNK         0.5000 
     93 O           2.6373  -21.1697  -54.0982 O.2       16 UNK        -0.5000 
     94 N           0.7317  -21.8999  -53.1006 N.am      17 UNK        -0.5000 
     95 CA         -0.0052  -22.4647  -54.2311 C.3       17 UNK         0.1400 
     96 CB          0.6850  -23.7500  -54.7293 C.3       17 UNK        -0.1800 
     97 C          -0.2738  -21.4473  -55.3623 C.2       17 UNK         0.5000 
     98 O          -0.3721  -21.8467  -56.5242 O.2       17 UNK        -0.5000 
     99 N          -0.3739  -20.1550  -55.0155 N.am      18 UNK        -0.5000 
    100 CA        -0.4511  -19.0626  -55.9857 C.3       18 UNK         0.1400 
    101 CB         0.9679  -18.5815  -56.3348 C.3       18 UNK        -0.1800 
    102 C         -1.3180  -17.8933  -55.5035 C.2       18 UNK         0.5000 
    103 O         -2.0829  -17.3519  -56.3024 O.2       18 UNK        -0.5000 
    104 N         -1.2001  -17.5128  -54.2234 N.am      19 UNK        -0.5000 
    105 CA        -1.9193  -16.3690  -53.6515 C.3       19 UNK         0.1400 
    106 CB        -1.0673  -15.7413  -52.5387 C.3       19 UNK        -0.1800 
    107 C         -3.3406  -16.7228  -53.1671 C.2       19 UNK         0.5000 
    108 O         -4.0998  -15.8196  -52.8138 O.2       19 UNK        -0.5000 
    109 N         -3.6875  -18.0147  -53.1886 N.am      20 UNK        -0.5000 
    110 CA        -5.0309  -18.5342  -52.9519 C.3       20 UNK         0.1400 
    111 CB        -5.2757  -18.8008  -51.4567 C.3       20 UNK        -0.1800 
    112 C         -5.2313  -19.7994  -53.7922 C.2       20 UNK         0.5000 
    113 O         -6.2164  -19.8810  -54.5259 O.2       20 UNK        -0.5000 
    114 N         -4.2761  -20.7414  -53.6960 N.am      21 UNK        -0.5000 
    115 CA        -4.2289  -22.0117  -54.4315 C.3       21 UNK         0.1400 
    116 CB        -4.0304  -21.7653  -55.9418 C.3       21 UNK        -0.1800 
    117 C         -5.4294  -22.9298  -54.1156 C.2       21 UNK         0.5000 
    118 O         -5.9682  -23.5873  -55.0072 O.2       21 UNK        -0.5000 
    119 N         -5.8230  -22.9466  -52.8367 N.am      22 UNK        -0.5000 
    120 CA        -6.9426  -23.7244  -52.2837 C.3       22 UNK         0.1400 
    121 C         -6.7508  -25.2721  -52.2346 C.2       22 UNK         0.5000 
    122 N         -5.5860  -25.8180  -52.5613 N.am      22 UNK        -0.7600 
    123 O         -7.6884  -25.9953  -51.9087 O.2       22 UNK        -0.5000 
    124 C124       -7.3985  -23.1497  -50.9171 C.3       23 UNK        -0.0398 
    125 S125       -6.0906  -23.1324  -49.6370 S.3       23 UNK        -0.2404 
    126 C126       -6.4281  -21.5395  -48.8290 C.3       23 UNK        -0.0205 
    127 H127       -2.7675  -21.6442  -41.8740 H         1 UNK         0.0600 
    128 H128       -1.1617  -21.1694  -41.2871 H         1 UNK         0.0600 
    129 H129       -2.5199  -21.2559  -40.1701 H         1 UNK         0.0600 
    130 H130       -1.1806  -19.4545  -42.9661 H         1 UNK         0.3000 
    131 H131       -2.9770  -17.1340  -42.4861 H         1 UNK         0.0600 
    132 H132       -1.0341  -17.7494  -44.7613 H         1 UNK         0.0800 
    133 H133       -1.8250  -16.2105  -44.5618 H         1 UNK         0.0800 
    134 H134       -2.1057  -19.9151  -45.2290 H         1 UNK         0.0800 
    135 H135       -2.3131  -19.2838  -46.8426 H         1 UNK         0.0800 
    136 H136       -4.2489  -20.0063  -48.1901 H         1 UNK         0.1150 
    137 H137       -7.0331  -22.7942  -46.5111 H         1 UNK         0.1150 
    138 H138       -4.0425  -20.9939  -44.0234 H         1 UNK         0.1150 
    139 H139       -6.5043  -22.0820  -43.2102 H         1 UNK         0.0800 
    140 H140       -6.9426  -23.4243  -44.2388 H         1 UNK         0.0800 
    141 H141       -4.0511  -25.8811  -44.0279 H         1 UNK         0.0800 
    142 H142       -5.2161  -25.1751  -45.1147 H         1 UNK         0.0800 
    143 H143       -3.6015  -23.6750  -46.0878 H         1 UNK         0.0600 
    144 H144       -2.3233  -23.6867  -43.6406 H         1 UNK         0.3000 
    145 H145       -0.9304  -21.5869  -43.6313 H         1 UNK         0.0600 
    146 H146        0.9475  -22.6624  -42.3233 H         1 UNK         0.0600 
    147 H147       -0.4234  -23.7427  -42.4726 H         1 UNK         0.0600 
    148 H148        0.9952  -23.9829  -43.4880 H         1 UNK         0.0600 
    149 H149        1.2484  -22.0514  -45.5528 H         1 UNK         0.3000 
    150 H150        3.3098  -19.9126  -44.5285 H         1 UNK         0.0600 
    151 H151        3.0938  -21.5920  -46.2937 H         1 UNK         0.0600 
    152 H152        3.6674  -20.1064  -47.0169 H         1 UNK         0.0600 
    153 H153        1.9823  -20.5699  -47.2120 H         1 UNK         0.0600 
    154 H154        3.1097  -17.7903  -45.0686 H         1 UNK         0.3000 
    155 H155        1.6872  -15.7923  -45.3815 H         1 UNK         0.0600 
    156 H156        3.0309  -14.8017  -47.2994 H         1 UNK         0.0600 
    157 H157        2.9943  -16.3701  -48.0976 H         1 UNK         0.0600 
    158 H158        3.8091  -16.1841  -46.5535 H         1 UNK         0.0600 
    159 H159       -0.0344  -14.9292  -46.4010 H         1 UNK         0.3000 
    160 H160       -1.4473  -15.0287  -49.6824 H         1 UNK         0.0600 
    161 H161       -2.5890  -16.5275  -48.0046 H         1 UNK         0.0600 
    162 H162       -3.3951  -14.9793  -48.2024 H         1 UNK         0.0600 
    163 H163       -2.3987  -15.2782  -46.7828 H         1 UNK         0.0600 
    164 H164       -0.9842  -13.2907  -47.2905 H         1 UNK         0.3000 
    165 H165        0.2701  -10.6745  -49.2825 H         1 UNK         0.0600 
    166 H166       -2.3531  -10.6912  -47.6892 H         1 UNK         0.0600 
    167 H167       -1.3721   -9.2706  -48.0532 H         1 UNK         0.0600 
    168 H168       -2.1721  -10.1425  -49.3511 H         1 UNK         0.0600 
    169 H169       -0.2279  -10.9761  -46.4690 H         1 UNK         0.3000 
    170 H170        2.3000  -13.1315  -45.6097 H         1 UNK         0.0600 
    171 H171        3.9154  -11.2627  -46.0049 H         1 UNK         0.0600 
    172 H172        2.7788  -10.1217  -45.2948 H         1 UNK         0.0600 
    173 H173        3.4918  -11.3969  -44.3062 H         1 UNK         0.0600 
    174 H174        1.1008  -11.3439  -43.8702 H         1 UNK         0.3000 
    175 H175       -1.1902  -11.3979  -43.1259 H         1 UNK         0.0600 
    176 H176       -3.0074  -12.7579  -44.1151 H         1 UNK         0.0600 
    177 H177       -2.3570  -14.2179  -43.3873 H         1 UNK         0.0600 
    178 H178       -2.9904  -12.9313  -42.3664 H         1 UNK         0.0600 
    179 H179       -0.5337  -13.9008  -41.7432 H         1 UNK         0.3000 
    180 H180        2.6026  -12.8702  -40.5798 H         1 UNK         0.0600 
    181 H181        1.2886  -11.5154  -38.9377 H         1 UNK         0.0600 
    182 H182        0.1124  -12.8159  -38.7905 H         1 UNK         0.0600 
    183 H183        1.7743  -13.0551  -38.2477 H         1 UNK         0.0600 
    184 H184        0.8984  -14.9652  -39.6829 H         1 UNK         0.3000 
    185 H185        2.3265  -17.4021  -41.6887 H         1 UNK         0.0600 
    186 H186        2.1724  -16.9860  -39.2067 H         1 UNK         0.0600 
    187 H187        0.4167  -16.8803  -39.3438 H         1 UNK         0.0600 
    188 H188        1.2456  -18.3812  -39.7266 H         1 UNK         0.0600 
    189 H189        0.4449  -18.1475  -42.5857 H         1 UNK         0.3000 
    190 H190       -1.1975  -25.9614  -44.9338 H         1 UNK         0.3000 
    191 H191       -1.5816  -27.9707  -46.9583 H         1 UNK         0.0600 
    192 H192        0.6175  -28.8026  -46.1161 H         1 UNK         0.0600 
    193 H193       -0.4759  -28.4520  -44.7874 H         1 UNK         0.0600 
    194 H194        0.8310  -27.3318  -45.1744 H         1 UNK         0.0600 
    195 H195        0.1667  -24.9083  -46.8680 H         1 UNK         0.3000 
    196 H196        1.6568  -25.4440  -49.3678 H         1 UNK         0.0600 
    197 H197        2.6206  -23.2093  -48.9432 H         1 UNK         0.0600 
    198 H198        2.7696  -24.1997  -47.4994 H         1 UNK         0.0600 
    199 H199        1.5235  -22.9552  -47.5936 H         1 UNK         0.0600 
    200 H200       -1.3235  -24.0434  -48.2640 H         1 UNK         0.3000 
    201 H201       -3.0933  -23.1248  -49.2175 H         1 UNK         0.0600 
    202 H202       -2.9621  -25.1409  -50.6893 H         1 UNK         0.0600 
    203 H203       -2.0011  -24.2367  -51.8619 H         1 UNK         0.0600 
    204 H204       -3.6611  -23.7717  -51.5292 H         1 UNK         0.0600 
    205 H205       -1.0636  -21.3891  -48.6916 H         1 UNK         0.3000 
    206 H206       -0.2699  -19.3254  -48.9487 H         1 UNK         0.0600 
    207 H207       -2.7083  -18.7199  -49.2316 H         1 UNK         0.0600 
    208 H208       -1.6219  -17.6207  -50.0475 H         1 UNK         0.0600 
    209 H209       -2.4913  -18.8229  -50.9761 H         1 UNK         0.0600 
    210 H210        1.3343  -20.9123  -49.9427 H         1 UNK         0.3000 
    211 H211        3.0147  -21.4043  -51.2850 H         1 UNK         0.0600 
    212 H212        2.6375  -18.6101  -52.4903 H         1 UNK         0.0600 
    213 H213        4.1059  -19.5763  -52.5319 H         1 UNK         0.0600 
    214 H214        3.5135  -18.9564  -51.0002 H         1 UNK         0.0600 
    215 H215        0.2740  -22.0015  -52.2032 H         1 UNK         0.3000 
    216 H216       -0.9817  -22.7468  -53.8377 H         1 UNK         0.0600 
    217 H217        0.8457  -24.4509  -53.9098 H         1 UNK         0.0600 
    218 H218        1.6529  -23.5374  -55.1842 H         1 UNK         0.0600 
    219 H219        0.0754  -24.2605  -55.4758 H         1 UNK         0.0600 
    220 H220       -0.2837  -19.9051  -54.0375 H         1 UNK         0.3000 
    221 H221       -0.9200  -19.4249  -56.9033 H         1 UNK         0.0600 
    222 H222        1.5049  -18.2419  -55.4481 H         1 UNK         0.0600 
    223 H223        1.5529  -19.3798  -56.7919 H         1 UNK         0.0600 
    224 H224        0.9396  -17.7525  -57.0430 H         1 UNK         0.0600 
    225 H225       -0.5835  -18.0095  -53.5856 H         1 UNK         0.3000 
    226 H226       -2.0418  -15.6051  -54.4224 H         1 UNK         0.0600 
    227 H227       -0.1281  -15.3570  -52.9364 H         1 UNK         0.0600 
    228 H228       -1.5852  -14.9025  -52.0726 H         1 UNK         0.0600 
    229 H229       -0.8219  -16.4580  -51.7586 H         1 UNK         0.0600 
    230 H230       -3.0084  -18.6752  -53.5371 H         1 UNK         0.3000 
    231 H231       -5.7598  -17.7960  -53.2940 H         1 UNK         0.0600 
    232 H232       -4.6515  -19.6103  -51.0784 H         1 UNK         0.0600 
    233 H233       -5.0768  -17.9131  -50.8562 H         1 UNK         0.0600 
    234 H234       -6.3150  -19.0825  -51.2855 H         1 UNK         0.0600 
    235 H235       -3.5545  -20.6413  -52.9873 H         1 UNK         0.3000 
    236 H236       -3.3467  -22.5384  -54.0674 H         1 UNK         0.0600 
    237 H237       -3.1988  -21.0861  -56.1272 H         1 UNK         0.0600 
    238 H238       -3.8104  -22.6976  -56.4630 H         1 UNK         0.0600 
    239 H239       -4.9195  -21.3352  -56.4036 H         1 UNK         0.0600 
    240 H240       -5.3181  -22.3792  -52.1724 H         1 UNK         0.3000 
    241 H241       -7.7777  -23.5778  -52.9713 H         1 UNK         0.0600 
    242 H242       -4.8142  -25.2443  -52.8547 H         1 UNK         0.3800 
    243 H243       -5.4848  -26.8201  -52.5303 H         1 UNK         0.3800 
    244 H244       -8.2557  -23.7029  -50.5294 H         1 UNK         0.0800 
    245 H245       -7.7576  -22.1310  -51.0697 H         1 UNK         0.0800 
    246 H246       -6.1396  -20.7281  -49.4955 H         1 UNK         0.0800 
    247 H247       -7.5017  -21.4362  -48.6635 H         1 UNK         0.0800 
@<TRIPOS>BOND
     1    1    2 1    
     2    1  127 1    
     3    1  128 1    
     4    1  129 1    
     5    2    3 2    
     6    2    4 am   BACKBONE|DICT|INTERRES
     7    4    5 1    
     8    4  130 1    
     9    5    6 1    
    10    5   65 1    
    11    5  131 1    
    12    6    7 1    
    13    6  132 1    
    14    6  133 1    
    15    7    8 1    
    16    8    9 1    
    17    8  134 1    
    18    8  135 1    
    19    9   10 ar   
    20    9   14 ar   
    21   10   11 ar   
    22   10  136 1    
    23   11   12 ar   
    24   11  126 1    
    25   12   13 ar   
    26   12  137 1    
    27   13   14 ar   
    28   13   15 1    
    29   14  138 1    
    30   15   16 1    
    31   15  139 1    
    32   15  140 1    
    33   16   17 1    
    34   17   18 1    
    35   17  141 1    
    36   17  142 1    
    37   18   19 1    
    38   18   67 1    
    39   18  143 1    
    40   19   20 am   BACKBONE|DICT|INTERRES
    41   19  144 1    
    42   20   21 2    
    43   20   22 1    
    44   22   23 1    
    45   22   24 1    
    46   22  145 1    
    47   23  146 1    
    48   23  147 1    
    49   23  148 1    
    50   24   25 am   BACKBONE|DICT|INTERRES
    51   24  149 1    
    52   25   26 2    
    53   25   27 1    
    54   27   28 1    
    55   27   29 1    
    56   27  150 1    
    57   28  151 1    
    58   28  152 1    
    59   28  153 1    
    60   29   30 am   BACKBONE|DICT|INTERRES
    61   29  154 1    
    62   30   31 2    
    63   30   32 1    
    64   32   33 1    
    65   32   34 1    
    66   32  155 1    
    67   33  156 1    
    68   33  157 1    
    69   33  158 1    
    70   34   35 am   BACKBONE|DICT|INTERRES
    71   34  159 1    
    72   35   36 2    
    73   35   37 1    
    74   37   38 1    
    75   37   39 1    
    76   37  160 1    
    77   38  161 1    
    78   38  162 1    
    79   38  163 1    
    80   39   40 am   BACKBONE|DICT|INTERRES
    81   39  164 1    
    82   40   41 2    
    83   40   42 1    
    84   42   43 1    
    85   42   44 1    
    86   42  165 1    
    87   43  166 1    
    88   43  167 1    
    89   43  168 1    
    90   44   45 am   BACKBONE|DICT|INTERRES
    91   44  169 1    
    92   45   46 2    
    93   45   47 1    
    94   47   48 1    
    95   47   49 1    
    96   47  170 1    
    97   48  171 1    
    98   48  172 1    
    99   48  173 1    
   100   49   50 am   BACKBONE|DICT|INTERRES
   101   49  174 1    
   102   50   51 2    
   103   50   52 1    
   104   52   53 1    
   105   52   54 1    
   106   52  175 1    
   107   53  176 1    
   108   53  177 1    
   109   53  178 1    
   110   54   55 am   BACKBONE|DICT|INTERRES
   111   54  179 1    
   112   55   56 2    
   113   55   57 1    
   114   57   58 1    
   115   57   59 1    
   116   57  180 1    
   117   58  181 1    
   118   58  182 1    
   119   58  183 1    
   120   59   60 am   BACKBONE|DICT|INTERRES
   121   59  184 1    
   122   60   61 2    
   123   60   62 1    
   124   62   63 1    
   125   62   64 1    
   126   62  185 1    
   127   63  186 1    
   128   63  187 1    
   129   63  188 1    
   130   64   65 am   BACKBONE|DICT|INTERRES
   131   64  189 1    
   132   65   66 2    
   133   67   68 2    
   134   67   69 am   BACKBONE|DICT|INTERRES
   135   69   70 1    
   136   69  190 1    
   137   70   71 1    
   138   70   72 1    
   139   70  191 1    
   140   71  192 1    
   141   71  193 1    
   142   71  194 1    
   143   72   73 2    
   144   72   74 am   BACKBONE|DICT|INTERRES
   145   74   75 1    
   146   74  195 1    
   147   75   76 1    
   148   75   77 1    
   149   75  196 1    
   150   76  197 1    
   151   76  198 1    
   152   76  199 1    
   153   77   78 2    
   154   77   79 am   BACKBONE|DICT|INTERRES
   155   79   80 1    
   156   79  200 1    
   157   80   81 1    
   158   80   82 1    
   159   80  201 1    
   160   81  202 1    
   161   81  203 1    
   162   81  204 1    
   163   82   83 2    
   164   82   84 am   BACKBONE|DICT|INTERRES
   165   84   85 1    
   166   84  205 1    
   167   85   86 1    
   168   85   87 1    
   169   85  206 1    
   170   86  207 1    
   171   86  208 1    
   172   86  209 1    
   173   87   88 2    
   174   87   89 am   BACKBONE|DICT|INTERRES
   175   89   90 1    
   176   89  210 1    
   177   90   91 1    
   178   90   92 1    
   179   90  211 1    
   180   91  212 1    
   181   91  213 1    
   182   91  214 1    
   183   92   93 2    
   184   92   94 am   BACKBONE|DICT|INTERRES
   185   94   95 1    
   186   94  215 1    
   187   95   96 1    
   188   95   97 1    
   189   95  216 1    
   190   96  217 1    
   191   96  218 1    
   192   96  219 1    
   193   97   98 2    
   194   97   99 am   BACKBONE|DICT|INTERRES
   195   99  100 1    
   196   99  220 1    
   197  100  101 1    
   198  100  102 1    
   199  100  221 1    
   200  101  222 1    
   201  101  223 1    
   202  101  224 1    
   203  102  103 2    
   204  102  104 am   BACKBONE|DICT|INTERRES
   205  104  105 1    
   206  104  225 1    
   207  105  106 1    
   208  105  107 1    
   209  105  226 1    
   210  106  227 1    
   211  106  228 1    
   212  106  229 1    
   213  107  108 2    
   214  107  109 am   BACKBONE|DICT|INTERRES
   215  109  110 1    
   216  109  230 1    
   217  110  111 1    
   218  110  112 1    
   219  110  231 1    
   220  111  232 1    
   221  111  233 1    
   222  111  234 1    
   223  112  113 2    
   224  112  114 am   BACKBONE|DICT|INTERRES
   225  114  115 1    
   226  114  235 1    
   227  115  116 1    
   228  115  117 1    
   229  115  236 1    
   230  116  237 1    
   231  116  238 1    
   232  116  239 1    
   233  117  118 2    
   234  117  119 am   BACKBONE|DICT|INTERRES
   235  119  120 1    
   236  119  240 1    
   237  120  121 1    
   238  120  124 1    
   239  120  241 1    
   240  121  122 am   BACKBONE|DICT|INTERRES
   241  121  123 2    
   242  122  242 1    
   243  122  243 1    
   244  124  125 1    
   245  124  244 1    
   246  124  245 1    
   247  125  126 1    
   248  126  246 1    
   249  126  247 1    
@<TRIPOS>SUBSTRUCTURE
     1 UNK         1 GROUP             0       ****    0 ROOT    
