@<TRIPOS>MOLECULE
3R540
247   249    1
SMALL
USER_CHARGES


@<TRIPOS>ATOM
      1 CA          3.6877  -20.2322  -46.5669 C.3       0 UNK        -0.1800 
      2 C           3.4913  -18.7633  -46.2231 C.2       0 UNK         0.5000 
      3 O           3.3028  -18.4285  -45.0550 O.2       0 UNK        -0.5000 
      4 N           3.5604  -17.8812  -47.2313 N.am      1 UNK        -0.5000 
      5 CA          3.3236  -16.4320  -47.1135 C.3       1 UNK         0.1400 
      6 C6          3.2449  -15.7457  -48.5033 C.3       23 UNK        -0.0398 
      7 S7          1.9596  -14.4475  -48.5884 S.3       23 UNK        -0.2404 
      8 C8          1.6524  -14.3197  -50.3843 C.3       23 UNK        -0.0205 
      9 C9          0.5780  -15.2917  -50.8543 C.ar      23 UNK        -0.0193 
     10 C10        -0.7419  -14.8661  -51.0347 C.ar      23 UNK        -0.1150 
     11 C11        -1.7287  -15.7657  -51.4543 C.ar      23 UNK        -0.0193 
     12 C12        -1.3985  -17.1117  -51.6393 C.ar      23 UNK        -0.1150 
     13 C13        -0.0834  -17.5495  -51.4608 C.ar      23 UNK        -0.0193 
     14 C14         0.9037  -16.6230  -51.1158 C.ar      23 UNK        -0.1150 
     15 C15         0.2601  -19.0272  -51.6157 C.3       23 UNK        -0.0205 
     16 S16         1.3766  -19.6423  -50.3076 S.3       23 UNK        -0.2404 
     17 C17         0.4194  -19.2346  -48.8080 C.3       23 UNK        -0.0398 
     18 CA          0.1960  -20.4631  -47.9033 C.3       11 UNK         0.1400 
     19 N          -0.1058  -20.0664  -46.5287 N.am      11 UNK        -0.5000 
     20 C          -0.1873  -20.9114  -45.4931 C.2       10 UNK         0.5000 
     21 O           0.0406  -22.1182  -45.5702 O.2       10 UNK        -0.5000 
     22 CA         -0.6548  -20.3121  -44.1590 C.3       10 UNK         0.1400 
     23 CB          0.5175  -19.6684  -43.4047 C.3       10 UNK        -0.1800 
     24 N          -1.7348  -19.3416  -44.3504 N.am      10 UNK        -0.5000 
     25 C          -2.9776  -19.6761  -44.7286 C.2       9 UNK         0.5000 
     26 O          -3.3500  -20.8374  -44.8940 O.2       9 UNK        -0.5000 
     27 CA         -3.9549  -18.5235  -45.0194 C.3       9 UNK         0.1400 
     28 CB         -4.6292  -18.0346  -43.7294 C.3       9 UNK        -0.1800 
     29 N          -3.3109  -17.4000  -45.7010 N.am      9 UNK        -0.5000 
     30 C          -2.8750  -17.4490  -46.9692 C.2       8 UNK         0.5000 
     31 O          -2.9760  -18.4426  -47.6856 O.2       8 UNK        -0.5000 
     32 CA         -2.1725  -16.1989  -47.5276 C.3       8 UNK         0.1400 
     33 CB         -3.2084  -15.2376  -48.1243 C.3       8 UNK        -0.1800 
     34 N          -1.3782  -15.4771  -46.5373 N.am      8 UNK        -0.5000 
     35 C          -0.3937  -15.9943  -45.7928 C.2       7 UNK         0.5000 
     36 O          -0.0249  -17.1681  -45.8665 O.2       7 UNK        -0.5000 
     37 CA          0.2592  -15.0542  -44.7611 C.3       7 UNK         0.1400 
     38 CB         -0.0049  -13.5553  -45.0243 C.3       7 UNK        -0.1800 
     39 N          -0.1202  -15.3958  -43.3899 N.am      7 UNK        -0.5000 
     40 C          -1.3523  -15.5333  -42.8763 C.2       6 UNK         0.5000 
     41 O          -2.3886  -15.4357  -43.5350 O.2       6 UNK        -0.5000 
     42 CA         -1.4435  -15.8119  -41.3657 C.3       6 UNK         0.1400 
     43 CB         -1.2853  -17.3113  -41.0778 C.3       6 UNK        -0.1800 
     44 N          -0.4066  -15.0858  -40.6329 N.am      6 UNK        -0.5000 
     45 C          -0.6183  -14.0861  -39.7676 C.2       5 UNK         0.5000 
     46 O          -1.7358  -13.6929  -39.4303 O.2       5 UNK        -0.5000 
     47 CA          0.6338  -13.3984  -39.1813 C.3       5 UNK         0.1400 
     48 CB          1.0231  -14.0432  -37.8424 C.3       5 UNK        -0.1800 
     49 N           1.7884  -13.4389  -40.0824 N.am      5 UNK        -0.5000 
     50 C           1.8564  -12.8059  -41.2612 C.2       4 UNK         0.5000 
     51 O           0.9958  -12.0201  -41.6584 O.2       4 UNK        -0.5000 
     52 CA          3.0695  -13.1058  -42.1655 C.3       4 UNK         0.1400 
     53 CB          4.0613  -11.9331  -42.1369 C.3       4 UNK        -0.1800 
     54 N           3.8065  -14.3449  -41.8904 N.am      4 UNK        -0.5000 
     55 C           3.3185  -15.5920  -41.8571 C.2       3 UNK         0.5000 
     56 O           2.1159  -15.8575  -41.8540 O.2       3 UNK        -0.5000 
     57 CA          4.3642  -16.7231  -41.8876 C.3       3 UNK         0.1400 
     58 CB          3.7423  -18.1096  -41.6445 C.3       3 UNK        -0.1800 
     59 N           5.0457  -16.7221  -43.1831 N.am      3 UNK        -0.5000 
     60 C           6.0451  -15.8919  -43.5204 C.2       2 UNK         0.5000 
     61 O           6.5737  -15.1162  -42.7221 O.2       2 UNK        -0.5000 
     62 CA          6.5104  -15.8846  -44.9911 C.3       2 UNK         0.1400 
     63 CB          7.7576  -16.7645  -45.1632 C.3       2 UNK        -0.1800 
     64 N           5.4850  -16.3250  -45.9379 N.am      2 UNK        -0.5000 
     65 C           4.3171  -15.7076  -46.1736 C.2       1 UNK         0.5000 
     66 O           3.9998  -14.6334  -45.6622 O.2       1 UNK        -0.5000 
     67 C          -0.8727  -21.4186  -48.4728 C.2       11 UNK         0.5000 
     68 O          -0.5205  -22.4679  -49.0103 O.2       11 UNK        -0.5000 
     69 N          -2.1561  -21.0729  -48.2932 N.am      12 UNK        -0.5000 
     70 CA         -3.2978  -21.9048  -48.6683 C.3       12 UNK         0.1400 
     71 CB         -4.6074  -21.1385  -48.4360 C.3       12 UNK        -0.1800 
     72 C          -3.3177  -23.2526  -47.9299 C.2       12 UNK         0.5000 
     73 O          -3.5523  -24.2756  -48.5698 O.2       12 UNK        -0.5000 
     74 N          -3.0321  -23.2443  -46.6199 N.am      13 UNK        -0.5000 
     75 CA         -2.9157  -24.4508  -45.7988 C.3       13 UNK         0.1400 
     76 CB         -2.7512  -24.0663  -44.3209 C.3       13 UNK        -0.1800 
     77 C          -1.7736  -25.3751  -46.2600 C.2       13 UNK         0.5000 
     78 O          -1.9918  -26.5787  -46.4024 O.2       13 UNK        -0.5000 
     79 N          -0.5963  -24.7935  -46.5317 N.am      14 UNK        -0.5000 
     80 CA          0.5814  -25.4937  -47.0511 C.3       14 UNK         0.1400 
     81 CB          1.7855  -24.5390  -47.0480 C.3       14 UNK        -0.1800 
     82 C           0.3615  -26.0881  -48.4558 C.2       14 UNK         0.5000 
     83 O           0.8214  -27.1978  -48.7268 O.2       14 UNK        -0.5000 
     84 N          -0.3596  -25.3524  -49.3111 N.am      15 UNK        -0.5000 
     85 CA         -0.7266  -25.7569  -50.6686 C.3       15 UNK         0.1400 
     86 CB         -1.0355  -24.4936  -51.4868 C.3       15 UNK        -0.1800 
     87 C          -1.9208  -26.7303  -50.7312 C.2       15 UNK         0.5000 
     88 O          -2.2550  -27.1827  -51.8256 O.2       15 UNK        -0.5000 
     89 N          -2.5734  -27.0025  -49.5908 N.am      16 UNK        -0.5000 
     90 CA         -3.8014  -27.7951  -49.4465 C.3       16 UNK         0.1400 
     91 CB         -3.5352  -29.2830  -49.7552 C.3       16 UNK        -0.1800 
     92 C          -4.9771  -27.2033  -50.2567 C.2       16 UNK         0.5000 
     93 O          -5.6996  -27.9304  -50.9399 O.2       16 UNK        -0.5000 
     94 N          -5.1104  -25.8723  -50.1761 N.am      17 UNK        -0.5000 
     95 CA         -6.0870  -24.9942  -50.8267 C.3       17 UNK         0.1400 
     96 CB         -7.5315  -25.3862  -50.4560 C.3       17 UNK        -0.1800 
     97 C          -5.9022  -24.8257  -52.3491 C.2       17 UNK         0.5000 
     98 O          -6.6927  -24.1097  -52.9630 O.2       17 UNK        -0.5000 
     99 N          -4.8618  -25.4299  -52.9428 N.am      18 UNK        -0.5000 
    100 CA        -4.5884  -25.3604  -54.3828 C.3       18 UNK         0.1400 
    101 CB        -3.5425  -26.4211  -54.7557 C.3       18 UNK        -0.1800 
    102 C         -4.1300  -23.9674  -54.8584 C.2       18 UNK         0.5000 
    103 O         -4.3761  -23.6106  -56.0109 O.2       18 UNK        -0.5000 
    104 N         -3.4741  -23.2110  -53.9679 N.am      19 UNK        -0.5000 
    105 CA        -2.9652  -21.8636  -54.2361 C.3       19 UNK         0.1400 
    106 CB        -1.6701  -21.6564  -53.4367 C.3       19 UNK        -0.1800 
    107 C         -3.9823  -20.7540  -53.9050 C.2       19 UNK         0.5000 
    108 O         -3.7403  -19.5975  -54.2524 O.2       19 UNK        -0.5000 
    109 N         -5.0858  -21.1023  -53.2293 N.am      20 UNK        -0.5000 
    110 CA        -6.1622  -20.1761  -52.8828 C.3       20 UNK         0.1400 
    111 CB        -6.9844  -20.7837  -51.7348 C.3       20 UNK        -0.1800 
    112 C         -7.0616  -19.8963  -54.1081 C.2       20 UNK         0.5000 
    113 O         -7.1971  -20.7713  -54.9638 O.2       20 UNK        -0.5000 
    114 N         -7.7056  -18.7258  -54.2188 N.am      21 UNK        -0.5000 
    115 CA        -7.6377  -17.5588  -53.3297 C.3       21 UNK         0.1400 
    116 CB        -9.0009  -16.8483  -53.3751 C.3       21 UNK        -0.1800 
    117 C         -6.5033  -16.5777  -53.7022 C.2       21 UNK         0.5000 
    118 O         -6.3736  -15.5464  -53.0466 O.2       21 UNK        -0.5000 
    119 N         -5.7378  -16.9046  -54.7522 N.am      22 UNK        -0.5000 
    120 CA        -4.6302  -16.1426  -55.3613 C.3       22 UNK         0.1400 
    121 C         -5.0307  -14.8529  -56.1430 C.2       22 UNK         0.5000 
    122 N         -6.3093  -14.5216  -56.2744 N.am      22 UNK        -0.7600 
    123 O         -4.1706  -14.1672  -56.6896 O.2       22 UNK        -0.5000 
    124 C124       -3.3753  -15.9898  -54.4460 C.3       23 UNK        -0.0398 
    125 S125       -3.3234  -14.5255  -53.3466 S.3       23 UNK        -0.2404 
    126 C126       -3.1501  -15.2814  -51.7012 C.3       23 UNK        -0.0205 
    127 H127        3.6491  -20.4046  -47.6428 H         1 UNK         0.0600 
    128 H128        2.9099  -20.8349  -46.0981 H         1 UNK         0.0600 
    129 H129        4.6532  -20.5770  -46.1974 H         1 UNK         0.0600 
    130 H130        3.7513  -18.2210  -48.1632 H         1 UNK         0.3000 
    131 H131        2.3475  -16.3472  -46.6400 H         1 UNK         0.0600 
    132 H132        3.0131  -16.4904  -49.2593 H         1 UNK         0.0800 
    133 H133        4.2049  -15.3217  -48.8040 H         1 UNK         0.0800 
    134 H134        2.5795  -14.4858  -50.9350 H         1 UNK         0.0800 
    135 H135        1.3477  -13.2968  -50.6105 H         1 UNK         0.0800 
    136 H136       -1.0012  -13.8310  -50.8616 H         1 UNK         0.1150 
    137 H137       -2.1646  -17.8182  -51.9273 H         1 UNK         0.1150 
    138 H138        1.9253  -16.9551  -51.0219 H         1 UNK         0.1150 
    139 H139       -0.6487  -19.6290  -51.5930 H         1 UNK         0.0800 
    140 H140        0.7239  -19.1867  -52.5896 H         1 UNK         0.0800 
    141 H141       -0.5321  -18.7672  -49.0653 H         1 UNK         0.0800 
    142 H142        0.9821  -18.4695  -48.2721 H         1 UNK         0.0800 
    143 H143        1.1315  -21.0241  -47.8598 H         1 UNK         0.0600 
    144 H144       -0.2640  -19.0779  -46.3568 H         1 UNK         0.3000 
    145 H145       -1.0327  -21.1348  -43.5483 H         1 UNK         0.0600 
    146 H146        0.2677  -19.5204  -42.3562 H         1 UNK         0.0600 
    147 H147        1.4022  -20.3064  -43.4300 H         1 UNK         0.0600 
    148 H148        0.8003  -18.7044  -43.8283 H         1 UNK         0.0600 
    149 H149       -1.4816  -18.3645  -44.3182 H         1 UNK         0.3000 
    150 H150       -4.7360  -18.9124  -45.6762 H         1 UNK         0.0600 
    151 H151       -5.1476  -18.8523  -43.2271 H         1 UNK         0.0600 
    152 H152       -5.3685  -17.2619  -43.9405 H         1 UNK         0.0600 
    153 H153       -3.9083  -17.6225  -43.0245 H         1 UNK         0.0600 
    154 H154       -3.1452  -16.5625  -45.1526 H         1 UNK         0.3000 
    155 H155       -1.4972  -16.5211  -48.3230 H         1 UNK         0.0600 
    156 H156       -2.7244  -14.3946  -48.6175 H         1 UNK         0.0600 
    157 H157       -3.8766  -14.8402  -47.3593 H         1 UNK         0.0600 
    158 H158       -3.8270  -15.7439  -48.8661 H         1 UNK         0.0600 
    159 H159       -1.6298  -14.5123  -46.3806 H         1 UNK         0.3000 
    160 H160        1.3350  -15.2171  -44.8286 H         1 UNK         0.0600 
    161 H161       -1.0561  -13.2918  -44.9026 H         1 UNK         0.0600 
    162 H162        0.3000  -13.2726  -46.0329 H         1 UNK         0.0600 
    163 H163        0.5651  -12.9336  -44.3349 H         1 UNK         0.0600 
    164 H164        0.6708  -15.5762  -42.7742 H         1 UNK         0.3000 
    165 H165       -2.4388  -15.5043  -41.0388 H         1 UNK         0.0600 
    166 H166       -0.2627  -17.6385  -41.2621 H         1 UNK         0.0600 
    167 H167       -1.5197  -17.5343  -40.0370 H         1 UNK         0.0600 
    168 H168       -1.9484  -17.9147  -41.6977 H         1 UNK         0.0600 
    169 H169        0.5527  -15.3215  -40.8677 H         1 UNK         0.3000 
    170 H170        0.3819  -12.3518  -38.9981 H         1 UNK         0.0600 
    171 H171        0.1926  -14.0078  -37.1361 H         1 UNK         0.0600 
    172 H172        1.3043  -15.0898  -37.9665 H         1 UNK         0.0600 
    173 H173        1.8621  -13.5213  -37.3819 H         1 UNK         0.0600 
    174 H174        2.5407  -14.0641  -39.8338 H         1 UNK         0.3000 
    175 H175        2.6859  -13.1947  -43.1835 H         1 UNK         0.0600 
    176 H176        4.5206  -11.8213  -41.1540 H         1 UNK         0.0600 
    177 H177        4.8588  -12.0735  -42.8672 H         1 UNK         0.0600 
    178 H178        3.5658  -10.9916  -42.3779 H         1 UNK         0.0600 
    179 H179        4.8166  -14.2619  -41.9146 H         1 UNK         0.3000 
    180 H180        5.0875  -16.5368  -41.0910 H         1 UNK         0.0600 
    181 H181        2.9953  -18.3559  -42.3991 H         1 UNK         0.0600 
    182 H182        3.2502  -18.1512  -40.6721 H         1 UNK         0.0600 
    183 H183        4.5020  -18.8909  -41.6598 H         1 UNK         0.0600 
    184 H184        4.6181  -17.2934  -43.9049 H         1 UNK         0.3000 
    185 H185        6.7773  -14.8564  -45.2436 H         1 UNK         0.0600 
    186 H186        8.1473  -16.7034  -46.1796 H         1 UNK         0.0600 
    187 H187        8.5560  -16.4467  -44.4913 H         1 UNK         0.0600 
    188 H188        7.5437  -17.8120  -44.9466 H         1 UNK         0.0600 
    189 H189        5.6488  -17.2090  -46.3969 H         1 UNK         0.3000 
    190 H190       -2.3770  -20.1668  -47.8858 H         1 UNK         0.3000 
    191 H191       -3.2155  -22.1155  -49.7366 H         1 UNK         0.0600 
    192 H192       -4.7168  -20.8363  -47.3942 H         1 UNK         0.0600 
    193 H193       -5.4717  -21.7525  -48.6917 H         1 UNK         0.0600 
    194 H194       -4.6512  -20.2395  -49.0511 H         1 UNK         0.0600 
    195 H195       -2.8973  -22.3562  -46.1476 H         1 UNK         0.3000 
    196 H196       -3.8499  -25.0075  -45.8980 H         1 UNK         0.0600 
    197 H197       -2.6803  -24.9544  -43.6919 H         1 UNK         0.0600 
    198 H198       -3.6038  -23.4858  -43.9682 H         1 UNK         0.0600 
    199 H199       -1.8519  -23.4736  -44.1544 H         1 UNK         0.0600 
    200 H200       -0.4890  -23.7978  -46.3558 H         1 UNK         0.3000 
    201 H201        0.8019  -26.3207  -46.3732 H         1 UNK         0.0600 
    202 H202        2.0003  -24.1791  -46.0416 H         1 UNK         0.0600 
    203 H203        1.6115  -23.6692  -47.6823 H         1 UNK         0.0600 
    204 H204        2.6831  -25.0391  -47.4136 H         1 UNK         0.0600 
    205 H205       -0.6400  -24.4167  -49.0297 H         1 UNK         0.3000 
    206 H206        0.1271  -26.2592  -51.1279 H         1 UNK         0.0600 
    207 H207       -0.1875  -23.8085  -51.4890 H         1 UNK         0.0600 
    208 H208       -1.2526  -24.7409  -52.5265 H         1 UNK         0.0600 
    209 H209       -1.8964  -23.9588  -51.0841 H         1 UNK         0.0600 
    210 H210       -2.2429  -26.5559  -48.7449 H         1 UNK         0.3000 
    211 H211       -4.0880  -27.7227  -48.3963 H         1 UNK         0.0600 
    212 H212       -3.2903  -29.4442  -50.8053 H         1 UNK         0.0600 
    213 H213       -4.4117  -29.8908  -49.5278 H         1 UNK         0.0600 
    214 H214       -2.7100  -29.6671  -49.1555 H         1 UNK         0.0600 
    215 H215       -4.4439  -25.3776  -49.5812 H         1 UNK         0.3000 
    216 H216       -5.9060  -24.0052  -50.4032 H         1 UNK         0.0600 
    217 H217       -7.6518  -25.4738  -49.3763 H         1 UNK         0.0600 
    218 H218       -7.8242  -26.3350  -50.9062 H         1 UNK         0.0600 
    219 H219       -8.2412  -24.6327  -50.7995 H         1 UNK         0.0600 
    220 H220       -4.2542  -26.0209  -52.3901 H         1 UNK         0.3000 
    221 H221       -5.5136  -25.6004  -54.9113 H         1 UNK         0.0600 
    222 H222       -2.5738  -26.2076  -54.3030 H         1 UNK         0.0600 
    223 H223       -3.8526  -27.4152  -54.4330 H         1 UNK         0.0600 
    224 H224       -3.3957  -26.4601  -55.8358 H         1 UNK         0.0600 
    225 H225       -3.3151  -23.5861  -53.0454 H         1 UNK         0.3000 
    226 H226       -2.7201  -21.7712  -55.2962 H         1 UNK         0.0600 
    227 H227       -1.2257  -20.6884  -53.6694 H         1 UNK         0.0600 
    228 H228       -1.8471  -21.6916  -52.3610 H         1 UNK         0.0600 
    229 H229       -0.9276  -22.4152  -53.6836 H         1 UNK         0.0600 
    230 H230       -5.2691  -22.0832  -53.0760 H         1 UNK         0.3000 
    231 H231       -5.7007  -19.2517  -52.5331 H         1 UNK         0.0600 
    232 H232       -7.7559  -20.0934  -51.3928 H         1 UNK         0.0600 
    233 H233       -6.3540  -21.0157  -50.8775 H         1 UNK         0.0600 
    234 H234       -7.4853  -21.7028  -52.0404 H         1 UNK         0.0600 
    235 H235       -8.2999  -18.6028  -55.0258 H         1 UNK         0.3000 
    236 H236       -7.4740  -17.8745  -52.2990 H         1 UNK         0.0600 
    237 H237       -9.8057  -17.5212  -53.0782 H         1 UNK         0.0600 
    238 H238       -9.0261  -15.9979  -52.6922 H         1 UNK         0.0600 
    239 H239       -9.2284  -16.4739  -54.3739 H         1 UNK         0.0600 
    240 H240       -5.9546  -17.7719  -55.2218 H         1 UNK         0.3000 
    241 H241       -4.3101  -16.8115  -56.1612 H         1 UNK         0.0600 
    242 H242       -7.0288  -15.0724  -55.8356 H         1 UNK         0.3800 
    243 H243       -6.5568  -13.6965  -56.7981 H         1 UNK         0.3800 
    244 H244       -3.2424  -16.8988  -53.8603 H         1 UNK         0.0800 
    245 H245       -2.4868  -15.9294  -55.0761 H         1 UNK         0.0800 
    246 H246       -3.4168  -14.5315  -50.9566 H         1 UNK         0.0800 
    247 H247       -3.8685  -16.0949  -51.5876 H         1 UNK         0.0800 
@<TRIPOS>BOND
     1    1    2 1    
     2    1  127 1    
     3    1  128 1    
     4    1  129 1    
     5    2    3 2    
     6    2    4 am   BACKBONE|DICT|INTERRES
     7    4    5 1    
     8    4  130 1    
     9    5    6 1    
    10    5   65 1    
    11    5  131 1    
    12    6    7 1    
    13    6  132 1    
    14    6  133 1    
    15    7    8 1    
    16    8    9 1    
    17    8  134 1    
    18    8  135 1    
    19    9   10 ar   
    20    9   14 ar   
    21   10   11 ar   
    22   10  136 1    
    23   11   12 ar   
    24   11  126 1    
    25   12   13 ar   
    26   12  137 1    
    27   13   14 ar   
    28   13   15 1    
    29   14  138 1    
    30   15   16 1    
    31   15  139 1    
    32   15  140 1    
    33   16   17 1    
    34   17   18 1    
    35   17  141 1    
    36   17  142 1    
    37   18   19 1    
    38   18   67 1    
    39   18  143 1    
    40   19   20 am   BACKBONE|DICT|INTERRES
    41   19  144 1    
    42   20   21 2    
    43   20   22 1    
    44   22   23 1    
    45   22   24 1    
    46   22  145 1    
    47   23  146 1    
    48   23  147 1    
    49   23  148 1    
    50   24   25 am   BACKBONE|DICT|INTERRES
    51   24  149 1    
    52   25   26 2    
    53   25   27 1    
    54   27   28 1    
    55   27   29 1    
    56   27  150 1    
    57   28  151 1    
    58   28  152 1    
    59   28  153 1    
    60   29   30 am   BACKBONE|DICT|INTERRES
    61   29  154 1    
    62   30   31 2    
    63   30   32 1    
    64   32   33 1    
    65   32   34 1    
    66   32  155 1    
    67   33  156 1    
    68   33  157 1    
    69   33  158 1    
    70   34   35 am   BACKBONE|DICT|INTERRES
    71   34  159 1    
    72   35   36 2    
    73   35   37 1    
    74   37   38 1    
    75   37   39 1    
    76   37  160 1    
    77   38  161 1    
    78   38  162 1    
    79   38  163 1    
    80   39   40 am   BACKBONE|DICT|INTERRES
    81   39  164 1    
    82   40   41 2    
    83   40   42 1    
    84   42   43 1    
    85   42   44 1    
    86   42  165 1    
    87   43  166 1    
    88   43  167 1    
    89   43  168 1    
    90   44   45 am   BACKBONE|DICT|INTERRES
    91   44  169 1    
    92   45   46 2    
    93   45   47 1    
    94   47   48 1    
    95   47   49 1    
    96   47  170 1    
    97   48  171 1    
    98   48  172 1    
    99   48  173 1    
   100   49   50 am   BACKBONE|DICT|INTERRES
   101   49  174 1    
   102   50   51 2    
   103   50   52 1    
   104   52   53 1    
   105   52   54 1    
   106   52  175 1    
   107   53  176 1    
   108   53  177 1    
   109   53  178 1    
   110   54   55 am   BACKBONE|DICT|INTERRES
   111   54  179 1    
   112   55   56 2    
   113   55   57 1    
   114   57   58 1    
   115   57   59 1    
   116   57  180 1    
   117   58  181 1    
   118   58  182 1    
   119   58  183 1    
   120   59   60 am   BACKBONE|DICT|INTERRES
   121   59  184 1    
   122   60   61 2    
   123   60   62 1    
   124   62   63 1    
   125   62   64 1    
   126   62  185 1    
   127   63  186 1    
   128   63  187 1    
   129   63  188 1    
   130   64   65 am   BACKBONE|DICT|INTERRES
   131   64  189 1    
   132   65   66 2    
   133   67   68 2    
   134   67   69 am   BACKBONE|DICT|INTERRES
   135   69   70 1    
   136   69  190 1    
   137   70   71 1    
   138   70   72 1    
   139   70  191 1    
   140   71  192 1    
   141   71  193 1    
   142   71  194 1    
   143   72   73 2    
   144   72   74 am   BACKBONE|DICT|INTERRES
   145   74   75 1    
   146   74  195 1    
   147   75   76 1    
   148   75   77 1    
   149   75  196 1    
   150   76  197 1    
   151   76  198 1    
   152   76  199 1    
   153   77   78 2    
   154   77   79 am   BACKBONE|DICT|INTERRES
   155   79   80 1    
   156   79  200 1    
   157   80   81 1    
   158   80   82 1    
   159   80  201 1    
   160   81  202 1    
   161   81  203 1    
   162   81  204 1    
   163   82   83 2    
   164   82   84 am   BACKBONE|DICT|INTERRES
   165   84   85 1    
   166   84  205 1    
   167   85   86 1    
   168   85   87 1    
   169   85  206 1    
   170   86  207 1    
   171   86  208 1    
   172   86  209 1    
   173   87   88 2    
   174   87   89 am   BACKBONE|DICT|INTERRES
   175   89   90 1    
   176   89  210 1    
   177   90   91 1    
   178   90   92 1    
   179   90  211 1    
   180   91  212 1    
   181   91  213 1    
   182   91  214 1    
   183   92   93 2    
   184   92   94 am   BACKBONE|DICT|INTERRES
   185   94   95 1    
   186   94  215 1    
   187   95   96 1    
   188   95   97 1    
   189   95  216 1    
   190   96  217 1    
   191   96  218 1    
   192   96  219 1    
   193   97   98 2    
   194   97   99 am   BACKBONE|DICT|INTERRES
   195   99  100 1    
   196   99  220 1    
   197  100  101 1    
   198  100  102 1    
   199  100  221 1    
   200  101  222 1    
   201  101  223 1    
   202  101  224 1    
   203  102  103 2    
   204  102  104 am   BACKBONE|DICT|INTERRES
   205  104  105 1    
   206  104  225 1    
   207  105  106 1    
   208  105  107 1    
   209  105  226 1    
   210  106  227 1    
   211  106  228 1    
   212  106  229 1    
   213  107  108 2    
   214  107  109 am   BACKBONE|DICT|INTERRES
   215  109  110 1    
   216  109  230 1    
   217  110  111 1    
   218  110  112 1    
   219  110  231 1    
   220  111  232 1    
   221  111  233 1    
   222  111  234 1    
   223  112  113 2    
   224  112  114 am   BACKBONE|DICT|INTERRES
   225  114  115 1    
   226  114  235 1    
   227  115  116 1    
   228  115  117 1    
   229  115  236 1    
   230  116  237 1    
   231  116  238 1    
   232  116  239 1    
   233  117  118 2    
   234  117  119 am   BACKBONE|DICT|INTERRES
   235  119  120 1    
   236  119  240 1    
   237  120  121 1    
   238  120  124 1    
   239  120  241 1    
   240  121  122 am   BACKBONE|DICT|INTERRES
   241  121  123 2    
   242  122  242 1    
   243  122  243 1    
   244  124  125 1    
   245  124  244 1    
   246  124  245 1    
   247  125  126 1    
   248  126  246 1    
   249  126  247 1    
@<TRIPOS>SUBSTRUCTURE
     1 UNK         1 GROUP             0       ****    0 ROOT    
