@<TRIPOS>MOLECULE
3R540
247   249    1
SMALL
USER_CHARGES


@<TRIPOS>ATOM
      1 CA         -7.6317  -14.8800  -50.5069 C.3       0 UNK        -0.1800 
      2 C          -6.1355  -14.6348  -50.3720 C.2       0 UNK         0.5000 
      3 O          -5.6267  -13.6473  -50.9019 O.2       0 UNK        -0.5000 
      4 N          -5.4304  -15.5360  -49.6771 N.am      1 UNK        -0.5000 
      5 CA         -3.9933  -15.4554  -49.4082 C.3       1 UNK         0.1400 
      6 C6         -3.4636  -16.7942  -48.8371 C.3       23 UNK        -0.0398 
      7 S7         -1.6399  -16.8965  -48.7895 S.3       23 UNK        -0.2404 
      8 C8         -1.3282  -17.9853  -50.2070 C.3       23 UNK        -0.0205 
      9 C9          0.1137  -18.4627  -50.2508 C.ar      23 UNK        -0.0193 
     10 C10         1.1045  -17.6818  -50.8541 C.ar      23 UNK        -0.1150 
     11 C11         2.4172  -18.1561  -50.9524 C.ar      23 UNK        -0.0193 
     12 C12         2.7352  -19.4151  -50.4312 C.ar      23 UNK        -0.1150 
     13 C13         1.7544  -20.1978  -49.8167 C.ar      23 UNK        -0.0193 
     14 C14         0.4470  -19.7155  -49.7309 C.ar      23 UNK        -0.1150 
     15 C15         2.0922  -21.5703  -49.2576 C.3       23 UNK        -0.0205 
     16 S16         2.5096  -21.4730  -47.4896 S.3       23 UNK        -0.2404 
     17 C17         2.2951  -23.2085  -46.9727 C.3       23 UNK        -0.0398 
     18 CA          0.9718  -23.5391  -46.2340 C.3       11 UNK         0.1400 
     19 N           0.9000  -23.0323  -44.8587 N.am      11 UNK        -0.5000 
     20 C           0.0467  -23.5347  -43.9504 C.2       10 UNK         0.5000 
     21 O          -0.7260  -24.4651  -44.1879 O.2       10 UNK        -0.5000 
     22 CA          0.0137  -22.8788  -42.5595 C.3       10 UNK         0.1400 
     23 CB          1.2206  -23.3141  -41.7151 C.3       10 UNK        -0.1800 
     24 N          -0.0550  -21.4206  -42.6209 N.am      10 UNK        -0.5000 
     25 C          -1.0736  -20.7269  -43.1486 C.2       9 UNK         0.5000 
     26 O          -2.0867  -21.2473  -43.6139 O.2       9 UNK        -0.5000 
     27 CA         -0.9138  -19.1969  -43.2113 C.3       9 UNK         0.1400 
     28 CB         -1.2904  -18.5422  -41.8747 C.3       9 UNK        -0.1800 
     29 N           0.4395  -18.7958  -43.5921 N.am      9 UNK        -0.5000 
     30 C           0.9959  -19.0693  -44.7805 C.2       8 UNK         0.5000 
     31 O           0.4060  -19.6521  -45.6872 O.2       8 UNK        -0.5000 
     32 CA          2.4697  -18.6706  -44.9622 C.3       8 UNK         0.1400 
     33 CB          2.6055  -17.1886  -45.3352 C.3       8 UNK        -0.1800 
     34 N           3.2584  -18.9581  -43.7657 N.am      8 UNK        -0.5000 
     35 C           3.5416  -20.1939  -43.3290 C.2       7 UNK         0.5000 
     36 O           3.2106  -21.2250  -43.9160 O.2       7 UNK        -0.5000 
     37 CA          4.2817  -20.2868  -41.9822 C.3       7 UNK         0.1400 
     38 CB          5.7950  -20.1150  -42.1807 C.3       7 UNK        -0.1800 
     39 N           3.8029  -19.2989  -41.0122 N.am      7 UNK        -0.5000 
     40 C           2.5781  -19.3101  -40.4668 C.2       6 UNK         0.5000 
     41 O           1.7355  -20.1744  -40.7024 O.2       6 UNK        -0.5000 
     42 CA          2.2192  -18.1370  -39.5364 C.3       6 UNK         0.1400 
     43 CB          2.6747  -18.4290  -38.0990 C.3       6 UNK        -0.1800 
     44 N           2.7814  -16.8568  -39.9754 N.am      6 UNK        -0.5000 
     45 C           2.4563  -16.2373  -41.1173 C.2       5 UNK         0.5000 
     46 O           1.6681  -16.6996  -41.9462 O.2       5 UNK        -0.5000 
     47 CA          3.1849  -14.9141  -41.4045 C.3       5 UNK         0.1400 
     48 CB          4.4687  -15.1809  -42.2055 C.3       5 UNK        -0.1800 
     49 N           2.3408  -13.9967  -42.1642 N.am      5 UNK        -0.5000 
     50 C           1.3309  -13.2749  -41.6674 C.2       4 UNK         0.5000 
     51 O           1.0378  -13.2493  -40.4712 O.2       4 UNK        -0.5000 
     52 CA          0.5029  -12.4406  -42.6692 C.3       4 UNK         0.1400 
     53 CB          1.2837  -11.2028  -43.1520 C.3       4 UNK        -0.1800 
     54 N          -0.0377  -13.2108  -43.7989 N.am      4 UNK        -0.5000 
     55 C           0.6254  -13.8475  -44.7754 C.2       3 UNK         0.5000 
     56 O           1.8493  -13.8301  -44.9129 O.2       3 UNK        -0.5000 
     57 CA         -0.2380  -14.6613  -45.7529 C.3       3 UNK         0.1400 
     58 CB         -0.9334  -15.8262  -45.0291 C.3       3 UNK        -0.1800 
     59 N          -1.2436  -13.8623  -46.4498 N.am      3 UNK        -0.5000 
     60 C          -0.9931  -12.8570  -47.2988 C.2       2 UNK         0.5000 
     61 O           0.1341  -12.4201  -47.5358 O.2       2 UNK        -0.5000 
     62 CA         -2.2158  -12.3119  -48.0645 C.3       2 UNK         0.1400 
     63 CB         -1.8722  -11.1165  -48.9715 C.3       2 UNK        -0.1800 
     64 N          -2.7895  -13.3787  -48.8859 N.am      2 UNK        -0.5000 
     65 C          -3.6818  -14.2796  -48.4583 C.2       1 UNK         0.5000 
     66 O          -4.2102  -14.2396  -47.3444 O.2       1 UNK        -0.5000 
     67 C          -0.2982  -23.2000  -47.0438 C.2       11 UNK         0.5000 
     68 O          -0.7495  -24.0434  -47.8166 O.2       11 UNK        -0.5000 
     69 N          -0.8889  -22.0151  -46.8198 N.am      12 UNK        -0.5000 
     70 CA         -2.1661  -21.6080  -47.4082 C.3       12 UNK         0.1400 
     71 CB         -2.4569  -20.1367  -47.0832 C.3       12 UNK        -0.1800 
     72 C          -3.3347  -22.4986  -46.9588 C.2       12 UNK         0.5000 
     73 O          -4.1536  -22.8774  -47.7947 O.2       12 UNK        -0.5000 
     74 N          -3.3766  -22.8495  -45.6662 N.am      13 UNK        -0.5000 
     75 CA         -4.3537  -23.7775  -45.0969 C.3       13 UNK         0.1400 
     76 CB         -4.2362  -23.7851  -43.5654 C.3       13 UNK        -0.1800 
     77 C          -4.2146  -25.1998  -45.6683 C.2       13 UNK         0.5000 
     78 O          -5.2254  -25.8131  -46.0117 O.2       13 UNK        -0.5000 
     79 N          -2.9692  -25.6792  -45.8007 N.am      14 UNK        -0.5000 
     80 CA         -2.6379  -26.9759  -46.3960 C.3       14 UNK         0.1400 
     81 CB         -1.1517  -27.2830  -46.1585 C.3       14 UNK        -0.1800 
     82 C          -2.9794  -27.0547  -47.8972 C.2       14 UNK         0.5000 
     83 O          -3.4924  -28.0777  -48.3517 O.2       14 UNK        -0.5000 
     84 N          -2.7093  -25.9682  -48.6327 N.am      15 UNK        -0.5000 
     85 CA         -2.9986  -25.8251  -50.0613 C.3       15 UNK         0.1400 
     86 CB         -2.1306  -24.6884  -50.6253 C.3       15 UNK        -0.1800 
     87 C          -4.4859  -25.5601  -50.3718 C.2       15 UNK         0.5000 
     88 O          -4.8765  -25.6605  -51.5352 O.2       15 UNK        -0.5000 
     89 N          -5.2739  -25.2047  -49.3451 N.am      16 UNK        -0.5000 
     90 CA         -6.6670  -24.7490  -49.4039 C.3       16 UNK         0.1400 
     91 CB         -7.6049  -25.8762  -49.8835 C.3       16 UNK        -0.1800 
     92 C          -6.7975  -23.4482  -50.2235 C.2       16 UNK         0.5000 
     93 O          -7.6050  -23.3645  -51.1508 O.2       16 UNK        -0.5000 
     94 N          -5.9406  -22.4741  -49.8875 N.am      17 UNK        -0.5000 
     95 CA         -5.7265  -21.1531  -50.4912 C.3       17 UNK         0.1400 
     96 CB         -7.0031  -20.2927  -50.4555 C.3       17 UNK        -0.1800 
     97 C          -5.1153  -21.1813  -51.9049 C.2       17 UNK         0.5000 
     98 O          -4.2919  -20.3178  -52.2055 O.2       17 UNK        -0.5000 
     99 N          -5.5215  -22.1520  -52.7366 N.am      18 UNK        -0.5000 
    100 CA        -5.0463  -22.4346  -54.0966 C.3       18 UNK         0.1400 
    101 CB        -3.6375  -23.0577  -54.0475 C.3       18 UNK        -0.1800 
    102 C         -5.1317  -21.2124  -55.0337 C.2       18 UNK         0.5000 
    103 O         -4.1517  -20.8645  -55.6948 O.2       18 UNK        -0.5000 
    104 N         -6.2992  -20.5497  -55.0265 N.am      19 UNK        -0.5000 
    105 CA        -6.6137  -19.3152  -55.7619 C.3       19 UNK         0.1400 
    106 CB        -6.6651  -19.5833  -57.2808 C.3       19 UNK        -0.1800 
    107 C         -5.6832  -18.1385  -55.3875 C.2       19 UNK         0.5000 
    108 O         -5.3216  -17.3336  -56.2465 O.2       19 UNK        -0.5000 
    109 N         -5.3019  -18.0915  -54.1024 N.am      20 UNK        -0.5000 
    110 CA        -4.3540  -17.1718  -53.4651 C.3       20 UNK         0.1400 
    111 CB        -4.7677  -15.6977  -53.6534 C.3       20 UNK        -0.1800 
    112 C         -2.8778  -17.4244  -53.8388 C.2       20 UNK         0.5000 
    113 O         -2.0361  -16.5956  -53.4898 O.2       20 UNK        -0.5000 
    114 N         -2.5852  -18.5615  -54.4925 N.am      21 UNK        -0.5000 
    115 CA        -1.2700  -19.1125  -54.8381 C.3       21 UNK         0.1400 
    116 CB        -0.6628  -19.8149  -53.6082 C.3       21 UNK        -0.1800 
    117 C         -0.3183  -18.0856  -55.4867 C.2       21 UNK         0.5000 
    118 O         -0.4023  -17.8657  -56.6961 O.2       21 UNK        -0.5000 
    119 N          0.5552  -17.4759  -54.6740 N.am      22 UNK        -0.5000 
    120 CA         1.4621  -16.3827  -55.0578 C.3       22 UNK         0.1400 
    121 C          0.7499  -15.0692  -55.5007 C.2       22 UNK         0.5000 
    122 N         -0.4984  -14.8272  -55.1193 N.am      22 UNK        -0.7600 
    123 O          1.3456  -14.2550  -56.2009 O.2       22 UNK        -0.5000 
    124 C124        2.4836  -16.0601  -53.9371 C.3       23 UNK        -0.0398 
    125 S125        3.4983  -17.4899  -53.4241 S.3       23 UNK        -0.2404 
    126 C126        3.5006  -17.3137  -51.6095 C.3       23 UNK        -0.0205 
    127 H127       -7.9038  -14.9636  -51.5591 H         1 UNK         0.0600 
    128 H128       -8.1885  -14.0489  -50.0743 H         1 UNK         0.0600 
    129 H129       -7.9404  -15.7961  -50.0025 H         1 UNK         0.0600 
    130 H130       -5.9177  -16.3002  -49.2322 H         1 UNK         0.3000 
    131 H131       -3.4966  -15.2788  -50.3653 H         1 UNK         0.0600 
    132 H132       -3.8414  -16.9623  -47.8266 H         1 UNK         0.0800 
    133 H133       -3.8471  -17.6245  -49.4315 H         1 UNK         0.0800 
    134 H134       -1.5668  -17.4456  -51.1214 H         1 UNK         0.0800 
    135 H135       -1.9990  -18.8455  -50.1721 H         1 UNK         0.0800 
    136 H136        0.8476  -16.7117  -51.2546 H         1 UNK         0.1150 
    137 H137        3.7477  -19.7870  -50.5026 H         1 UNK         0.1150 
    138 H138       -0.3129  -20.3235  -49.2643 H         1 UNK         0.1150 
    139 H139        1.2426  -22.2387  -49.4050 H         1 UNK         0.0800 
    140 H140        2.9283  -22.0101  -49.8033 H         1 UNK         0.0800 
    141 H141        2.3953  -23.8512  -47.8490 H         1 UNK         0.0800 
    142 H142        3.1382  -23.4671  -46.3309 H         1 UNK         0.0800 
    143 H143        0.9724  -24.6279  -46.1446 H         1 UNK         0.0600 
    144 H144        1.5225  -22.2705  -44.6087 H         1 UNK         0.3000 
    145 H145       -0.8895  -23.2275  -42.0544 H         1 UNK         0.0600 
    146 H146        1.1494  -22.9272  -40.6985 H         1 UNK         0.0600 
    147 H147        2.1607  -22.9636  -42.1405 H         1 UNK         0.0600 
    148 H148        1.2765  -24.4011  -41.6457 H         1 UNK         0.0600 
    149 H149        0.7159  -20.9110  -42.2002 H         1 UNK         0.3000 
    150 H150       -1.5981  -18.8220  -43.9751 H         1 UNK         0.0600 
    151 H151       -2.3178  -18.7831  -41.5997 H         1 UNK         0.0600 
    152 H152       -1.2134  -17.4561  -41.9325 H         1 UNK         0.0600 
    153 H153       -0.6459  -18.8806  -41.0638 H         1 UNK         0.0600 
    154 H154        0.9702  -18.2603  -42.9118 H         1 UNK         0.3000 
    155 H155        2.8810  -19.2547  -45.7849 H         1 UNK         0.0600 
    156 H156        2.0358  -16.9634  -46.2375 H         1 UNK         0.0600 
    157 H157        3.6441  -16.9243  -45.5332 H         1 UNK         0.0600 
    158 H158        2.2401  -16.5374  -44.5423 H         1 UNK         0.0600 
    159 H159        3.5264  -18.1698  -43.1970 H         1 UNK         0.3000 
    160 H160        4.1020  -21.2826  -41.5713 H         1 UNK         0.0600 
    161 H161        6.0429  -19.1252  -42.5660 H         1 UNK         0.0600 
    162 H162        6.1806  -20.8494  -42.8893 H         1 UNK         0.0600 
    163 H163        6.3338  -20.2556  -41.2435 H         1 UNK         0.0600 
    164 H164        4.4375  -18.5555  -40.7611 H         1 UNK         0.3000 
    165 H165        1.1317  -18.0396  -39.5342 H         1 UNK         0.0600 
    166 H166        2.3477  -17.6457  -37.4148 H         1 UNK         0.0600 
    167 H167        2.2531  -19.3688  -37.7397 H         1 UNK         0.0600 
    168 H168        3.7602  -18.5072  -38.0269 H         1 UNK         0.0600 
    169 H169        3.4462  -16.4210  -39.3524 H         1 UNK         0.3000 
    170 H170        3.4532  -14.4416  -40.4573 H         1 UNK         0.0600 
    171 H171        4.2533  -15.6350  -43.1735 H         1 UNK         0.0600 
    172 H172        5.0173  -14.2564  -42.3868 H         1 UNK         0.0600 
    173 H173        5.1373  -15.8535  -41.6669 H         1 UNK         0.0600 
    174 H174        2.4513  -13.9989  -43.1751 H         1 UNK         0.3000 
    175 H175       -0.3685  -12.0765  -42.1225 H         1 UNK         0.0600 
    176 H176        2.1842  -11.4734  -43.7037 H         1 UNK         0.0600 
    177 H177        0.6691  -10.5791  -43.8011 H         1 UNK         0.0600 
    178 H178        1.5940  -10.5867  -42.3073 H         1 UNK         0.0600 
    179 H179       -1.0427  -13.3133  -43.7920 H         1 UNK         0.3000 
    180 H180        0.4312  -15.0831  -46.5055 H         1 UNK         0.0600 
    181 H181       -0.2442  -16.3276  -44.3517 H         1 UNK         0.0600 
    182 H182       -1.2971  -16.5721  -45.7360 H         1 UNK         0.0600 
    183 H183       -1.7808  -15.4898  -44.4311 H         1 UNK         0.0600 
    184 H184       -2.2059  -14.1601  -46.3507 H         1 UNK         0.3000 
    185 H185       -2.9470  -11.9722  -47.3278 H         1 UNK         0.0600 
    186 H186       -1.1451  -11.3853  -49.7388 H         1 UNK         0.0600 
    187 H187       -2.7621  -10.7360  -49.4732 H         1 UNK         0.0600 
    188 H188       -1.4509  -10.2946  -48.3912 H         1 UNK         0.0600 
    189 H189       -2.3821  -13.4951  -49.8026 H         1 UNK         0.3000 
    190 H190       -0.4274  -21.3356  -46.2204 H         1 UNK         0.3000 
    191 H191       -2.0778  -21.7052  -48.4919 H         1 UNK         0.0600 
    192 H192       -1.6460  -19.4931  -47.4201 H         1 UNK         0.0600 
    193 H193       -2.5819  -19.9757  -46.0126 H         1 UNK         0.0600 
    194 H194       -3.3687  -19.7988  -47.5768 H         1 UNK         0.0600 
    195 H195       -2.7030  -22.4441  -45.0224 H         1 UNK         0.3000 
    196 H196       -5.3496  -23.4123  -45.3565 H         1 UNK         0.0600 
    197 H197       -4.4232  -22.7938  -43.1522 H         1 UNK         0.0600 
    198 H198       -3.2460  -24.1013  -43.2369 H         1 UNK         0.0600 
    199 H199       -4.9635  -24.4654  -43.1207 H         1 UNK         0.0600 
    200 H200       -2.1939  -25.1234  -45.4536 H         1 UNK         0.3000 
    201 H201       -3.2268  -27.7382  -45.8817 H         1 UNK         0.0600 
    202 H202       -0.9134  -27.2811  -45.0946 H         1 UNK         0.0600 
    203 H203       -0.5065  -26.5528  -46.6469 H         1 UNK         0.0600 
    204 H204       -0.8892  -28.2665  -46.5499 H         1 UNK         0.0600 
    205 H205       -2.2148  -25.1936  -48.1969 H         1 UNK         0.3000 
    206 H206       -2.7175  -26.7516  -50.5660 H         1 UNK         0.0600 
    207 H207       -1.0719  -24.8704  -50.4403 H         1 UNK         0.0600 
    208 H208       -2.3892  -23.7269  -50.1794 H         1 UNK         0.0600 
    209 H209       -2.2551  -24.5962  -51.7037 H         1 UNK         0.0600 
    210 H210       -4.8332  -25.1232  -48.4383 H         1 UNK         0.3000 
    211 H211       -6.9501  -24.4986  -48.3804 H         1 UNK         0.0600 
    212 H212       -7.4169  -26.1526  -50.9212 H         1 UNK         0.0600 
    213 H213       -8.6486  -25.5681  -49.8133 H         1 UNK         0.0600 
    214 H214       -7.4882  -26.7707  -49.2717 H         1 UNK         0.0600 
    215 H215       -5.2955  -22.6854  -49.1256 H         1 UNK         0.3000 
    216 H216       -4.9895  -20.6650  -49.8511 H         1 UNK         0.0600 
    217 H217       -6.7975  -19.2784  -50.8001 H         1 UNK         0.0600 
    218 H218       -7.3983  -20.2174  -49.4425 H         1 UNK         0.0600 
    219 H219       -7.7886  -20.6991  -51.0930 H         1 UNK         0.0600 
    220 H220       -6.2410  -22.7755  -52.3810 H         1 UNK         0.3000 
    221 H221       -5.7214  -23.1835  -54.5129 H         1 UNK         0.0600 
    222 H222       -2.9119  -22.3848  -53.5908 H         1 UNK         0.0600 
    223 H223       -3.6461  -23.9841  -53.4751 H         1 UNK         0.0600 
    224 H224       -3.2777  -23.3028  -55.0474 H         1 UNK         0.0600 
    225 H225       -7.0369  -20.9062  -54.4346 H         1 UNK         0.3000 
    226 H226       -7.6151  -19.0177  -55.4479 H         1 UNK         0.0600 
    227 H227       -7.3369  -20.4097  -57.5126 H         1 UNK         0.0600 
    228 H228       -7.0309  -18.7089  -57.8202 H         1 UNK         0.0600 
    229 H229       -5.6817  -19.8272  -57.6836 H         1 UNK         0.0600 
    230 H230       -5.6046  -18.8508  -53.5076 H         1 UNK         0.3000 
    231 H231       -4.4203  -17.3868  -52.3974 H         1 UNK         0.0600 
    232 H232       -4.1815  -15.0436  -53.0069 H         1 UNK         0.0600 
    233 H233       -5.8168  -15.5446  -53.4009 H         1 UNK         0.0600 
    234 H234       -4.6137  -15.3579  -54.6775 H         1 UNK         0.0600 
    235 H235       -3.3607  -19.1599  -54.7529 H         1 UNK         0.3000 
    236 H236       -1.4510  -19.8800  -55.5921 H         1 UNK         0.0600 
    237 H237       -0.5460  -19.1295  -52.7732 H         1 UNK         0.0600 
    238 H238       -1.2995  -20.6320  -53.2703 H         1 UNK         0.0600 
    239 H239        0.3173  -20.2373  -53.8337 H         1 UNK         0.0600 
    240 H240        0.5415  -17.7134  -53.6936 H         1 UNK         0.3000 
    241 H241        2.0236  -16.7319  -55.9262 H         1 UNK         0.0600 
    242 H242       -0.9510  -13.9762  -55.4107 H         1 UNK         0.3800 
    243 H243       -0.9991  -15.4896  -54.5295 H         1 UNK         0.3800 
    244 H244        1.9620  -15.6496  -53.0716 H         1 UNK         0.0800 
    245 H245        3.1735  -15.2812  -54.2670 H         1 UNK         0.0800 
    246 H246        3.3920  -16.2667  -51.3233 H         1 UNK         0.0800 
    247 H247        4.4798  -17.6196  -51.2379 H         1 UNK         0.0800 
@<TRIPOS>BOND
     1    1    2 1    
     2    1  127 1    
     3    1  128 1    
     4    1  129 1    
     5    2    3 2    
     6    2    4 am   BACKBONE|DICT|INTERRES
     7    4    5 1    
     8    4  130 1    
     9    5    6 1    
    10    5   65 1    
    11    5  131 1    
    12    6    7 1    
    13    6  132 1    
    14    6  133 1    
    15    7    8 1    
    16    8    9 1    
    17    8  134 1    
    18    8  135 1    
    19    9   10 ar   
    20    9   14 ar   
    21   10   11 ar   
    22   10  136 1    
    23   11   12 ar   
    24   11  126 1    
    25   12   13 ar   
    26   12  137 1    
    27   13   14 ar   
    28   13   15 1    
    29   14  138 1    
    30   15   16 1    
    31   15  139 1    
    32   15  140 1    
    33   16   17 1    
    34   17   18 1    
    35   17  141 1    
    36   17  142 1    
    37   18   19 1    
    38   18   67 1    
    39   18  143 1    
    40   19   20 am   BACKBONE|DICT|INTERRES
    41   19  144 1    
    42   20   21 2    
    43   20   22 1    
    44   22   23 1    
    45   22   24 1    
    46   22  145 1    
    47   23  146 1    
    48   23  147 1    
    49   23  148 1    
    50   24   25 am   BACKBONE|DICT|INTERRES
    51   24  149 1    
    52   25   26 2    
    53   25   27 1    
    54   27   28 1    
    55   27   29 1    
    56   27  150 1    
    57   28  151 1    
    58   28  152 1    
    59   28  153 1    
    60   29   30 am   BACKBONE|DICT|INTERRES
    61   29  154 1    
    62   30   31 2    
    63   30   32 1    
    64   32   33 1    
    65   32   34 1    
    66   32  155 1    
    67   33  156 1    
    68   33  157 1    
    69   33  158 1    
    70   34   35 am   BACKBONE|DICT|INTERRES
    71   34  159 1    
    72   35   36 2    
    73   35   37 1    
    74   37   38 1    
    75   37   39 1    
    76   37  160 1    
    77   38  161 1    
    78   38  162 1    
    79   38  163 1    
    80   39   40 am   BACKBONE|DICT|INTERRES
    81   39  164 1    
    82   40   41 2    
    83   40   42 1    
    84   42   43 1    
    85   42   44 1    
    86   42  165 1    
    87   43  166 1    
    88   43  167 1    
    89   43  168 1    
    90   44   45 am   BACKBONE|DICT|INTERRES
    91   44  169 1    
    92   45   46 2    
    93   45   47 1    
    94   47   48 1    
    95   47   49 1    
    96   47  170 1    
    97   48  171 1    
    98   48  172 1    
    99   48  173 1    
   100   49   50 am   BACKBONE|DICT|INTERRES
   101   49  174 1    
   102   50   51 2    
   103   50   52 1    
   104   52   53 1    
   105   52   54 1    
   106   52  175 1    
   107   53  176 1    
   108   53  177 1    
   109   53  178 1    
   110   54   55 am   BACKBONE|DICT|INTERRES
   111   54  179 1    
   112   55   56 2    
   113   55   57 1    
   114   57   58 1    
   115   57   59 1    
   116   57  180 1    
   117   58  181 1    
   118   58  182 1    
   119   58  183 1    
   120   59   60 am   BACKBONE|DICT|INTERRES
   121   59  184 1    
   122   60   61 2    
   123   60   62 1    
   124   62   63 1    
   125   62   64 1    
   126   62  185 1    
   127   63  186 1    
   128   63  187 1    
   129   63  188 1    
   130   64   65 am   BACKBONE|DICT|INTERRES
   131   64  189 1    
   132   65   66 2    
   133   67   68 2    
   134   67   69 am   BACKBONE|DICT|INTERRES
   135   69   70 1    
   136   69  190 1    
   137   70   71 1    
   138   70   72 1    
   139   70  191 1    
   140   71  192 1    
   141   71  193 1    
   142   71  194 1    
   143   72   73 2    
   144   72   74 am   BACKBONE|DICT|INTERRES
   145   74   75 1    
   146   74  195 1    
   147   75   76 1    
   148   75   77 1    
   149   75  196 1    
   150   76  197 1    
   151   76  198 1    
   152   76  199 1    
   153   77   78 2    
   154   77   79 am   BACKBONE|DICT|INTERRES
   155   79   80 1    
   156   79  200 1    
   157   80   81 1    
   158   80   82 1    
   159   80  201 1    
   160   81  202 1    
   161   81  203 1    
   162   81  204 1    
   163   82   83 2    
   164   82   84 am   BACKBONE|DICT|INTERRES
   165   84   85 1    
   166   84  205 1    
   167   85   86 1    
   168   85   87 1    
   169   85  206 1    
   170   86  207 1    
   171   86  208 1    
   172   86  209 1    
   173   87   88 2    
   174   87   89 am   BACKBONE|DICT|INTERRES
   175   89   90 1    
   176   89  210 1    
   177   90   91 1    
   178   90   92 1    
   179   90  211 1    
   180   91  212 1    
   181   91  213 1    
   182   91  214 1    
   183   92   93 2    
   184   92   94 am   BACKBONE|DICT|INTERRES
   185   94   95 1    
   186   94  215 1    
   187   95   96 1    
   188   95   97 1    
   189   95  216 1    
   190   96  217 1    
   191   96  218 1    
   192   96  219 1    
   193   97   98 2    
   194   97   99 am   BACKBONE|DICT|INTERRES
   195   99  100 1    
   196   99  220 1    
   197  100  101 1    
   198  100  102 1    
   199  100  221 1    
   200  101  222 1    
   201  101  223 1    
   202  101  224 1    
   203  102  103 2    
   204  102  104 am   BACKBONE|DICT|INTERRES
   205  104  105 1    
   206  104  225 1    
   207  105  106 1    
   208  105  107 1    
   209  105  226 1    
   210  106  227 1    
   211  106  228 1    
   212  106  229 1    
   213  107  108 2    
   214  107  109 am   BACKBONE|DICT|INTERRES
   215  109  110 1    
   216  109  230 1    
   217  110  111 1    
   218  110  112 1    
   219  110  231 1    
   220  111  232 1    
   221  111  233 1    
   222  111  234 1    
   223  112  113 2    
   224  112  114 am   BACKBONE|DICT|INTERRES
   225  114  115 1    
   226  114  235 1    
   227  115  116 1    
   228  115  117 1    
   229  115  236 1    
   230  116  237 1    
   231  116  238 1    
   232  116  239 1    
   233  117  118 2    
   234  117  119 am   BACKBONE|DICT|INTERRES
   235  119  120 1    
   236  119  240 1    
   237  120  121 1    
   238  120  124 1    
   239  120  241 1    
   240  121  122 am   BACKBONE|DICT|INTERRES
   241  121  123 2    
   242  122  242 1    
   243  122  243 1    
   244  124  125 1    
   245  124  244 1    
   246  124  245 1    
   247  125  126 1    
   248  126  246 1    
   249  126  247 1    
@<TRIPOS>SUBSTRUCTURE
     1 UNK         1 GROUP             0       ****    0 ROOT    
