@<TRIPOS>MOLECULE
3R540
247   249    1
SMALL
USER_CHARGES


@<TRIPOS>ATOM
      1 CA          3.5865  -14.6884  -51.9446 C.3       0 UNK        -0.1800 
      2 C           4.2374  -14.1132  -50.6948 C.2       0 UNK         0.5000 
      3 O           5.3985  -13.7048  -50.7369 O.2       0 UNK        -0.5000 
      4 N           3.4946  -14.0862  -49.5839 N.am      1 UNK        -0.5000 
      5 CA          3.9115  -13.5108  -48.3038 C.3       1 UNK         0.1400 
      6 C6          3.0508  -14.0616  -47.1370 C.3       23 UNK        -0.0398 
      7 S7          1.2682  -13.6586  -47.2668 S.3       23 UNK        -0.2404 
      8 C8          0.4967  -15.3015  -47.2735 C.3       23 UNK        -0.0205 
      9 C9          0.8517  -16.1151  -48.5075 C.ar      23 UNK        -0.0193 
     10 C10         0.2445  -15.8379  -49.7352 C.ar      23 UNK        -0.1150 
     11 C11         0.5634  -16.5895  -50.8702 C.ar      23 UNK        -0.0193 
     12 C12         1.4964  -17.6255  -50.7661 C.ar      23 UNK        -0.1150 
     13 C13         2.0896  -17.9335  -49.5385 C.ar      23 UNK        -0.0193 
     14 C14         1.7720  -17.1621  -48.4159 C.ar      23 UNK        -0.1150 
     15 C15         3.0768  -19.0941  -49.4481 C.3       23 UNK        -0.0205 
     16 S16         2.8690  -20.1333  -47.9611 S.3       23 UNK        -0.2404 
     17 C17         1.1108  -20.6172  -48.0738 C.3       23 UNK        -0.0398 
     18 CA          0.8269  -21.9459  -47.3346 C.3       11 UNK         0.1400 
     19 N           1.0753  -21.8545  -45.8916 N.am      11 UNK        -0.5000 
     20 C           1.1614  -22.9028  -45.0610 C.2       10 UNK         0.5000 
     21 O           0.9876  -24.0700  -45.4147 O.2       10 UNK        -0.5000 
     22 CA          1.4672  -22.5918  -43.5856 C.3       10 UNK         0.1400 
     23 CB          2.9331  -22.1703  -43.3969 C.3       10 UNK        -0.1800 
     24 N           0.5839  -21.5537  -43.0579 N.am      10 UNK        -0.5000 
     25 C          -0.7021  -21.7524  -42.7375 C.2       9 UNK         0.5000 
     26 O          -1.2584  -22.8493  -42.7962 O.2       9 UNK        -0.5000 
     27 CA         -1.5125  -20.5202  -42.2894 C.3       9 UNK         0.1400 
     28 CB         -1.3844  -20.3137  -40.7728 C.3       9 UNK        -0.1800 
     29 N          -1.1292  -19.2859  -42.9754 N.am      9 UNK        -0.5000 
     30 C          -1.2379  -19.0775  -44.2948 C.2       8 UNK         0.5000 
     31 O          -1.6921  -19.9017  -45.0856 O.2       8 UNK        -0.5000 
     32 CA         -0.6825  -17.7476  -44.8303 C.3       8 UNK         0.1400 
     33 CB         -1.6709  -16.5993  -44.5745 C.3       8 UNK        -0.1800 
     34 N           0.6265  -17.4170  -44.2628 N.am      8 UNK        -0.5000 
     35 C           1.7192  -18.1865  -44.3800 C.2       7 UNK         0.5000 
     36 O           1.7383  -19.2588  -44.9786 O.2       7 UNK        -0.5000 
     37 CA          2.9893  -17.7057  -43.6646 C.3       7 UNK         0.1400 
     38 CB          3.7039  -16.6261  -44.4892 C.3       7 UNK        -0.1800 
     39 N           2.6817  -17.1988  -42.3291 N.am      7 UNK        -0.5000 
     40 C           2.3150  -17.9771  -41.3000 C.2       6 UNK         0.5000 
     41 O           2.2755  -19.2068  -41.3499 O.2       6 UNK        -0.5000 
     42 CA          1.8786  -17.2530  -40.0134 C.3       6 UNK         0.1400 
     43 CB          3.0972  -16.9107  -39.1433 C.3       6 UNK        -0.1800 
     44 N           1.1194  -16.0312  -40.2880 N.am      6 UNK        -0.5000 
     45 C          -0.0928  -16.0057  -40.8602 C.2       5 UNK         0.5000 
     46 O          -0.7163  -17.0168  -41.1820 O.2       5 UNK        -0.5000 
     47 CA         -0.6896  -14.6177  -41.1600 C.3       5 UNK         0.1400 
     48 CB         -1.5029  -14.1110  -39.9600 C.3       5 UNK        -0.1800 
     49 N           0.3188  -13.6168  -41.5208 N.am      5 UNK        -0.5000 
     50 C           1.0807  -13.6670  -42.6210 C.2       4 UNK         0.5000 
     51 O           1.0345  -14.5837  -43.4446 O.2       4 UNK        -0.5000 
     52 CA          2.0910  -12.5239  -42.8103 C.3       4 UNK         0.1400 
     53 CB          3.5323  -13.0572  -42.8073 C.3       4 UNK        -0.1800 
     54 N           1.8460  -11.8143  -44.0622 N.am      4 UNK        -0.5000 
     55 C           0.9048  -10.8781  -44.2398 C.2       3 UNK         0.5000 
     56 O           0.1366  -10.5164  -43.3463 O.2       3 UNK        -0.5000 
     57 CA          0.8107  -10.2403  -45.6462 C.3       3 UNK         0.1400 
     58 CB          0.2072   -8.8204  -45.6192 C.3       3 UNK        -0.1800 
     59 N           2.0762  -10.2535  -46.3946 N.am      3 UNK        -0.5000 
     60 C           3.2342   -9.6551  -46.0721 C.2       2 UNK         0.5000 
     61 O           3.3850   -8.9584  -45.0673 O.2       2 UNK        -0.5000 
     62 CA          4.4307   -9.9237  -47.0159 C.3       2 UNK         0.1400 
     63 CB          5.7712   -9.4508  -46.4243 C.3       2 UNK        -0.1800 
     64 N           4.5369  -11.3503  -47.3365 N.am      2 UNK        -0.5000 
     65 C           3.8809  -11.9662  -48.3281 C.2       1 UNK         0.5000 
     66 O           3.1973  -11.3648  -49.1609 O.2       1 UNK        -0.5000 
     67 C          -0.5837  -22.4731  -47.6660 C.2       11 UNK         0.5000 
     68 O          -0.7469  -23.0987  -48.7124 O.2       11 UNK        -0.5000 
     69 N          -1.5628  -22.2734  -46.7689 N.am      12 UNK        -0.5000 
     70 CA         -2.9362  -22.7773  -46.8811 C.3       12 UNK         0.1400 
     71 CB         -3.7517  -22.3568  -45.6496 C.3       12 UNK        -0.1800 
     72 C          -3.0427  -24.3006  -47.0859 C.2       12 UNK         0.5000 
     73 O          -3.9657  -24.7485  -47.7664 O.2       12 UNK        -0.5000 
     74 N          -2.0930  -25.0646  -46.5278 N.am      13 UNK        -0.5000 
     75 CA         -2.0001  -26.5149  -46.6981 C.3       13 UNK         0.1400 
     76 CB         -0.9830  -27.0808  -45.6961 C.3       13 UNK        -0.1800 
     77 C          -1.6313  -26.9194  -48.1382 C.2       13 UNK         0.5000 
     78 O          -2.1943  -27.8807  -48.6624 O.2       13 UNK        -0.5000 
     79 N          -0.7164  -26.1631  -48.7602 N.am      14 UNK        -0.5000 
     80 CA         -0.2998  -26.3424  -50.1524 C.3       14 UNK         0.1400 
     81 CB          1.0674  -25.6733  -50.3628 C.3       14 UNK        -0.1800 
     82 C          -1.3394  -25.7795  -51.1382 C.2       14 UNK         0.5000 
     83 O          -1.5586  -26.3652  -52.1985 O.2       14 UNK        -0.5000 
     84 N          -1.9776  -24.6677  -50.7522 N.am      15 UNK        -0.5000 
     85 CA         -3.0096  -23.9638  -51.5129 C.3       15 UNK         0.1400 
     86 CB         -3.1307  -22.5405  -50.9507 C.3       15 UNK        -0.1800 
     87 C          -4.3884  -24.6541  -51.4914 C.2       15 UNK         0.5000 
     88 O          -5.3047  -24.1653  -52.1532 O.2       15 UNK        -0.5000 
     89 N          -4.5293  -25.7328  -50.7054 N.am      16 UNK        -0.5000 
     90 CA         -5.7455  -26.5220  -50.4826 C.3       16 UNK         0.1400 
     91 CB         -6.1485  -27.2756  -51.7673 C.3       16 UNK        -0.1800 
     92 C          -6.8873  -25.6720  -49.8882 C.2       16 UNK         0.5000 
     93 O          -8.0049  -25.6758  -50.4065 O.2       16 UNK        -0.5000 
     94 N          -6.5549  -24.9335  -48.8190 N.am      17 UNK        -0.5000 
     95 CA         -7.3898  -23.9526  -48.1178 C.3       17 UNK         0.1400 
     96 CB         -8.6246  -24.6193  -47.4751 C.3       17 UNK        -0.1800 
     97 C          -7.7362  -22.7362  -49.0025 C.2       17 UNK         0.5000 
     98 O          -8.8470  -22.2094  -48.9225 O.2       17 UNK        -0.5000 
     99 N          -6.7568  -22.3170  -49.8192 N.am      18 UNK        -0.5000 
    100 CA        -6.8060  -21.2204  -50.7905 C.3       18 UNK         0.1400 
    101 CB        -6.9701  -19.8590  -50.0837 C.3       18 UNK        -0.1800 
    102 C         -7.8576  -21.4732  -51.8862 C.2       18 UNK         0.5000 
    103 O         -8.8164  -20.7094  -52.0242 O.2       18 UNK        -0.5000 
    104 N         -7.6610  -22.5601  -52.6436 N.am      19 UNK        -0.5000 
    105 CA        -8.5155  -23.0092  -53.7444 C.3       19 UNK         0.1400 
    106 CB        -8.2025  -24.4873  -54.0363 C.3       19 UNK        -0.1800 
    107 C         -8.3801  -22.1134  -54.9962 C.2       19 UNK         0.5000 
    108 O         -7.8847  -22.5601  -56.0319 O.2       19 UNK        -0.5000 
    109 N         -8.8053  -20.8500  -54.8556 N.am      20 UNK        -0.5000 
    110 CA        -8.8072  -19.7611  -55.8432 C.3       20 UNK         0.1400 
    111 CB        -9.6599  -20.1305  -57.0748 C.3       20 UNK        -0.1800 
    112 C         -7.4065  -19.2417  -56.2387 C.2       20 UNK         0.5000 
    113 O         -7.3048  -18.4024  -57.1352 O.2       20 UNK        -0.5000 
    114 N         -6.3586  -19.7131  -55.5562 N.am      21 UNK        -0.5000 
    115 CA        -4.9571  -19.3591  -55.7448 C.3       21 UNK         0.1400 
    116 CB        -4.4251  -19.9707  -57.0569 C.3       21 UNK        -0.1800 
    117 C         -4.1622  -19.8803  -54.5384 C.2       21 UNK         0.5000 
    118 O         -4.6890  -20.6760  -53.7555 O.2       21 UNK        -0.5000 
    119 N         -2.9027  -19.4432  -54.4281 N.am      22 UNK        -0.5000 
    120 CA        -1.9385  -19.9059  -53.4129 C.3       22 UNK         0.1400 
    121 C         -1.2532  -21.2661  -53.7549 C.2       22 UNK         0.5000 
    122 N         -1.5543  -21.9093  -54.8765 N.am      22 UNK        -0.7600 
    123 O         -0.4285  -21.7510  -52.9867 O.2       22 UNK        -0.5000 
    124 C124       -0.8758  -18.8271  -53.0804 C.3       23 UNK        -0.0398 
    125 S125       -1.5918  -17.2519  -52.4997 S.3       23 UNK        -0.2404 
    126 C126       -0.0859  -16.2674  -52.2093 C.3       23 UNK        -0.0205 
    127 H127        3.8943  -14.1266  -52.8265 H         1 UNK         0.0600 
    128 H128        2.4994  -14.6441  -51.8822 H         1 UNK         0.0600 
    129 H129        3.8823  -15.7289  -52.0785 H         1 UNK         0.0600 
    130 H130        2.5400  -14.4166  -49.6135 H         1 UNK         0.3000 
    131 H131        4.9457  -13.8127  -48.1243 H         1 UNK         0.0600 
    132 H132        3.1804  -15.1414  -47.0802 H         1 UNK         0.0800 
    133 H133        3.4149  -13.6859  -46.1803 H         1 UNK         0.0800 
    134 H134       -0.5862  -15.1860  -47.2156 H         1 UNK         0.0800 
    135 H135        0.8036  -15.8207  -46.3683 H         1 UNK         0.0800 
    136 H136       -0.4746  -15.0337  -49.8064 H         1 UNK         0.1150 
    137 H137        1.7568  -18.1996  -51.6437 H         1 UNK         0.1150 
    138 H138        2.2331  -17.3876  -47.4648 H         1 UNK         0.1150 
    139 H139        2.9940  -19.7353  -50.3271 H         1 UNK         0.0800 
    140 H140        4.0896  -18.6900  -49.4543 H         1 UNK         0.0800 
    141 H141        0.8492  -20.7040  -49.1305 H         1 UNK         0.0800 
    142 H142        0.4971  -19.8119  -47.6661 H         1 UNK         0.0800 
    143 H143        1.5226  -22.6905  -47.7280 H         1 UNK         0.0600 
    144 H144        1.2588  -20.9200  -45.5287 H         1 UNK         0.3000 
    145 H145        1.3084  -23.5068  -43.0109 H         1 UNK         0.0600 
    146 H146        3.1592  -21.9956  -42.3448 H         1 UNK         0.0600 
    147 H147        3.6100  -22.9485  -43.7514 H         1 UNK         0.0600 
    148 H148        3.1699  -21.2573  -43.9432 H         1 UNK         0.0600 
    149 H149        0.9661  -20.6201  -42.9870 H         1 UNK         0.3000 
    150 H150       -2.5615  -20.7151  -42.5212 H         1 UNK         0.0600 
    151 H151       -1.6781  -21.2120  -40.2282 H         1 UNK         0.0600 
    152 H152       -2.0256  -19.5012  -40.4303 H         1 UNK         0.0600 
    153 H153       -0.3597  -20.0737  -40.4860 H         1 UNK         0.0600 
    154 H154       -0.7813  -18.5303  -42.3912 H         1 UNK         0.3000 
    155 H155       -0.5528  -17.8535  -45.9093 H         1 UNK         0.0600 
    156 H156       -1.9329  -16.5185  -43.5202 H         1 UNK         0.0600 
    157 H157       -2.5975  -16.7584  -45.1270 H         1 UNK         0.0600 
    158 H158       -1.2637  -15.6386  -44.8885 H         1 UNK         0.0600 
    159 H159        0.7060  -16.5264  -43.7823 H         1 UNK         0.3000 
    160 H160        3.6649  -18.5580  -43.5638 H         1 UNK         0.0600 
    161 H161        3.0594  -15.7669  -44.6694 H         1 UNK         0.0600 
    162 H162        4.0045  -17.0190  -45.4613 H         1 UNK         0.0600 
    163 H163        4.6050  -16.2743  -43.9869 H         1 UNK         0.0600 
    164 H164        2.6412  -16.1968  -42.2197 H         1 UNK         0.3000 
    165 H165        1.2355  -17.9334  -39.4508 H         1 UNK         0.0600 
    166 H166        2.7925  -16.4650  -38.1962 H         1 UNK         0.0600 
    167 H167        3.6727  -17.8073  -38.9089 H         1 UNK         0.0600 
    168 H168        3.7679  -16.2113  -39.6439 H         1 UNK         0.0600 
    169 H169        1.5579  -15.1545  -40.0479 H         1 UNK         0.3000 
    170 H170       -1.3685  -14.7261  -42.0078 H         1 UNK         0.0600 
    171 H171       -2.2778  -14.8274  -39.6835 H         1 UNK         0.0600 
    172 H172       -0.8735  -13.9532  -39.0832 H         1 UNK         0.0600 
    173 H173       -2.0010  -13.1691  -40.1906 H         1 UNK         0.0600 
    174 H174        0.4091  -12.8261  -40.8990 H         1 UNK         0.3000 
    175 H175        1.9951  -11.8202  -41.9805 H         1 UNK         0.0600 
    176 H176        3.7217  -13.7230  -43.6486 H         1 UNK         0.0600 
    177 H177        4.2517  -12.2398  -42.8631 H         1 UNK         0.0600 
    178 H178        3.7435  -13.6130  -41.8929 H         1 UNK         0.0600 
    179 H179        2.3993  -12.0898  -44.8576 H         1 UNK         0.3000 
    180 H180        0.1240  -10.8732  -46.2100 H         1 UNK         0.0600 
    181 H181        0.8020   -8.1386  -45.0109 H         1 UNK         0.0600 
    182 H182       -0.8018   -8.8307  -45.2055 H         1 UNK         0.0600 
    183 H183        0.1389   -8.4020  -46.6234 H         1 UNK         0.0600 
    184 H184        2.0628  -10.7932  -47.2511 H         1 UNK         0.3000 
    185 H185        4.2537   -9.3531  -47.9300 H         1 UNK         0.0600 
    186 H186        5.7552   -8.3789  -46.2234 H         1 UNK         0.0600 
    187 H187        6.0000   -9.9588  -45.4866 H         1 UNK         0.0600 
    188 H188        6.5936   -9.6361  -47.1155 H         1 UNK         0.0600 
    189 H189        5.0713  -11.9052  -46.6833 H         1 UNK         0.3000 
    190 H190       -1.3712  -21.6771  -45.9699 H         1 UNK         0.3000 
    191 H191       -3.3850  -22.2993  -47.7514 H         1 UNK         0.0600 
    192 H192       -3.2843  -22.6936  -44.7238 H         1 UNK         0.0600 
    193 H193       -4.7587  -22.7752  -45.6809 H         1 UNK         0.0600 
    194 H194       -3.8602  -21.2739  -45.5987 H         1 UNK         0.0600 
    195 H195       -1.3567  -24.6172  -45.9976 H         1 UNK         0.3000 
    196 H196       -2.9774  -26.9463  -46.4706 H         1 UNK         0.0600 
    197 H197       -0.9171  -28.1665  -45.7779 H         1 UNK         0.0600 
    198 H198       -1.2691  -26.8485  -44.6701 H         1 UNK         0.0600 
    199 H199        0.0163  -26.6773  -45.8643 H         1 UNK         0.0600 
    200 H200       -0.3490  -25.3535  -48.2793 H         1 UNK         0.3000 
    201 H201       -0.1895  -27.4105  -50.3522 H         1 UNK         0.0600 
    202 H202        1.8202  -26.0971  -49.6980 H         1 UNK         0.0600 
    203 H203        1.0253  -24.5988  -50.1804 H         1 UNK         0.0600 
    204 H204        1.4178  -25.8179  -51.3855 H         1 UNK         0.0600 
    205 H205       -1.6673  -24.2147  -49.8962 H         1 UNK         0.3000 
    206 H206       -2.6854  -23.8985  -52.5534 H         1 UNK         0.0600 
    207 H207       -2.1565  -22.0622  -50.8514 H         1 UNK         0.0600 
    208 H208       -3.7279  -21.9192  -51.6144 H         1 UNK         0.0600 
    209 H209       -3.6082  -22.5334  -49.9728 H         1 UNK         0.0600 
    210 H210       -3.7235  -26.0131  -50.1641 H         1 UNK         0.3000 
    211 H211       -5.4943  -27.2689  -49.7280 H         1 UNK         0.0600 
    212 H212       -6.4331  -26.5929  -52.5679 H         1 UNK         0.0600 
    213 H213       -6.9972  -27.9352  -51.5831 H         1 UNK         0.0600 
    214 H214       -5.3292  -27.8948  -52.1322 H         1 UNK         0.0600 
    215 H215       -5.5941  -24.9928  -48.4814 H         1 UNK         0.3000 
    216 H216       -6.7736  -23.5644  -47.3056 H         1 UNK         0.0600 
    217 H217       -9.1513  -23.9187  -46.8264 H         1 UNK         0.0600 
    218 H218       -8.3370  -25.4736  -46.8625 H         1 UNK         0.0600 
    219 H219       -9.3371  -24.9667  -48.2236 H         1 UNK         0.0600 
    220 H220       -5.9129  -22.8695  -49.8348 H         1 UNK         0.3000 
    221 H221       -5.8413  -21.2033  -51.2950 H         1 UNK         0.0600 
    222 H222       -7.9290  -19.7746  -49.5719 H         1 UNK         0.0600 
    223 H223       -6.1818  -19.7006  -49.3478 H         1 UNK         0.0600 
    224 H224       -6.9120  -19.0411  -50.8028 H         1 UNK         0.0600 
    225 H225       -6.8336  -23.1279  -52.4697 H         1 UNK         0.3000 
    226 H226       -9.5557  -22.9525  -53.4173 H         1 UNK         0.0600 
    227 H227       -8.3884  -25.1071  -53.1591 H         1 UNK         0.0600 
    228 H228       -8.8288  -24.8706  -54.8427 H         1 UNK         0.0600 
    229 H229       -7.1612  -24.6278  -54.3295 H         1 UNK         0.0600 
    230 H230       -9.1135  -20.5870  -53.9226 H         1 UNK         0.3000 
    231 H231       -9.2998  -18.9226  -55.3490 H         1 UNK         0.0600 
    232 H232      -10.6506  -20.4766  -56.7801 H         1 UNK         0.0600 
    233 H233       -9.1933  -20.9139  -57.6723 H         1 UNK         0.0600 
    234 H234       -9.8009  -19.2674  -57.7263 H         1 UNK         0.0600 
    235 H235       -6.5110  -20.3836  -54.8128 H         1 UNK         0.3000 
    236 H236       -4.8653  -18.2716  -55.7757 H         1 UNK         0.0600 
    237 H237       -3.3713  -19.7344  -57.2076 H         1 UNK         0.0600 
    238 H238       -4.5242  -21.0570  -57.0593 H         1 UNK         0.0600 
    239 H239       -4.9620  -19.5869  -57.9241 H         1 UNK         0.0600 
    240 H240       -2.5463  -18.7866  -55.1071 H         1 UNK         0.3000 
    241 H241       -2.4937  -20.0849  -52.4914 H         1 UNK         0.0600 
    242 H242       -1.0960  -22.7831  -55.0810 H         1 UNK         0.3800 
    243 H243       -2.2273  -21.5329  -55.5229 H         1 UNK         0.3800 
    244 H244       -0.2474  -18.6296  -53.9504 H         1 UNK         0.0800 
    245 H245       -0.2151  -19.1970  -52.2962 H         1 UNK         0.0800 
    246 H246       -0.3513  -15.2096  -52.2428 H         1 UNK         0.0800 
    247 H247        0.6244  -16.4235  -53.0227 H         1 UNK         0.0800 
@<TRIPOS>BOND
     1    1    2 1    
     2    1  127 1    
     3    1  128 1    
     4    1  129 1    
     5    2    3 2    
     6    2    4 am   BACKBONE|DICT|INTERRES
     7    4    5 1    
     8    4  130 1    
     9    5    6 1    
    10    5   65 1    
    11    5  131 1    
    12    6    7 1    
    13    6  132 1    
    14    6  133 1    
    15    7    8 1    
    16    8    9 1    
    17    8  134 1    
    18    8  135 1    
    19    9   10 ar   
    20    9   14 ar   
    21   10   11 ar   
    22   10  136 1    
    23   11   12 ar   
    24   11  126 1    
    25   12   13 ar   
    26   12  137 1    
    27   13   14 ar   
    28   13   15 1    
    29   14  138 1    
    30   15   16 1    
    31   15  139 1    
    32   15  140 1    
    33   16   17 1    
    34   17   18 1    
    35   17  141 1    
    36   17  142 1    
    37   18   19 1    
    38   18   67 1    
    39   18  143 1    
    40   19   20 am   BACKBONE|DICT|INTERRES
    41   19  144 1    
    42   20   21 2    
    43   20   22 1    
    44   22   23 1    
    45   22   24 1    
    46   22  145 1    
    47   23  146 1    
    48   23  147 1    
    49   23  148 1    
    50   24   25 am   BACKBONE|DICT|INTERRES
    51   24  149 1    
    52   25   26 2    
    53   25   27 1    
    54   27   28 1    
    55   27   29 1    
    56   27  150 1    
    57   28  151 1    
    58   28  152 1    
    59   28  153 1    
    60   29   30 am   BACKBONE|DICT|INTERRES
    61   29  154 1    
    62   30   31 2    
    63   30   32 1    
    64   32   33 1    
    65   32   34 1    
    66   32  155 1    
    67   33  156 1    
    68   33  157 1    
    69   33  158 1    
    70   34   35 am   BACKBONE|DICT|INTERRES
    71   34  159 1    
    72   35   36 2    
    73   35   37 1    
    74   37   38 1    
    75   37   39 1    
    76   37  160 1    
    77   38  161 1    
    78   38  162 1    
    79   38  163 1    
    80   39   40 am   BACKBONE|DICT|INTERRES
    81   39  164 1    
    82   40   41 2    
    83   40   42 1    
    84   42   43 1    
    85   42   44 1    
    86   42  165 1    
    87   43  166 1    
    88   43  167 1    
    89   43  168 1    
    90   44   45 am   BACKBONE|DICT|INTERRES
    91   44  169 1    
    92   45   46 2    
    93   45   47 1    
    94   47   48 1    
    95   47   49 1    
    96   47  170 1    
    97   48  171 1    
    98   48  172 1    
    99   48  173 1    
   100   49   50 am   BACKBONE|DICT|INTERRES
   101   49  174 1    
   102   50   51 2    
   103   50   52 1    
   104   52   53 1    
   105   52   54 1    
   106   52  175 1    
   107   53  176 1    
   108   53  177 1    
   109   53  178 1    
   110   54   55 am   BACKBONE|DICT|INTERRES
   111   54  179 1    
   112   55   56 2    
   113   55   57 1    
   114   57   58 1    
   115   57   59 1    
   116   57  180 1    
   117   58  181 1    
   118   58  182 1    
   119   58  183 1    
   120   59   60 am   BACKBONE|DICT|INTERRES
   121   59  184 1    
   122   60   61 2    
   123   60   62 1    
   124   62   63 1    
   125   62   64 1    
   126   62  185 1    
   127   63  186 1    
   128   63  187 1    
   129   63  188 1    
   130   64   65 am   BACKBONE|DICT|INTERRES
   131   64  189 1    
   132   65   66 2    
   133   67   68 2    
   134   67   69 am   BACKBONE|DICT|INTERRES
   135   69   70 1    
   136   69  190 1    
   137   70   71 1    
   138   70   72 1    
   139   70  191 1    
   140   71  192 1    
   141   71  193 1    
   142   71  194 1    
   143   72   73 2    
   144   72   74 am   BACKBONE|DICT|INTERRES
   145   74   75 1    
   146   74  195 1    
   147   75   76 1    
   148   75   77 1    
   149   75  196 1    
   150   76  197 1    
   151   76  198 1    
   152   76  199 1    
   153   77   78 2    
   154   77   79 am   BACKBONE|DICT|INTERRES
   155   79   80 1    
   156   79  200 1    
   157   80   81 1    
   158   80   82 1    
   159   80  201 1    
   160   81  202 1    
   161   81  203 1    
   162   81  204 1    
   163   82   83 2    
   164   82   84 am   BACKBONE|DICT|INTERRES
   165   84   85 1    
   166   84  205 1    
   167   85   86 1    
   168   85   87 1    
   169   85  206 1    
   170   86  207 1    
   171   86  208 1    
   172   86  209 1    
   173   87   88 2    
   174   87   89 am   BACKBONE|DICT|INTERRES
   175   89   90 1    
   176   89  210 1    
   177   90   91 1    
   178   90   92 1    
   179   90  211 1    
   180   91  212 1    
   181   91  213 1    
   182   91  214 1    
   183   92   93 2    
   184   92   94 am   BACKBONE|DICT|INTERRES
   185   94   95 1    
   186   94  215 1    
   187   95   96 1    
   188   95   97 1    
   189   95  216 1    
   190   96  217 1    
   191   96  218 1    
   192   96  219 1    
   193   97   98 2    
   194   97   99 am   BACKBONE|DICT|INTERRES
   195   99  100 1    
   196   99  220 1    
   197  100  101 1    
   198  100  102 1    
   199  100  221 1    
   200  101  222 1    
   201  101  223 1    
   202  101  224 1    
   203  102  103 2    
   204  102  104 am   BACKBONE|DICT|INTERRES
   205  104  105 1    
   206  104  225 1    
   207  105  106 1    
   208  105  107 1    
   209  105  226 1    
   210  106  227 1    
   211  106  228 1    
   212  106  229 1    
   213  107  108 2    
   214  107  109 am   BACKBONE|DICT|INTERRES
   215  109  110 1    
   216  109  230 1    
   217  110  111 1    
   218  110  112 1    
   219  110  231 1    
   220  111  232 1    
   221  111  233 1    
   222  111  234 1    
   223  112  113 2    
   224  112  114 am   BACKBONE|DICT|INTERRES
   225  114  115 1    
   226  114  235 1    
   227  115  116 1    
   228  115  117 1    
   229  115  236 1    
   230  116  237 1    
   231  116  238 1    
   232  116  239 1    
   233  117  118 2    
   234  117  119 am   BACKBONE|DICT|INTERRES
   235  119  120 1    
   236  119  240 1    
   237  120  121 1    
   238  120  124 1    
   239  120  241 1    
   240  121  122 am   BACKBONE|DICT|INTERRES
   241  121  123 2    
   242  122  242 1    
   243  122  243 1    
   244  124  125 1    
   245  124  244 1    
   246  124  245 1    
   247  125  126 1    
   248  126  246 1    
   249  126  247 1    
@<TRIPOS>SUBSTRUCTURE
     1 UNK         1 GROUP             0       ****    0 ROOT    
