@<TRIPOS>MOLECULE
3R540
247   249    1
SMALL
USER_CHARGES


@<TRIPOS>ATOM
      1 CA          0.5363   -9.7153  -45.8830 C.3       0 UNK        -0.1800 
      2 C           1.1428  -10.3116  -47.1447 C.2       0 UNK         0.5000 
      3 O           2.1012   -9.7574  -47.6811 O.2       0 UNK        -0.5000 
      4 N           0.5885  -11.4369  -47.6156 N.am      1 UNK        -0.5000 
      5 CA          0.9845  -12.1226  -48.8533 C.3       1 UNK         0.1400 
      6 C6         -0.0301  -13.2331  -49.2194 C.3       23 UNK        -0.0398 
      7 S7         -0.0419  -13.6367  -50.9963 S.3       23 UNK        -0.2404 
      8 C8         -0.7920  -15.2924  -50.9633 C.3       23 UNK        -0.0205 
      9 C9          0.2440  -16.4021  -51.0523 C.ar      23 UNK        -0.0193 
     10 C10         0.5022  -17.0043  -52.2849 C.ar      23 UNK        -0.1150 
     11 C11         1.3863  -18.0810  -52.3780 C.ar      23 UNK        -0.0193 
     12 C12         2.0471  -18.5308  -51.2321 C.ar      23 UNK        -0.1150 
     13 C13         1.8000  -17.9387  -49.9886 C.ar      23 UNK        -0.0193 
     14 C14         0.9013  -16.8682  -49.9095 C.ar      23 UNK        -0.1150 
     15 C15         2.5030  -18.4338  -48.7270 C.3       23 UNK        -0.0205 
     16 S16         2.5679  -20.2513  -48.5548 S.3       23 UNK        -0.2404 
     17 C17         0.8105  -20.7290  -48.6447 C.3       23 UNK        -0.0398 
     18 CA          0.5042  -21.9733  -47.7720 C.3       11 UNK         0.1400 
     19 N           0.4474  -21.6755  -46.3360 N.am      11 UNK        -0.5000 
     20 C           0.3002  -22.5939  -45.3686 C.2       10 UNK         0.5000 
     21 O           0.2819  -23.8076  -45.5745 O.2       10 UNK        -0.5000 
     22 CA          0.0762  -22.0765  -43.9354 C.3       10 UNK         0.1400 
     23 CB          1.4046  -21.6884  -43.2695 C.3       10 UNK        -0.1800 
     24 N          -0.8635  -20.9548  -43.8820 N.am      10 UNK        -0.5000 
     25 C          -2.1597  -21.0415  -44.2168 C.2       9 UNK         0.5000 
     26 O          -2.7076  -22.0911  -44.5511 O.2       9 UNK        -0.5000 
     27 CA         -2.9749  -19.7347  -44.2255 C.3       9 UNK         0.1400 
     28 CB         -3.4495  -19.3734  -42.8105 C.3       9 UNK        -0.1800 
     29 N          -2.2379  -18.6111  -44.8037 N.am      9 UNK        -0.5000 
     30 C          -1.8021  -18.5619  -46.0706 C.2       8 UNK         0.5000 
     31 O          -2.0285  -19.4390  -46.9026 O.2       8 UNK        -0.5000 
     32 CA         -0.9012  -17.3713  -46.4488 C.3       8 UNK         0.1400 
     33 CB         -1.7313  -16.1156  -46.7516 C.3       8 UNK        -0.1800 
     34 N           0.0952  -17.0733  -45.4160 N.am      8 UNK        -0.5000 
     35 C           1.0483  -17.9315  -45.0221 C.2       7 UNK         0.5000 
     36 O           1.2286  -19.0313  -45.5398 O.2       7 UNK        -0.5000 
     37 CA          1.8995  -17.5254  -43.8092 C.3       7 UNK         0.1400 
     38 CB          3.0508  -16.5975  -44.2189 C.3       7 UNK        -0.1800 
     39 N           1.0842  -16.8875  -42.7779 N.am      7 UNK        -0.5000 
     40 C           0.2233  -17.5480  -41.9904 C.2       6 UNK         0.5000 
     41 O           0.0700  -18.7686  -42.0224 O.2       6 UNK        -0.5000 
     42 CA         -0.6378  -16.6987  -41.0363 C.3       6 UNK         0.1400 
     43 CB          0.0967  -16.4681  -39.7075 C.3       6 UNK        -0.1800 
     44 N          -1.0135  -15.4060  -41.6125 N.am      6 UNK        -0.5000 
     45 C          -1.8216  -15.2557  -42.6715 C.2       5 UNK         0.5000 
     46 O          -2.3749  -16.1933  -43.2437 O.2       5 UNK        -0.5000 
     47 CA         -1.9953  -13.8256  -43.2162 C.3       5 UNK         0.1400 
     48 CB         -3.1727  -13.1235  -42.5244 C.3       5 UNK        -0.1800 
     49 N          -0.7902  -13.0007  -43.0805 N.am      5 UNK        -0.5000 
     50 C           0.3835  -13.2558  -43.6745 C.2       4 UNK         0.5000 
     51 O           0.5744  -14.2313  -44.4028 O.2       4 UNK        -0.5000 
     52 CA          1.5455  -12.2837  -43.4132 C.3       4 UNK         0.1400 
     53 CB          1.1827  -11.0691  -42.5330 C.3       4 UNK        -0.1800 
     54 N           2.6407  -13.0226  -42.7872 N.am      4 UNK        -0.5000 
     55 C           3.9594  -12.8841  -42.9829 C.2       3 UNK         0.5000 
     56 O           4.7646  -13.5334  -42.3158 O.2       3 UNK        -0.5000 
     57 CA          4.4756  -11.9155  -44.0767 C.3       3 UNK         0.1400 
     58 CB          5.9736  -11.5796  -43.9171 C.3       3 UNK        -0.1800 
     59 N           4.2064  -12.4118  -45.4331 N.am      3 UNK        -0.5000 
     60 C           4.5966  -13.5784  -45.9728 C.2       2 UNK         0.5000 
     61 O           5.3112  -14.4005  -45.3999 O.2       2 UNK        -0.5000 
     62 CA          4.0954  -13.8689  -47.3993 C.3       2 UNK         0.1400 
     63 CB          3.9961  -15.3723  -47.7174 C.3       2 UNK        -0.1800 
     64 N           2.7955  -13.2426  -47.6403 N.am      2 UNK        -0.5000 
     65 C           2.4236  -12.6795  -48.7965 C.2       1 UNK         0.5000 
     66 O           3.1596  -12.5766  -49.7790 O.2       1 UNK        -0.5000 
     67 C          -0.7771  -22.6848  -48.2484 C.2       11 UNK         0.5000 
     68 O          -0.6768  -23.7562  -48.8459 O.2       11 UNK        -0.5000 
     69 N          -1.9478  -22.1192  -47.9197 N.am      12 UNK        -0.5000 
     70 CA         -3.2590  -22.6742  -48.2578 C.3       12 UNK         0.1400 
     71 CB         -4.3592  -21.6987  -47.8164 C.3       12 UNK        -0.1800 
     72 C          -3.5015  -24.0740  -47.6639 C.2       12 UNK         0.5000 
     73 O          -4.0456  -24.9384  -48.3510 O.2       12 UNK        -0.5000 
     74 N          -3.0669  -24.2856  -46.4137 N.am      13 UNK        -0.5000 
     75 CA         -3.1116  -25.5761  -45.7278 C.3       13 UNK         0.1400 
     76 CB         -2.7640  -25.3874  -44.2437 C.3       13 UNK        -0.1800 
     77 C          -2.1915  -26.6256  -46.3772 C.2       13 UNK         0.5000 
     78 O          -2.6132  -27.7693  -46.5491 O.2       13 UNK        -0.5000 
     79 N          -0.9698  -26.2183  -46.7509 N.am      14 UNK        -0.5000 
     80 CA          0.0121  -27.0600  -47.4388 C.3       14 UNK         0.1400 
     81 CB          1.3773  -26.3555  -47.4519 C.3       14 UNK        -0.1800 
     82 C          -0.4235  -27.4413  -48.8662 C.2       14 UNK         0.5000 
     83 O          -0.2411  -28.5902  -49.2709 O.2       14 UNK        -0.5000 
     84 N          -1.0154  -26.4824  -49.5909 N.am      15 UNK        -0.5000 
     85 CA         -1.5974  -26.6749  -50.9211 C.3       15 UNK         0.1400 
     86 CB         -1.8354  -25.2987  -51.5612 C.3       15 UNK        -0.1800 
     87 C          -2.9104  -27.4827  -50.9022 C.2       15 UNK         0.5000 
     88 O          -3.2904  -28.0367  -51.9343 O.2       15 UNK        -0.5000 
     89 N          -3.5785  -27.5150  -49.7398 N.am      16 UNK        -0.5000 
     90 CA         -4.8946  -28.1010  -49.4680 C.3       16 UNK         0.1400 
     91 CB         -4.8775  -29.6304  -49.6696 C.3       16 UNK        -0.1800 
     92 C          -6.0359  -27.3968  -50.2346 C.2       16 UNK         0.5000 
     93 O          -7.0570  -28.0194  -50.5330 O.2       16 UNK        -0.5000 
     94 N          -5.8470  -26.1050  -50.5244 N.am      17 UNK        -0.5000 
     95 CA         -6.7690  -25.2243  -51.2285 C.3       17 UNK         0.1400 
     96 CB         -6.8485  -25.5918  -52.7224 C.3       17 UNK        -0.1800 
     97 C          -6.2597  -23.7897  -51.0599 C.2       17 UNK         0.5000 
     98 O          -5.0542  -23.5603  -51.1686 O.2       17 UNK        -0.5000 
     99 N          -7.1809  -22.8470  -50.8357 N.am      18 UNK        -0.5000 
    100 CA        -6.8953  -21.4251  -50.6188 C.3       18 UNK         0.1400 
    101 CB        -7.8308  -20.8971  -49.5168 C.3       18 UNK        -0.1800 
    102 C         -7.0012  -20.5888  -51.9104 C.2       18 UNK         0.5000 
    103 O         -7.2061  -19.3757  -51.8334 O.2       18 UNK        -0.5000 
    104 N         -6.8632  -21.2396  -53.0751 N.am      19 UNK        -0.5000 
    105 CA        -6.8923  -20.6354  -54.4090 C.3       19 UNK         0.1400 
    106 CB        -6.6584  -21.7323  -55.4588 C.3       19 UNK        -0.1800 
    107 C         -5.8470  -19.5138  -54.5470 C.2       19 UNK         0.5000 
    108 O         -4.6581  -19.7702  -54.3412 O.2       19 UNK        -0.5000 
    109 N         -6.3220  -18.2871  -54.8104 N.am      20 UNK        -0.5000 
    110 CA        -5.5558  -17.0331  -54.8883 C.3       20 UNK         0.1400 
    111 CB        -4.6457  -17.0447  -56.1344 C.3       20 UNK        -0.1800 
    112 C         -4.7736  -16.6897  -53.5970 C.2       20 UNK         0.5000 
    113 O         -3.7780  -15.9680  -53.6614 O.2       20 UNK        -0.5000 
    114 N         -5.2091  -17.2554  -52.4591 N.am      21 UNK        -0.5000 
    115 CA        -4.5505  -17.2833  -51.1466 C.3       21 UNK         0.1400 
    116 CB        -4.4098  -15.8656  -50.5549 C.3       21 UNK        -0.1800 
    117 C         -3.2289  -18.0882  -51.1091 C.2       21 UNK         0.5000 
    118 O         -2.5977  -18.1478  -50.0549 O.2       21 UNK        -0.5000 
    119 N         -2.8553  -18.7189  -52.2302 N.am      22 UNK        -0.5000 
    120 CA        -1.7577  -19.6868  -52.3401 C.3       22 UNK         0.1400 
    121 C         -2.2240  -21.1182  -51.9646 C.2       22 UNK         0.5000 
    122 N         -3.4492  -21.5033  -52.3024 N.am      22 UNK        -0.7600 
    123 O         -1.4795  -21.8684  -51.3465 O.2       22 UNK        -0.5000 
    124 C124       -1.1239  -19.6440  -53.7570 C.3       23 UNK        -0.0398 
    125 S125        0.5796  -20.3062  -53.8094 S.3       23 UNK        -0.2404 
    126 C126        1.5868  -18.7899  -53.7075 C.3       23 UNK        -0.0205 
    127 H127        1.3147   -9.5268  -45.1439 H         1 UNK         0.0600 
    128 H128       -0.2092  -10.3753  -45.4391 H         1 UNK         0.0600 
    129 H129        0.0537   -8.7660  -46.1151 H         1 UNK         0.0600 
    130 H130       -0.2048  -11.8312  -47.1310 H         1 UNK         0.3000 
    131 H131        0.9613  -11.3668  -49.6418 H         1 UNK         0.0600 
    132 H132        0.1509  -14.1340  -48.6327 H         1 UNK         0.0800 
    133 H133       -1.0432  -12.9128  -48.9713 H         1 UNK         0.0800 
    134 H134       -1.4004  -15.4219  -50.0670 H         1 UNK         0.0800 
    135 H135       -1.4819  -15.3698  -51.8051 H         1 UNK         0.0800 
    136 H136       -0.0175  -16.6580  -53.1671 H         1 UNK         0.1150 
    137 H137        2.7323  -19.3634  -51.3058 H         1 UNK         0.1150 
    138 H138        0.7045  -16.4010  -48.9566 H         1 UNK         0.1150 
    139 H139        3.5264  -18.0587  -48.7343 H         1 UNK         0.0800 
    140 H140        2.0304  -18.0162  -47.8395 H         1 UNK         0.0800 
    141 H141        0.5924  -20.9243  -49.6968 H         1 UNK         0.0800 
    142 H142        0.1790  -19.8880  -48.3570 H         1 UNK         0.0800 
    143 H143        1.3176  -22.6886  -47.9128 H         1 UNK         0.0600 
    144 H144        0.5203  -20.6957  -46.0729 H         1 UNK         0.3000 
    145 H145       -0.3580  -22.8939  -43.3558 H         1 UNK         0.0600 
    146 H146        1.2507  -21.3688  -42.2388 H         1 UNK         0.0600 
    147 H147        2.0898  -22.5366  -43.2487 H         1 UNK         0.0600 
    148 H148        1.9049  -20.8791  -43.7998 H         1 UNK         0.0600 
    149 H149       -0.4944  -20.0637  -43.5708 H         1 UNK         0.3000 
    150 H150       -3.8588  -19.9008  -44.8444 H         1 UNK         0.0600 
    151 H151       -4.0342  -20.1855  -42.3766 H         1 UNK         0.0600 
    152 H152       -4.0825  -18.4860  -42.8216 H         1 UNK         0.0600 
    153 H153       -2.6122  -19.1783  -42.1410 H         1 UNK         0.0600 
    154 H154       -2.0650  -17.8159  -44.1948 H         1 UNK         0.3000 
    155 H155       -0.3647  -17.6495  -47.3562 H         1 UNK         0.0600 
    156 H156       -2.3654  -15.8359  -45.9108 H         1 UNK         0.0600 
    157 H157       -1.0930  -15.2646  -46.9843 H         1 UNK         0.0600 
    158 H158       -2.3819  -16.2838  -47.6107 H         1 UNK         0.0600 
    159 H159        0.0338  -16.1712  -44.9579 H         1 UNK         0.3000 
    160 H160        2.3381  -18.4328  -43.3884 H         1 UNK         0.0600 
    161 H161        2.6913  -15.6764  -44.6753 H         1 UNK         0.0600 
    162 H162        3.7043  -17.0863  -44.9424 H         1 UNK         0.0600 
    163 H163        3.6658  -16.3250  -43.3611 H         1 UNK         0.0600 
    164 H164        1.1013  -15.8797  -42.7463 H         1 UNK         0.3000 
    165 H165       -1.5532  -17.2568  -40.8287 H         1 UNK         0.0600 
    166 H166       -0.5323  -15.9312  -38.9972 H         1 UNK         0.0600 
    167 H167        0.3709  -17.4169  -39.2442 H         1 UNK         0.0600 
    168 H168        1.0135  -15.8937  -39.8465 H         1 UNK         0.0600 
    169 H169       -0.6124  -14.5817  -41.1908 H         1 UNK         0.3000 
    170 H170       -2.2250  -13.9064  -44.2806 H         1 UNK         0.0600 
    171 H171       -4.0896  -13.7054  -42.6281 H         1 UNK         0.0600 
    172 H172       -2.9902  -12.9853  -41.4580 H         1 UNK         0.0600 
    173 H173       -3.3606  -12.1434  -42.9634 H         1 UNK         0.0600 
    174 H174       -0.8703  -12.1816  -42.4953 H         1 UNK         0.3000 
    175 H175        1.8325  -11.9200  -44.3978 H         1 UNK         0.0600 
    176 H176        0.9106  -11.3683  -41.5200 H         1 UNK         0.0600 
    177 H177        2.0233  -10.3799  -42.4521 H         1 UNK         0.0600 
    178 H178        0.3502  -10.5018  -42.9506 H         1 UNK         0.0600 
    179 H179        2.3483  -13.6992  -42.0992 H         1 UNK         0.3000 
    180 H180        3.9340  -10.9758  -43.9643 H         1 UNK         0.0600 
    181 H181        6.6062  -12.4618  -44.0199 H         1 UNK         0.0600 
    182 H182        6.1725  -11.1487  -42.9352 H         1 UNK         0.0600 
    183 H183        6.2944  -10.8513  -44.6619 H         1 UNK         0.0600 
    184 H184        3.6614  -11.7972  -46.0207 H         1 UNK         0.3000 
    185 H185        4.8445  -13.4319  -48.0628 H         1 UNK         0.0600 
    186 H186        4.9462  -15.8811  -47.5515 H         1 UNK         0.0600 
    187 H187        3.2429  -15.8615  -47.1003 H         1 UNK         0.0600 
    188 H188        3.7246  -15.5312  -48.7612 H         1 UNK         0.0600 
    189 H189        2.1315  -13.2850  -46.8798 H         1 UNK         0.3000 
    190 H190       -1.9449  -21.2196  -47.4434 H         1 UNK         0.3000 
    191 H191       -3.3006  -22.7670  -49.3440 H         1 UNK         0.0600 
    192 H192       -4.3159  -21.5021  -46.7453 H         1 UNK         0.0600 
    193 H193       -5.3478  -22.1030  -48.0345 H         1 UNK         0.0600 
    194 H194       -4.2694  -20.7444  -48.3362 H         1 UNK         0.0600 
    195 H195       -2.6870  -23.5030  -45.8885 H         1 UNK         0.3000 
    196 H196       -4.1358  -25.9501  -45.7890 H         1 UNK         0.0600 
    197 H197       -2.8032  -26.3372  -43.7089 H         1 UNK         0.0600 
    198 H198       -3.4675  -24.7112  -43.7578 H         1 UNK         0.0600 
    199 H199       -1.7624  -24.9771  -44.1129 H         1 UNK         0.0600 
    200 H200       -0.6844  -25.2654  -46.5444 H         1 UNK         0.3000 
    201 H201        0.1170  -27.9849  -46.8677 H         1 UNK         0.0600 
    202 H202        1.7279  -26.1585  -46.4386 H         1 UNK         0.0600 
    203 H203        1.3351  -25.4029  -47.9807 H         1 UNK         0.0600 
    204 H204        2.1309  -26.9719  -47.9435 H         1 UNK         0.0600 
    205 H205       -1.0558  -25.5379  -49.2109 H         1 UNK         0.3000 
    206 H206       -0.8803  -27.2214  -51.5368 H         1 UNK         0.0600 
    207 H207       -0.9036  -24.7413  -51.6590 H         1 UNK         0.0600 
    208 H208       -2.2649  -25.3939  -52.5591 H         1 UNK         0.0600 
    209 H209       -2.5203  -24.6935  -50.9658 H         1 UNK         0.0600 
    210 H210       -3.1900  -26.9769  -48.9758 H         1 UNK         0.3000 
    211 H211       -5.0867  -27.9135  -48.4106 H         1 UNK         0.0600 
    212 H212       -4.7707  -29.9013  -50.7202 H         1 UNK         0.0600 
    213 H213       -5.8025  -30.0819  -49.3095 H         1 UNK         0.0600 
    214 H214       -4.0572  -30.0903  -49.1182 H         1 UNK         0.0600 
    215 H215       -5.0061  -25.6476  -50.1840 H         1 UNK         0.3000 
    216 H216       -7.7575  -25.3134  -50.7736 H         1 UNK         0.0600 
    217 H217       -5.8656  -25.5586  -53.1946 H         1 UNK         0.0600 
    218 H218       -7.4971  -24.9007  -53.2620 H         1 UNK         0.0600 
    219 H219       -7.2543  -26.5927  -52.8682 H         1 UNK         0.0600 
    220 H220       -8.1554  -23.1119  -50.8017 H         1 UNK         0.3000 
    221 H221       -5.8688  -21.3074  -50.2678 H         1 UNK         0.0600 
    222 H222       -7.7431  -21.4902  -48.6065 H         1 UNK         0.0600 
    223 H223       -8.8747  -20.9188  -49.8317 H         1 UNK         0.0600 
    224 H224       -7.5872  -19.8672  -49.2523 H         1 UNK         0.0600 
    225 H225       -6.6769  -22.2300  -53.0375 H         1 UNK         0.3000 
    226 H226       -7.8891  -20.2180  -54.5635 H         1 UNK         0.0600 
    227 H227       -7.4284  -22.5021  -55.4046 H         1 UNK         0.0600 
    228 H228       -6.6831  -21.3185  -56.4677 H         1 UNK         0.0600 
    229 H229       -5.6898  -22.2166  -55.3262 H         1 UNK         0.0600 
    230 H230       -7.3214  -18.1817  -54.9200 H         1 UNK         0.3000 
    231 H231       -6.2867  -16.2340  -55.0184 H         1 UNK         0.0600 
    232 H232       -3.8430  -17.7772  -56.0420 H         1 UNK         0.0600 
    233 H233       -4.1821  -16.0703  -56.2925 H         1 UNK         0.0600 
    234 H234       -5.2127  -17.2807  -57.0348 H         1 UNK         0.0600 
    235 H235       -6.0319  -17.8479  -52.5165 H         1 UNK         0.3000 
    236 H236       -5.2318  -17.8318  -50.4946 H         1 UNK         0.0600 
    237 H237       -3.9966  -15.8996  -49.5465 H         1 UNK         0.0600 
    238 H238       -3.7578  -15.2310  -51.1529 H         1 UNK         0.0600 
    239 H239       -5.3799  -15.3735  -50.4880 H         1 UNK         0.0600 
    240 H240       -3.4693  -18.6687  -53.0335 H         1 UNK         0.3000 
    241 H241       -0.9916  -19.4045  -51.6158 H         1 UNK         0.0600 
    242 H242       -3.8011  -22.4044  -51.9931 H         1 UNK         0.3800 
    243 H243       -4.0110  -20.9182  -52.9097 H         1 UNK         0.3800 
    244 H244       -1.1020  -18.6192  -54.1288 H         1 UNK         0.0800 
    245 H245       -1.7376  -20.1936  -54.4732 H         1 UNK         0.0800 
    246 H246        1.3415  -18.1293  -54.5406 H         1 UNK         0.0800 
    247 H247        2.6387  -19.0536  -53.8258 H         1 UNK         0.0800 
@<TRIPOS>BOND
     1    1    2 1    
     2    1  127 1    
     3    1  128 1    
     4    1  129 1    
     5    2    3 2    
     6    2    4 am   BACKBONE|DICT|INTERRES
     7    4    5 1    
     8    4  130 1    
     9    5    6 1    
    10    5   65 1    
    11    5  131 1    
    12    6    7 1    
    13    6  132 1    
    14    6  133 1    
    15    7    8 1    
    16    8    9 1    
    17    8  134 1    
    18    8  135 1    
    19    9   10 ar   
    20    9   14 ar   
    21   10   11 ar   
    22   10  136 1    
    23   11   12 ar   
    24   11  126 1    
    25   12   13 ar   
    26   12  137 1    
    27   13   14 ar   
    28   13   15 1    
    29   14  138 1    
    30   15   16 1    
    31   15  139 1    
    32   15  140 1    
    33   16   17 1    
    34   17   18 1    
    35   17  141 1    
    36   17  142 1    
    37   18   19 1    
    38   18   67 1    
    39   18  143 1    
    40   19   20 am   BACKBONE|DICT|INTERRES
    41   19  144 1    
    42   20   21 2    
    43   20   22 1    
    44   22   23 1    
    45   22   24 1    
    46   22  145 1    
    47   23  146 1    
    48   23  147 1    
    49   23  148 1    
    50   24   25 am   BACKBONE|DICT|INTERRES
    51   24  149 1    
    52   25   26 2    
    53   25   27 1    
    54   27   28 1    
    55   27   29 1    
    56   27  150 1    
    57   28  151 1    
    58   28  152 1    
    59   28  153 1    
    60   29   30 am   BACKBONE|DICT|INTERRES
    61   29  154 1    
    62   30   31 2    
    63   30   32 1    
    64   32   33 1    
    65   32   34 1    
    66   32  155 1    
    67   33  156 1    
    68   33  157 1    
    69   33  158 1    
    70   34   35 am   BACKBONE|DICT|INTERRES
    71   34  159 1    
    72   35   36 2    
    73   35   37 1    
    74   37   38 1    
    75   37   39 1    
    76   37  160 1    
    77   38  161 1    
    78   38  162 1    
    79   38  163 1    
    80   39   40 am   BACKBONE|DICT|INTERRES
    81   39  164 1    
    82   40   41 2    
    83   40   42 1    
    84   42   43 1    
    85   42   44 1    
    86   42  165 1    
    87   43  166 1    
    88   43  167 1    
    89   43  168 1    
    90   44   45 am   BACKBONE|DICT|INTERRES
    91   44  169 1    
    92   45   46 2    
    93   45   47 1    
    94   47   48 1    
    95   47   49 1    
    96   47  170 1    
    97   48  171 1    
    98   48  172 1    
    99   48  173 1    
   100   49   50 am   BACKBONE|DICT|INTERRES
   101   49  174 1    
   102   50   51 2    
   103   50   52 1    
   104   52   53 1    
   105   52   54 1    
   106   52  175 1    
   107   53  176 1    
   108   53  177 1    
   109   53  178 1    
   110   54   55 am   BACKBONE|DICT|INTERRES
   111   54  179 1    
   112   55   56 2    
   113   55   57 1    
   114   57   58 1    
   115   57   59 1    
   116   57  180 1    
   117   58  181 1    
   118   58  182 1    
   119   58  183 1    
   120   59   60 am   BACKBONE|DICT|INTERRES
   121   59  184 1    
   122   60   61 2    
   123   60   62 1    
   124   62   63 1    
   125   62   64 1    
   126   62  185 1    
   127   63  186 1    
   128   63  187 1    
   129   63  188 1    
   130   64   65 am   BACKBONE|DICT|INTERRES
   131   64  189 1    
   132   65   66 2    
   133   67   68 2    
   134   67   69 am   BACKBONE|DICT|INTERRES
   135   69   70 1    
   136   69  190 1    
   137   70   71 1    
   138   70   72 1    
   139   70  191 1    
   140   71  192 1    
   141   71  193 1    
   142   71  194 1    
   143   72   73 2    
   144   72   74 am   BACKBONE|DICT|INTERRES
   145   74   75 1    
   146   74  195 1    
   147   75   76 1    
   148   75   77 1    
   149   75  196 1    
   150   76  197 1    
   151   76  198 1    
   152   76  199 1    
   153   77   78 2    
   154   77   79 am   BACKBONE|DICT|INTERRES
   155   79   80 1    
   156   79  200 1    
   157   80   81 1    
   158   80   82 1    
   159   80  201 1    
   160   81  202 1    
   161   81  203 1    
   162   81  204 1    
   163   82   83 2    
   164   82   84 am   BACKBONE|DICT|INTERRES
   165   84   85 1    
   166   84  205 1    
   167   85   86 1    
   168   85   87 1    
   169   85  206 1    
   170   86  207 1    
   171   86  208 1    
   172   86  209 1    
   173   87   88 2    
   174   87   89 am   BACKBONE|DICT|INTERRES
   175   89   90 1    
   176   89  210 1    
   177   90   91 1    
   178   90   92 1    
   179   90  211 1    
   180   91  212 1    
   181   91  213 1    
   182   91  214 1    
   183   92   93 2    
   184   92   94 am   BACKBONE|DICT|INTERRES
   185   94   95 1    
   186   94  215 1    
   187   95   96 1    
   188   95   97 1    
   189   95  216 1    
   190   96  217 1    
   191   96  218 1    
   192   96  219 1    
   193   97   98 2    
   194   97   99 am   BACKBONE|DICT|INTERRES
   195   99  100 1    
   196   99  220 1    
   197  100  101 1    
   198  100  102 1    
   199  100  221 1    
   200  101  222 1    
   201  101  223 1    
   202  101  224 1    
   203  102  103 2    
   204  102  104 am   BACKBONE|DICT|INTERRES
   205  104  105 1    
   206  104  225 1    
   207  105  106 1    
   208  105  107 1    
   209  105  226 1    
   210  106  227 1    
   211  106  228 1    
   212  106  229 1    
   213  107  108 2    
   214  107  109 am   BACKBONE|DICT|INTERRES
   215  109  110 1    
   216  109  230 1    
   217  110  111 1    
   218  110  112 1    
   219  110  231 1    
   220  111  232 1    
   221  111  233 1    
   222  111  234 1    
   223  112  113 2    
   224  112  114 am   BACKBONE|DICT|INTERRES
   225  114  115 1    
   226  114  235 1    
   227  115  116 1    
   228  115  117 1    
   229  115  236 1    
   230  116  237 1    
   231  116  238 1    
   232  116  239 1    
   233  117  118 2    
   234  117  119 am   BACKBONE|DICT|INTERRES
   235  119  120 1    
   236  119  240 1    
   237  120  121 1    
   238  120  124 1    
   239  120  241 1    
   240  121  122 am   BACKBONE|DICT|INTERRES
   241  121  123 2    
   242  122  242 1    
   243  122  243 1    
   244  124  125 1    
   245  124  244 1    
   246  124  245 1    
   247  125  126 1    
   248  126  246 1    
   249  126  247 1    
@<TRIPOS>SUBSTRUCTURE
     1 UNK         1 GROUP             0       ****    0 ROOT    
