@<TRIPOS>MOLECULE
3R540
247   249    1
SMALL
USER_CHARGES


@<TRIPOS>ATOM
      1 CA          0.7981  -13.9810  -52.8806 C.3       0 UNK        -0.1800 
      2 C           1.8402  -13.5522  -51.8602 C.2       0 UNK         0.5000 
      3 O           2.4764  -12.5119  -52.0295 O.2       0 UNK        -0.5000 
      4 N           2.0115  -14.3506  -50.7987 N.am      1 UNK        -0.5000 
      5 CA          2.9232  -14.0710  -49.6795 C.3       1 UNK         0.1400 
      6 C6          3.1993  -15.3517  -48.8401 C.3       23 UNK        -0.0398 
      7 S7          4.9338  -15.9037  -48.9491 S.3       23 UNK        -0.2404 
      8 C8          4.9843  -16.6878  -50.5944 C.3       23 UNK        -0.0205 
      9 C9          4.0655  -17.8964  -50.6940 C.ar      23 UNK        -0.0193 
     10 C10         2.9206  -17.8469  -51.4919 C.ar      23 UNK        -0.1150 
     11 C11         2.0603  -18.9461  -51.5766 C.ar      23 UNK        -0.0193 
     12 C12         2.3613  -20.1087  -50.8574 C.ar      23 UNK        -0.1150 
     13 C13         3.5156  -20.1781  -50.0675 C.ar      23 UNK        -0.0193 
     14 C14         4.3656  -19.0695  -49.9989 C.ar      23 UNK        -0.1150 
     15 C15         3.8674  -21.4538  -49.3115 C.3       23 UNK        -0.0205 
     16 S16         4.0631  -21.1600  -47.5236 S.3       23 UNK        -0.2404 
     17 C17         4.6799  -22.7843  -46.9493 C.3       23 UNK        -0.0398 
     18 CA          3.6740  -23.5648  -46.0662 C.3       11 UNK         0.1400 
     19 N           3.2320  -22.7627  -44.9198 N.am      11 UNK        -0.5000 
     20 C           2.4372  -23.1579  -43.9184 C.2       10 UNK         0.5000 
     21 O           1.8593  -24.2443  -43.8967 O.2       10 UNK        -0.5000 
     22 CA          2.2696  -22.1917  -42.7331 C.3       10 UNK         0.1400 
     23 CB          3.2216  -20.9775  -42.7599 C.3       10 UNK        -0.1800 
     24 N           0.8924  -21.7150  -42.6781 N.am      10 UNK        -0.5000 
     25 C           0.1754  -21.5642  -41.5559 C.2       9 UNK         0.5000 
     26 O           0.5915  -21.8855  -40.4415 O.2       9 UNK        -0.5000 
     27 CA         -1.2272  -20.9300  -41.6732 C.3       9 UNK         0.1400 
     28 CB         -1.3923  -19.7723  -40.6738 C.3       9 UNK        -0.1800 
     29 N          -1.4964  -20.4261  -43.0210 N.am      9 UNK        -0.5000 
     30 C          -2.2105  -21.0748  -43.9493 C.2       8 UNK         0.5000 
     31 O          -2.8068  -22.1295  -43.7393 O.2       8 UNK        -0.5000 
     32 CA         -2.2590  -20.4595  -45.3598 C.3       8 UNK         0.1400 
     33 CB         -3.5681  -19.6792  -45.5587 C.3       8 UNK        -0.1800 
     34 N          -1.1194  -19.5917  -45.6758 N.am      8 UNK        -0.5000 
     35 C           0.1519  -20.0018  -45.7922 C.2       7 UNK         0.5000 
     36 O           0.5050  -21.1636  -45.5907 O.2       7 UNK        -0.5000 
     37 CA          1.2106  -18.9525  -46.1625 C.3       7 UNK         0.1400 
     38 CB          1.2973  -18.7662  -47.6816 C.3       7 UNK        -0.1800 
     39 N           0.9286  -17.6628  -45.5394 N.am      7 UNK        -0.5000 
     40 C           1.6585  -17.1159  -44.5595 C.2       6 UNK         0.5000 
     41 O           2.6818  -17.6213  -44.0982 O.2       6 UNK        -0.5000 
     42 CA          1.1668  -15.7713  -43.9883 C.3       6 UNK         0.1400 
     43 CB          1.9140  -14.6092  -44.6589 C.3       6 UNK        -0.1800 
     44 N          -0.2778  -15.5550  -44.1164 N.am      6 UNK        -0.5000 
     45 C          -1.2167  -16.3086  -43.5274 C.2       5 UNK         0.5000 
     46 O          -0.9686  -17.2928  -42.8315 O.2       5 UNK        -0.5000 
     47 CA         -2.6841  -15.9250  -43.7888 C.3       5 UNK         0.1400 
     48 CB         -3.1361  -14.8424  -42.7977 C.3       5 UNK        -0.1800 
     49 N          -3.0015  -15.4832  -45.1514 N.am      5 UNK        -0.5000 
     50 C          -2.6787  -16.0894  -46.3010 C.2       4 UNK         0.5000 
     51 O          -1.8633  -17.0073  -46.3920 O.2       4 UNK        -0.5000 
     52 CA         -3.4000  -15.6007  -47.5686 C.3       4 UNK         0.1400 
     53 CB         -4.8539  -16.1099  -47.5982 C.3       4 UNK        -0.1800 
     54 N          -3.3300  -14.1533  -47.7918 N.am      4 UNK        -0.5000 
     55 C          -3.8717  -13.1436  -47.0985 C.2       3 UNK         0.5000 
     56 O          -4.5621  -13.2968  -46.0893 O.2       3 UNK        -0.5000 
     57 CA         -3.5279  -11.7248  -47.6086 C.3       3 UNK         0.1400 
     58 CB         -4.2605  -10.6204  -46.8263 C.3       3 UNK        -0.1800 
     59 N          -2.0862  -11.4661  -47.5508 N.am      3 UNK        -0.5000 
     60 C          -1.1633  -12.0016  -48.3601 C.2       2 UNK         0.5000 
     61 O          -1.4477  -12.7109  -49.3322 O.2       2 UNK        -0.5000 
     62 CA          0.3127  -11.7754  -47.9862 C.3       2 UNK         0.1400 
     63 CB          0.5385  -11.8643  -46.4598 C.3       2 UNK        -0.1800 
     64 N           1.0811  -12.7925  -48.6953 N.am      2 UNK        -0.5000 
     65 C           2.4092  -12.9116  -48.7957 C.2       1 UNK         0.5000 
     66 O           3.2132  -12.1572  -48.2472 O.2       1 UNK        -0.5000 
     67 C           2.5464  -24.1812  -46.9219 C.2       11 UNK         0.5000 
     68 O           2.7454  -25.2620  -47.4789 O.2       11 UNK        -0.5000 
     69 N           1.3988  -23.4997  -47.0194 N.am      12 UNK        -0.5000 
     70 CA          0.2611  -23.9222  -47.8339 C.3       12 UNK         0.1400 
     71 CB         -0.2976  -22.6983  -48.5738 C.3       12 UNK        -0.1800 
     72 C          -0.8443  -24.6014  -47.0081 C.2       12 UNK         0.5000 
     73 O          -1.8339  -25.0337  -47.6000 O.2       12 UNK        -0.5000 
     74 N          -0.6869  -24.6937  -45.6779 N.am      13 UNK        -0.5000 
     75 CA         -1.7094  -25.1682  -44.7339 C.3       13 UNK         0.1400 
     76 CB         -1.1856  -25.0184  -43.2980 C.3       13 UNK        -0.1800 
     77 C          -2.2005  -26.6105  -44.9640 C.2       13 UNK         0.5000 
     78 O          -3.3144  -26.9410  -44.5566 O.2       13 UNK        -0.5000 
     79 N          -1.3774  -27.4363  -45.6230 N.am      14 UNK        -0.5000 
     80 CA         -1.7010  -28.8118  -46.0017 C.3       14 UNK         0.1400 
     81 CB         -0.4129  -29.5139  -46.4585 C.3       14 UNK        -0.1800 
     82 C          -2.7855  -28.9169  -47.0943 C.2       14 UNK         0.5000 
     83 O          -3.4531  -29.9494  -47.1714 O.2       14 UNK        -0.5000 
     84 N          -2.9330  -27.8704  -47.9191 N.am      15 UNK        -0.5000 
     85 CA         -3.8675  -27.8246  -49.0478 C.3       15 UNK         0.1400 
     86 CB         -3.0511  -27.7707  -50.3502 C.3       15 UNK        -0.1800 
     87 C          -4.8352  -26.6292  -48.9836 C.2       15 UNK         0.5000 
     88 O          -5.8640  -26.6620  -49.6591 O.2       15 UNK        -0.5000 
     89 N          -4.4767  -25.5875  -48.2168 N.am      16 UNK        -0.5000 
     90 CA         -5.0981  -24.2580  -48.1636 C.3       16 UNK         0.1400 
     91 CB         -6.5509  -24.3248  -47.6499 C.3       16 UNK        -0.1800 
     92 C          -4.9573  -23.4912  -49.4975 C.2       16 UNK         0.5000 
     93 O          -5.7915  -22.6459  -49.8215 O.2       16 UNK        -0.5000 
     94 N          -3.8843  -23.7896  -50.2458 N.am      17 UNK        -0.5000 
     95 CA         -3.6111  -23.2789  -51.5933 C.3       17 UNK         0.1400 
     96 CB         -2.4285  -24.0624  -52.1842 C.3       17 UNK        -0.1800 
     97 C          -3.3407  -21.7628  -51.6592 C.2       17 UNK         0.5000 
     98 O          -3.4595  -21.1711  -52.7321 O.2       17 UNK        -0.5000 
     99 N          -2.9881  -21.1635  -50.5156 N.am      18 UNK        -0.5000 
    100 CA        -2.7405  -19.7325  -50.3674 C.3       18 UNK         0.1400 
    101 CB        -1.7919  -19.5090  -49.1858 C.3       18 UNK        -0.1800 
    102 C         -4.0187  -18.8883  -50.2121 C.2       18 UNK         0.5000 
    103 O         -3.9100  -17.6619  -50.1980 O.2       18 UNK        -0.5000 
    104 N         -5.1957  -19.5243  -50.0970 N.am      19 UNK        -0.5000 
    105 CA        -6.5000  -18.8620  -49.9968 C.3       19 UNK         0.1400 
    106 CB        -7.6074  -19.9236  -49.9332 C.3       19 UNK        -0.1800 
    107 C         -6.7604  -17.8754  -51.1534 C.2       19 UNK         0.5000 
    108 O         -6.4200  -18.1750  -52.3000 O.2       19 UNK        -0.5000 
    109 N         -7.3409  -16.7152  -50.8132 N.am      20 UNK        -0.5000 
    110 CA        -7.5632  -15.5574  -51.6887 C.3       20 UNK         0.1400 
    111 CB        -8.5872  -15.8850  -52.7964 C.3       20 UNK        -0.1800 
    112 C         -6.2413  -14.9689  -52.2311 C.2       20 UNK         0.5000 
    113 O         -6.1362  -14.6740  -53.4232 O.2       20 UNK        -0.5000 
    114 N         -5.2501  -14.8331  -51.3343 N.am      21 UNK        -0.5000 
    115 CA        -3.9018  -14.2960  -51.5686 C.3       21 UNK         0.1400 
    116 CB        -3.9624  -12.7706  -51.7857 C.3       21 UNK        -0.1800 
    117 C         -3.1521  -15.0390  -52.6936 C.2       21 UNK         0.5000 
    118 O         -2.5856  -14.4127  -53.5907 O.2       21 UNK        -0.5000 
    119 N         -3.2099  -16.3737  -52.6293 N.am      22 UNK        -0.5000 
    120 CA        -2.6724  -17.3332  -53.6077 C.3       22 UNK         0.1400 
    121 C         -3.3785  -17.3147  -55.0004 C.2       22 UNK         0.5000 
    122 N         -4.5016  -16.6287  -55.1812 N.am      22 UNK        -0.7600 
    123 O         -2.9163  -17.9612  -55.9367 O.2       22 UNK        -0.5000 
    124 C124       -1.1222  -17.2771  -53.7309 C.3       23 UNK        -0.0398 
    125 S125       -0.2413  -17.4705  -52.1367 S.3       23 UNK        -0.2404 
    126 C126        0.8454  -18.8911  -52.4949 C.3       23 UNK        -0.0205 
    127 H127       -0.0341  -14.4901  -52.3956 H         1 UNK         0.0600 
    128 H128        0.3951  -13.1157  -53.4070 H         1 UNK         0.0600 
    129 H129        1.2394  -14.6557  -53.6139 H         1 UNK         0.0600 
    130 H130        1.4643  -15.1968  -50.7287 H         1 UNK         0.3000 
    131 H131        3.8619  -13.7190  -50.1132 H         1 UNK         0.0600 
    132 H132        2.9914  -15.2022  -47.7788 H         1 UNK         0.0800 
    133 H133        2.5438  -16.1725  -49.1317 H         1 UNK         0.0800 
    134 H134        4.7325  -15.9450  -51.3530 H         1 UNK         0.0800 
    135 H135        6.0080  -17.0011  -50.8034 H         1 UNK         0.0800 
    136 H136        2.6970  -16.9513  -52.0540 H         1 UNK         0.1150 
    137 H137        1.7070  -20.9658  -50.9278 H         1 UNK         0.1150 
    138 H138        5.2579  -19.1149  -49.3902 H         1 UNK         0.1150 
    139 H139        3.1038  -22.2182  -49.4634 H         1 UNK         0.0800 
    140 H140        4.7976  -21.8525  -49.7183 H         1 UNK         0.0800 
    141 H141        5.5878  -22.5983  -46.3741 H         1 UNK         0.0800 
    142 H142        5.0014  -23.3879  -47.8001 H         1 UNK         0.0800 
    143 H143        4.2151  -24.4127  -45.6411 H         1 UNK         0.0600 
    144 H144        3.6217  -21.8327  -44.8740 H         1 UNK         0.3000 
    145 H145        2.4984  -22.7790  -41.8416 H         1 UNK         0.0600 
    146 H146        3.1052  -20.3731  -41.8601 H         1 UNK         0.0600 
    147 H147        4.2656  -21.2909  -42.7997 H         1 UNK         0.0600 
    148 H148        3.0293  -20.3283  -43.6146 H         1 UNK         0.0600 
    149 H149        0.4743  -21.4871  -43.5735 H         1 UNK         0.3000 
    150 H150       -1.9509  -21.7035  -41.4088 H         1 UNK         0.0600 
    151 H151       -1.3246  -20.1288  -39.6453 H         1 UNK         0.0600 
    152 H152       -2.3626  -19.2880  -40.7853 H         1 UNK         0.0600 
    153 H153       -0.6209  -19.0133  -40.8077 H         1 UNK         0.0600 
    154 H154       -1.0744  -19.5364  -43.2589 H         1 UNK         0.3000 
    155 H155       -2.2494  -21.2894  -46.0690 H         1 UNK         0.0600 
    156 H156       -3.6549  -19.2917  -46.5733 H         1 UNK         0.0600 
    157 H157       -3.6384  -18.8357  -44.8723 H         1 UNK         0.0600 
    158 H158       -4.4345  -20.3179  -45.3823 H         1 UNK         0.0600 
    159 H159       -1.3451  -18.6215  -45.8856 H         1 UNK         0.3000 
    160 H160        2.1712  -19.3459  -45.8250 H         1 UNK         0.0600 
    161 H161        0.4691  -18.1746  -48.0688 H         1 UNK         0.0600 
    162 H162        1.2957  -19.7273  -48.1960 H         1 UNK         0.0600 
    163 H163        2.2220  -18.2585  -47.9540 H         1 UNK         0.0600 
    164 H164        0.0776  -17.1946  -45.8312 H         1 UNK         0.3000 
    165 H165        1.4086  -15.7634  -42.9235 H         1 UNK         0.0600 
    166 H166        1.7002  -14.5590  -45.7268 H         1 UNK         0.0600 
    167 H167        1.6432  -13.6535  -44.2101 H         1 UNK         0.0600 
    168 H168        2.9933  -14.7224  -44.5481 H         1 UNK         0.0600 
    169 H169       -0.5776  -14.7806  -44.6888 H         1 UNK         0.3000 
    170 H170       -3.2824  -16.8179  -43.6013 H         1 UNK         0.0600 
    171 H171       -2.9387  -15.1445  -41.7682 H         1 UNK         0.0600 
    172 H172       -2.6170  -13.8988  -42.9701 H         1 UNK         0.0600 
    173 H173       -4.2069  -14.6546  -42.8803 H         1 UNK         0.0600 
    174 H174       -3.6579  -14.7100  -45.2274 H         1 UNK         0.3000 
    175 H175       -2.8742  -16.0497  -48.4120 H         1 UNK         0.0600 
    176 H176       -4.8821  -17.1970  -47.5185 H         1 UNK         0.0600 
    177 H177       -5.4495  -15.7106  -46.7772 H         1 UNK         0.0600 
    178 H178       -5.3464  -15.8403  -48.5309 H         1 UNK         0.0600 
    179 H179       -2.7062  -13.8699  -48.5432 H         1 UNK         0.3000 
    180 H180       -3.8527  -11.6655  -48.6492 H         1 UNK         0.0600 
    181 H181       -3.9708  -10.6099  -45.7748 H         1 UNK         0.0600 
    182 H182       -5.3411  -10.7623  -46.8687 H         1 UNK         0.0600 
    183 H183       -4.0477   -9.6356  -47.2426 H         1 UNK         0.0600 
    184 H184       -1.7705  -10.9211  -46.7616 H         1 UNK         0.3000 
    185 H185        0.6144  -10.7919  -48.3502 H         1 UNK         0.0600 
    186 H186        1.5959  -11.8465  -46.1984 H         1 UNK         0.0600 
    187 H187        0.0799  -11.0210  -45.9429 H         1 UNK         0.0600 
    188 H188        0.1067  -12.7760  -46.0470 H         1 UNK         0.0600 
    189 H189        0.4944  -13.4106  -49.2432 H         1 UNK         0.3000 
    190 H190        1.2860  -22.6323  -46.4996 H         1 UNK         0.3000 
    191 H191        0.5828  -24.6423  -48.5889 H         1 UNK         0.0600 
    192 H192        0.4816  -22.1877  -49.1389 H         1 UNK         0.0600 
    193 H193       -1.0716  -22.9916  -49.2823 H         1 UNK         0.0600 
    194 H194       -0.7372  -21.9800  -47.8839 H         1 UNK         0.0600 
    195 H195        0.1794  -24.3631  -45.2687 H         1 UNK         0.3000 
    196 H196       -2.5786  -24.5189  -44.8513 H         1 UNK         0.0600 
    197 H197       -1.9569  -25.2748  -42.5708 H         1 UNK         0.0600 
    198 H198       -0.8792  -23.9936  -43.0945 H         1 UNK         0.0600 
    199 H199       -0.3293  -25.6678  -43.1130 H         1 UNK         0.0600 
    200 H200       -0.4773  -27.0816  -45.9115 H         1 UNK         0.3000 
    201 H201       -2.0762  -29.3287  -45.1158 H         1 UNK         0.0600 
    202 H202        0.3376  -29.5160  -45.6678 H         1 UNK         0.0600 
    203 H203        0.0211  -29.0284  -47.3336 H         1 UNK         0.0600 
    204 H204       -0.6071  -30.5543  -46.7228 H         1 UNK         0.0600 
    205 H205       -2.3486  -27.0555  -47.7760 H         1 UNK         0.3000 
    206 H206       -4.4878  -28.7228  -49.0731 H         1 UNK         0.0600 
    207 H207       -2.4319  -28.6609  -50.4616 H         1 UNK         0.0600 
    208 H208       -3.7029  -27.7182  -51.2234 H         1 UNK         0.0600 
    209 H209       -2.3933  -26.9012  -50.3764 H         1 UNK         0.0600 
    210 H210       -3.5746  -25.6330  -47.7530 H         1 UNK         0.3000 
    211 H211       -4.5213  -23.6899  -47.4322 H         1 UNK         0.0600 
    212 H212       -7.2178  -24.7970  -48.3712 H         1 UNK         0.0600 
    213 H213       -6.9407  -23.3249  -47.4554 H         1 UNK         0.0600 
    214 H214       -6.6133  -24.8842  -46.7165 H         1 UNK         0.0600 
    215 H215       -3.2385  -24.4771  -49.8857 H         1 UNK         0.3000 
    216 H216       -4.4924  -23.4747  -52.2076 H         1 UNK         0.0600 
    217 H217       -2.6502  -25.1282  -52.2406 H         1 UNK         0.0600 
    218 H218       -1.5234  -23.9373  -51.5888 H         1 UNK         0.0600 
    219 H219       -2.2032  -23.7269  -53.1974 H         1 UNK         0.0600 
    220 H220       -2.9301  -21.7269  -49.6817 H         1 UNK         0.3000 
    221 H221       -2.2351  -19.3756  -51.2639 H         1 UNK         0.0600 
    222 H222       -2.1733  -19.9646  -48.2745 H         1 UNK         0.0600 
    223 H223       -0.8113  -19.9336  -49.3962 H         1 UNK         0.0600 
    224 H224       -1.6484  -18.4457  -48.9901 H         1 UNK         0.0600 
    225 H225       -5.2116  -20.5358  -50.1375 H         1 UNK         0.3000 
    226 H226       -6.5066  -18.3065  -49.0575 H         1 UNK         0.0600 
    227 H227       -7.4863  -20.5683  -49.0625 H         1 UNK         0.0600 
    228 H228       -8.5924  -19.4609  -49.8593 H         1 UNK         0.0600 
    229 H229       -7.6063  -20.5564  -50.8217 H         1 UNK         0.0600 
    230 H230       -7.6043  -16.5789  -49.8472 H         1 UNK         0.3000 
    231 H231       -8.0027  -14.7799  -51.0621 H         1 UNK         0.0600 
    232 H232       -9.5086  -16.2869  -52.3752 H         1 UNK         0.0600 
    233 H233       -8.1992  -16.6123  -53.5100 H         1 UNK         0.0600 
    234 H234       -8.8520  -14.9887  -53.3585 H         1 UNK         0.0600 
    235 H235       -5.4219  -15.1705  -50.3990 H         1 UNK         0.3000 
    236 H236       -3.3317  -14.4780  -50.6573 H         1 UNK         0.0600 
    237 H237       -2.9593  -12.3455  -51.8391 H         1 UNK         0.0600 
    238 H238       -4.4788  -12.5141  -52.7113 H         1 UNK         0.0600 
    239 H239       -4.4803  -12.2757  -50.9649 H         1 UNK         0.0600 
    240 H240       -3.6756  -16.7887  -51.8265 H         1 UNK         0.3000 
    241 H241       -2.9251  -18.3137  -53.2060 H         1 UNK         0.0600 
    242 H242       -4.9459  -16.6411  -56.0851 H         1 UNK         0.3800 
    243 H243       -4.9043  -16.0743  -54.4353 H         1 UNK         0.3800 
    244 H244       -0.7795  -18.0529  -54.4166 H         1 UNK         0.0800 
    245 H245       -0.8113  -16.3324  -54.1782 H         1 UNK         0.0800 
    246 H246        1.2097  -18.8273  -53.5210 H         1 UNK         0.0800 
    247 H247        0.2589  -19.8088  -52.4264 H         1 UNK         0.0800 
@<TRIPOS>BOND
     1    1    2 1    
     2    1  127 1    
     3    1  128 1    
     4    1  129 1    
     5    2    3 2    
     6    2    4 am   BACKBONE|DICT|INTERRES
     7    4    5 1    
     8    4  130 1    
     9    5    6 1    
    10    5   65 1    
    11    5  131 1    
    12    6    7 1    
    13    6  132 1    
    14    6  133 1    
    15    7    8 1    
    16    8    9 1    
    17    8  134 1    
    18    8  135 1    
    19    9   10 ar   
    20    9   14 ar   
    21   10   11 ar   
    22   10  136 1    
    23   11   12 ar   
    24   11  126 1    
    25   12   13 ar   
    26   12  137 1    
    27   13   14 ar   
    28   13   15 1    
    29   14  138 1    
    30   15   16 1    
    31   15  139 1    
    32   15  140 1    
    33   16   17 1    
    34   17   18 1    
    35   17  141 1    
    36   17  142 1    
    37   18   19 1    
    38   18   67 1    
    39   18  143 1    
    40   19   20 am   BACKBONE|DICT|INTERRES
    41   19  144 1    
    42   20   21 2    
    43   20   22 1    
    44   22   23 1    
    45   22   24 1    
    46   22  145 1    
    47   23  146 1    
    48   23  147 1    
    49   23  148 1    
    50   24   25 am   BACKBONE|DICT|INTERRES
    51   24  149 1    
    52   25   26 2    
    53   25   27 1    
    54   27   28 1    
    55   27   29 1    
    56   27  150 1    
    57   28  151 1    
    58   28  152 1    
    59   28  153 1    
    60   29   30 am   BACKBONE|DICT|INTERRES
    61   29  154 1    
    62   30   31 2    
    63   30   32 1    
    64   32   33 1    
    65   32   34 1    
    66   32  155 1    
    67   33  156 1    
    68   33  157 1    
    69   33  158 1    
    70   34   35 am   BACKBONE|DICT|INTERRES
    71   34  159 1    
    72   35   36 2    
    73   35   37 1    
    74   37   38 1    
    75   37   39 1    
    76   37  160 1    
    77   38  161 1    
    78   38  162 1    
    79   38  163 1    
    80   39   40 am   BACKBONE|DICT|INTERRES
    81   39  164 1    
    82   40   41 2    
    83   40   42 1    
    84   42   43 1    
    85   42   44 1    
    86   42  165 1    
    87   43  166 1    
    88   43  167 1    
    89   43  168 1    
    90   44   45 am   BACKBONE|DICT|INTERRES
    91   44  169 1    
    92   45   46 2    
    93   45   47 1    
    94   47   48 1    
    95   47   49 1    
    96   47  170 1    
    97   48  171 1    
    98   48  172 1    
    99   48  173 1    
   100   49   50 am   BACKBONE|DICT|INTERRES
   101   49  174 1    
   102   50   51 2    
   103   50   52 1    
   104   52   53 1    
   105   52   54 1    
   106   52  175 1    
   107   53  176 1    
   108   53  177 1    
   109   53  178 1    
   110   54   55 am   BACKBONE|DICT|INTERRES
   111   54  179 1    
   112   55   56 2    
   113   55   57 1    
   114   57   58 1    
   115   57   59 1    
   116   57  180 1    
   117   58  181 1    
   118   58  182 1    
   119   58  183 1    
   120   59   60 am   BACKBONE|DICT|INTERRES
   121   59  184 1    
   122   60   61 2    
   123   60   62 1    
   124   62   63 1    
   125   62   64 1    
   126   62  185 1    
   127   63  186 1    
   128   63  187 1    
   129   63  188 1    
   130   64   65 am   BACKBONE|DICT|INTERRES
   131   64  189 1    
   132   65   66 2    
   133   67   68 2    
   134   67   69 am   BACKBONE|DICT|INTERRES
   135   69   70 1    
   136   69  190 1    
   137   70   71 1    
   138   70   72 1    
   139   70  191 1    
   140   71  192 1    
   141   71  193 1    
   142   71  194 1    
   143   72   73 2    
   144   72   74 am   BACKBONE|DICT|INTERRES
   145   74   75 1    
   146   74  195 1    
   147   75   76 1    
   148   75   77 1    
   149   75  196 1    
   150   76  197 1    
   151   76  198 1    
   152   76  199 1    
   153   77   78 2    
   154   77   79 am   BACKBONE|DICT|INTERRES
   155   79   80 1    
   156   79  200 1    
   157   80   81 1    
   158   80   82 1    
   159   80  201 1    
   160   81  202 1    
   161   81  203 1    
   162   81  204 1    
   163   82   83 2    
   164   82   84 am   BACKBONE|DICT|INTERRES
   165   84   85 1    
   166   84  205 1    
   167   85   86 1    
   168   85   87 1    
   169   85  206 1    
   170   86  207 1    
   171   86  208 1    
   172   86  209 1    
   173   87   88 2    
   174   87   89 am   BACKBONE|DICT|INTERRES
   175   89   90 1    
   176   89  210 1    
   177   90   91 1    
   178   90   92 1    
   179   90  211 1    
   180   91  212 1    
   181   91  213 1    
   182   91  214 1    
   183   92   93 2    
   184   92   94 am   BACKBONE|DICT|INTERRES
   185   94   95 1    
   186   94  215 1    
   187   95   96 1    
   188   95   97 1    
   189   95  216 1    
   190   96  217 1    
   191   96  218 1    
   192   96  219 1    
   193   97   98 2    
   194   97   99 am   BACKBONE|DICT|INTERRES
   195   99  100 1    
   196   99  220 1    
   197  100  101 1    
   198  100  102 1    
   199  100  221 1    
   200  101  222 1    
   201  101  223 1    
   202  101  224 1    
   203  102  103 2    
   204  102  104 am   BACKBONE|DICT|INTERRES
   205  104  105 1    
   206  104  225 1    
   207  105  106 1    
   208  105  107 1    
   209  105  226 1    
   210  106  227 1    
   211  106  228 1    
   212  106  229 1    
   213  107  108 2    
   214  107  109 am   BACKBONE|DICT|INTERRES
   215  109  110 1    
   216  109  230 1    
   217  110  111 1    
   218  110  112 1    
   219  110  231 1    
   220  111  232 1    
   221  111  233 1    
   222  111  234 1    
   223  112  113 2    
   224  112  114 am   BACKBONE|DICT|INTERRES
   225  114  115 1    
   226  114  235 1    
   227  115  116 1    
   228  115  117 1    
   229  115  236 1    
   230  116  237 1    
   231  116  238 1    
   232  116  239 1    
   233  117  118 2    
   234  117  119 am   BACKBONE|DICT|INTERRES
   235  119  120 1    
   236  119  240 1    
   237  120  121 1    
   238  120  124 1    
   239  120  241 1    
   240  121  122 am   BACKBONE|DICT|INTERRES
   241  121  123 2    
   242  122  242 1    
   243  122  243 1    
   244  124  125 1    
   245  124  244 1    
   246  124  245 1    
   247  125  126 1    
   248  126  246 1    
   249  126  247 1    
@<TRIPOS>SUBSTRUCTURE
     1 UNK         1 GROUP             0       ****    0 ROOT    
