@<TRIPOS>MOLECULE
3R540
247   249    1
SMALL
USER_CHARGES


@<TRIPOS>ATOM
      1 CA          3.1116  -16.4247  -46.7853 C.3       0 UNK        -0.1800 
      2 C           2.2557  -15.2669  -46.2943 C.2       0 UNK         0.5000 
      3 O           2.6081  -14.6166  -45.3115 O.2       0 UNK        -0.5000 
      4 N           1.1391  -14.9953  -46.9821 N.am      1 UNK        -0.5000 
      5 CA          0.1173  -14.0097  -46.5947 C.3       1 UNK         0.1400 
      6 C6         -1.1437  -14.0810  -47.4918 C.3       23 UNK        -0.0398 
      7 S7         -1.8630  -15.7579  -47.5485 S.3       23 UNK        -0.2404 
      8 C8         -1.6611  -16.1889  -49.3046 C.3       23 UNK        -0.0205 
      9 C9         -1.6841  -17.6963  -49.4885 C.ar      23 UNK        -0.0193 
     10 C10        -2.8987  -18.3839  -49.5695 C.ar      23 UNK        -0.1150 
     11 C11        -2.9154  -19.7750  -49.7041 C.ar      23 UNK        -0.0193 
     12 C12        -1.7076  -20.4761  -49.7497 C.ar      23 UNK        -0.1150 
     13 C13        -0.4868  -19.8005  -49.6745 C.ar      23 UNK        -0.0193 
     14 C14        -0.4833  -18.4070  -49.5592 C.ar      23 UNK        -0.1150 
     15 C15         0.8163  -20.5888  -49.7414 C.3       23 UNK        -0.0205 
     16 S16         2.0687  -20.0935  -48.5062 S.3       23 UNK        -0.2404 
     17 C17         1.1411  -20.0246  -46.9342 C.3       23 UNK        -0.0398 
     18 CA          0.9614  -21.4047  -46.2517 C.3       11 UNK         0.1400 
     19 N           1.0717  -21.3177  -44.7917 N.am      11 UNK        -0.5000 
     20 C           1.1424  -22.3688  -43.9621 C.2       10 UNK         0.5000 
     21 O           1.1557  -23.5392  -44.3430 O.2       10 UNK        -0.5000 
     22 CA          1.1689  -22.0641  -42.4527 C.3       10 UNK         0.1400 
     23 CB          2.5762  -21.6487  -41.9979 C.3       10 UNK        -0.1800 
     24 N           0.2026  -21.0323  -42.0760 N.am      10 UNK        -0.5000 
     25 C          -1.1279  -21.1894  -42.1315 C.2       9 UNK         0.5000 
     26 O          -1.6802  -22.2464  -42.4374 O.2       9 UNK        -0.5000 
     27 CA         -1.9898  -19.9512  -41.8224 C.3       9 UNK         0.1400 
     28 CB         -2.2034  -19.7991  -40.3091 C.3       9 UNK        -0.1800 
     29 N          -1.4339  -18.7098  -42.3612 N.am      9 UNK        -0.5000 
     30 C          -1.2354  -18.4570  -43.6635 C.2       8 UNK         0.5000 
     31 O          -1.4963  -19.2484  -44.5675 O.2       8 UNK        -0.5000 
     32 CA         -0.5805  -17.1078  -44.0025 C.3       8 UNK         0.1400 
     33 CB         -1.5857  -15.9633  -43.7760 C.3       8 UNK        -0.1800 
     34 N           0.6330  -16.8780  -43.2147 N.am      8 UNK        -0.5000 
     35 C           1.7039  -17.6866  -43.1871 C.2       7 UNK         0.5000 
     36 O           1.8187  -18.6933  -43.8832 O.2       7 UNK        -0.5000 
     37 CA          2.8014  -17.3656  -42.1582 C.3       7 UNK         0.1400 
     38 CB          3.7866  -16.3151  -42.6866 C.3       7 UNK        -0.1800 
     39 N           2.2387  -16.9210  -40.8854 N.am      7 UNK        -0.5000 
     40 C           1.5582  -17.7115  -40.0434 C.2       6 UNK         0.5000 
     41 O           1.3851  -18.9170  -40.2235 O.2       6 UNK        -0.5000 
     42 CA          0.9272  -17.0208  -38.8208 C.3       6 UNK         0.1400 
     43 CB          1.9590  -16.8592  -37.6946 C.3       6 UNK        -0.1800 
     44 N           0.3666  -15.7107  -39.1593 N.am      6 UNK        -0.5000 
     45 C          -0.7022  -15.5320  -39.9489 C.2       5 UNK         0.5000 
     46 O          -1.3653  -16.4595  -40.4125 O.2       5 UNK        -0.5000 
     47 CA         -1.0600  -14.0779  -40.3168 C.3       5 UNK         0.1400 
     48 CB         -2.0134  -13.4769  -39.2737 C.3       5 UNK        -0.1800 
     49 N           0.1179  -13.2139  -40.4556 N.am      5 UNK        -0.5000 
     50 C           1.0505  -13.3559  -41.4065 C.2       4 UNK         0.5000 
     51 O           0.9979  -14.2143  -42.2878 O.2       4 UNK        -0.5000 
     52 CA          2.2763  -12.4400  -41.3111 C.3       4 UNK         0.1400 
     53 CB          3.2029  -12.9315  -40.1781 C.3       4 UNK        -0.1800 
     54 N           2.9918  -12.4419  -42.5873 N.am      4 UNK        -0.5000 
     55 C           3.9918  -11.6119  -42.9093 C.2       3 UNK         0.5000 
     56 O           4.3778  -10.6927  -42.1855 O.2       3 UNK        -0.5000 
     57 CA          4.6822  -11.8408  -44.2625 C.3       3 UNK         0.1400 
     58 CB          5.5088  -13.1371  -44.2572 C.3       3 UNK        -0.1800 
     59 N           3.7270  -11.8643  -45.3686 N.am      3 UNK        -0.5000 
     60 C           3.3029  -10.7657  -46.0113 C.2       2 UNK         0.5000 
     61 O           3.6384   -9.6232  -45.6953 O.2       2 UNK        -0.5000 
     62 CA          2.3800  -10.9544  -47.2326 C.3       2 UNK         0.1400 
     63 CB          3.1804  -10.7989  -48.5354 C.3       2 UNK        -0.1800 
     64 N           1.7025  -12.2490  -47.2538 N.am      2 UNK        -0.5000 
     65 C           0.6360  -12.5587  -46.5062 C.2       1 UNK         0.5000 
     66 O           0.0721  -11.7579  -45.7594 O.2       1 UNK        -0.5000 
     67 C          -0.3591  -22.0745  -46.6849 C.2       11 UNK         0.5000 
     68 O          -0.3435  -22.9295  -47.5687 O.2       11 UNK        -0.5000 
     69 N          -1.4639  -21.7185  -46.0124 N.am      12 UNK        -0.5000 
     70 CA         -2.8263  -22.2051  -46.2526 C.3       12 UNK         0.1400 
     71 CB         -3.8123  -21.3590  -45.4314 C.3       12 UNK        -0.1800 
     72 C          -3.0539  -23.7138  -46.0103 C.2       12 UNK         0.5000 
     73 O          -4.1482  -24.2058  -46.2906 O.2       12 UNK        -0.5000 
     74 N          -2.0318  -24.4382  -45.5317 N.am      13 UNK        -0.5000 
     75 CA         -1.9733  -25.9014  -45.5659 C.3       13 UNK         0.1400 
     76 CB         -0.7925  -26.3748  -44.7057 C.3       13 UNK        -0.1800 
     77 C          -1.8529  -26.4537  -47.0052 C.2       13 UNK         0.5000 
     78 O          -2.2499  -27.5934  -47.2516 O.2       13 UNK        -0.5000 
     79 N          -1.3271  -25.6329  -47.9226 N.am      14 UNK        -0.5000 
     80 CA         -1.2894  -25.8466  -49.3649 C.3       14 UNK         0.1400 
     81 CB          0.1762  -25.7448  -49.8246 C.3       14 UNK        -0.1800 
     82 C          -2.1649  -24.7827  -50.0572 C.2       14 UNK         0.5000 
     83 O          -2.7762  -23.9464  -49.3886 O.2       14 UNK        -0.5000 
     84 N          -2.2073  -24.8240  -51.3921 N.am      15 UNK        -0.5000 
     85 CA         -2.8542  -23.8191  -52.2296 C.3       15 UNK         0.1400 
     86 CB         -3.9117  -24.4992  -53.1133 C.3       15 UNK        -0.1800 
     87 C          -1.7764  -23.1418  -53.0826 C.2       15 UNK         0.5000 
     88 O          -1.0124  -23.8438  -53.7514 O.2       15 UNK        -0.5000 
     89 N          -1.7283  -21.8033  -53.0547 N.am      16 UNK        -0.5000 
     90 CA         -0.7984  -20.9960  -53.8465 C.3       16 UNK         0.1400 
     91 CB         -0.9040  -19.5201  -53.4355 C.3       16 UNK        -0.1800 
     92 C          -1.0619  -21.1780  -55.3505 C.2       16 UNK         0.5000 
     93 O          -2.1960  -20.9935  -55.7948 O.2       16 UNK        -0.5000 
     94 N          -0.0300  -21.6150  -56.0870 N.am      17 UNK        -0.5000 
     95 CA         -0.0627  -21.9886  -57.5094 C.3       17 UNK         0.1400 
     96 CB         -0.2677  -20.7356  -58.3866 C.3       17 UNK        -0.1800 
     97 C          -1.0798  -23.1090  -57.8386 C.2       17 UNK         0.5000 
     98 O          -1.5230  -23.2129  -58.9834 O.2       17 UNK        -0.5000 
     99 N          -1.4461  -23.9078  -56.8220 N.am      18 UNK        -0.5000 
    100 CA        -2.5024  -24.9245  -56.8198 C.3       18 UNK         0.1400 
    101 CB        -2.1433  -26.0944  -57.7601 C.3       18 UNK        -0.1800 
    102 C         -3.9168  -24.3535  -57.0825 C.2       18 UNK         0.5000 
    103 O         -4.7893  -25.0897  -57.5473 O.2       18 UNK        -0.5000 
    104 N         -4.1308  -23.0639  -56.7855 N.am      19 UNK        -0.5000 
    105 CA        -5.3766  -22.3457  -57.0333 C.3       19 UNK         0.1400 
    106 CB        -5.4236  -21.8792  -58.5054 C.3       19 UNK        -0.1800 
    107 C         -5.5216  -21.2161  -55.9989 C.2       19 UNK         0.5000 
    108 O         -5.6381  -21.5100  -54.8083 O.2       19 UNK        -0.5000 
    109 N         -5.5478  -19.9572  -56.4665 N.am      20 UNK        -0.5000 
    110 CA        -5.5946  -18.7044  -55.6948 C.3       20 UNK         0.1400 
    111 CB        -4.2717  -18.5013  -54.9327 C.3       20 UNK        -0.1800 
    112 C         -6.8242  -18.5508  -54.7716 C.2       20 UNK         0.5000 
    113 O         -6.7841  -17.7609  -53.8270 O.2       20 UNK        -0.5000 
    114 N         -7.8936  -19.3062  -55.0642 N.am      21 UNK        -0.5000 
    115 CA        -9.1343  -19.4287  -54.2906 C.3       21 UNK         0.1400 
    116 CB        -9.9225  -18.1016  -54.2939 C.3       21 UNK        -0.1800 
    117 C         -8.9242  -20.0023  -52.8697 C.2       21 UNK         0.5000 
    118 O         -9.7344  -19.7379  -51.9793 O.2       21 UNK        -0.5000 
    119 N         -7.8574  -20.7932  -52.6818 N.am      22 UNK        -0.5000 
    120 CA        -7.5294  -21.4698  -51.4148 C.3       22 UNK         0.1400 
    121 C         -8.4820  -22.6458  -51.0424 C.2       22 UNK         0.5000 
    122 N         -9.2947  -23.1653  -51.9551 N.am      22 UNK        -0.7600 
    123 O         -8.4866  -23.0923  -49.8987 O.2       22 UNK        -0.5000 
    124 C124       -6.0578  -21.9500  -51.3899 C.3       23 UNK        -0.0398 
    125 S125       -4.8432  -20.5906  -51.5018 S.3       23 UNK        -0.2404 
    126 C126       -4.2330  -20.5268  -49.7894 C.3       23 UNK        -0.0205 
    127 H127        3.1954  -17.1829  -46.0070 H         1 UNK         0.0600 
    128 H128        4.1138  -16.0732  -47.0295 H         1 UNK         0.0600 
    129 H129        2.6876  -16.8959  -47.6724 H         1 UNK         0.0600 
    130 H130        0.9040  -15.5651  -47.7811 H         1 UNK         0.3000 
    131 H131       -0.1824  -14.2711  -45.5825 H         1 UNK         0.0600 
    132 H132       -1.9154  -13.4088  -47.1120 H         1 UNK         0.0800 
    133 H133       -0.9174  -13.7382  -48.5028 H         1 UNK         0.0800 
    134 H134       -0.7221  -15.7852  -49.6859 H         1 UNK         0.0800 
    135 H135       -2.4580  -15.7249  -49.8877 H         1 UNK         0.0800 
    136 H136       -3.8300  -17.8375  -49.5199 H         1 UNK         0.1150 
    137 H137       -1.7184  -21.5530  -49.8429 H         1 UNK         0.1150 
    138 H138        0.4572  -17.8777  -49.5039 H         1 UNK         0.1150 
    139 H139        0.6258  -21.6570  -49.6335 H         1 UNK         0.0800 
    140 H140        1.2438  -20.4612  -50.7364 H         1 UNK         0.0800 
    141 H141        0.1952  -19.4931  -47.0513 H         1 UNK         0.0800 
    142 H142        1.7421  -19.3765  -46.2989 H         1 UNK         0.0800 
    143 H143        1.7751  -22.0576  -46.5751 H         1 UNK         0.0600 
    144 H144        1.1120  -20.3816  -44.3962 H         1 UNK         0.3000 
    145 H145        0.9027  -22.9818  -41.9239 H         1 UNK         0.0600 
    146 H146        2.6094  -21.4840  -40.9207 H         1 UNK         0.0600 
    147 H147        3.3057  -22.4249  -42.2317 H         1 UNK         0.0600 
    148 H148        2.9059  -20.7318  -42.4858 H         1 UNK         0.0600 
    149 H149        0.5776  -20.1443  -41.7623 H         1 UNK         0.3000 
    150 H150       -2.9649  -20.1034  -42.2892 H         1 UNK         0.0600 
    151 H151       -2.6426  -20.7022  -39.8833 H         1 UNK         0.0600 
    152 H152       -2.8791  -18.9727  -40.0878 H         1 UNK         0.0600 
    153 H153       -1.2649  -19.6114  -39.7867 H         1 UNK         0.0600 
    154 H154       -1.2146  -17.9817  -41.6878 H         1 UNK         0.3000 
    155 H155       -0.2890  -17.1145  -45.0548 H         1 UNK         0.0600 
    156 H156       -2.1287  -16.0677  -42.8379 H         1 UNK         0.0600 
    157 H157       -2.3322  -15.9463  -44.5699 H         1 UNK         0.0600 
    158 H158       -1.1034  -14.9887  -43.7544 H         1 UNK         0.0600 
    159 H159        0.6670  -16.0172  -42.6756 H         1 UNK         0.3000 
    160 H160        3.3619  -18.2853  -41.9777 H         1 UNK         0.0600 
    161 H161        3.3043  -15.3506  -42.8335 H         1 UNK         0.0600 
    162 H162        4.2072  -16.6200  -43.6456 H         1 UNK         0.0600 
    163 H163        4.6180  -16.1705  -41.9969 H         1 UNK         0.0600 
    164 H164        2.2949  -15.9350  -40.6845 H         1 UNK         0.3000 
    165 H165        0.1184  -17.6579  -38.4566 H         1 UNK         0.0600 
    166 H166        1.5027  -16.4342  -36.8005 H         1 UNK         0.0600 
    167 H167        2.3836  -17.8242  -37.4142 H         1 UNK         0.0600 
    168 H168        2.7845  -16.2109  -37.9913 H         1 UNK         0.0600 
    169 H169        0.8479  -14.8984  -38.8039 H         1 UNK         0.3000 
    170 H170       -1.5776  -14.0987  -41.2779 H         1 UNK         0.0600 
    171 H171       -2.9096  -14.0895  -39.1661 H         1 UNK         0.0600 
    172 H172       -1.5446  -13.4055  -38.2915 H         1 UNK         0.0600 
    173 H173       -2.3377  -12.4778  -39.5653 H         1 UNK         0.0600 
    174 H174        0.2288  -12.4888  -39.7612 H         1 UNK         0.3000 
    175 H175        1.9326  -11.4258  -41.0983 H         1 UNK         0.0600 
    176 H176        3.6052  -13.9226  -40.3915 H         1 UNK         0.0600 
    177 H177        4.0461  -12.2582  -40.0267 H         1 UNK         0.0600 
    178 H178        2.6737  -12.9889  -39.2263 H         1 UNK         0.0600 
    179 H179        2.6880  -13.1545  -43.2428 H         1 UNK         0.3000 
    180 H180        5.3842  -11.0181  -44.4165 H         1 UNK         0.0600 
    181 H181        4.8852  -14.0206  -44.1300 H         1 UNK         0.0600 
    182 H182        6.2366  -13.1317  -43.4449 H         1 UNK         0.0600 
    183 H183        6.0623  -13.2531  -45.1890 H         1 UNK         0.0600 
    184 H184        3.3534  -12.7722  -45.6249 H         1 UNK         0.3000 
    185 H185        1.6271  -10.1637  -47.2014 H         1 UNK         0.0600 
    186 H186        3.6775   -9.8287  -48.5759 H         1 UNK         0.0600 
    187 H187        3.9501  -11.5660  -48.6289 H         1 UNK         0.0600 
    188 H188        2.5307  -10.8656  -49.4083 H         1 UNK         0.0600 
    189 H189        2.1099  -12.9695  -47.8319 H         1 UNK         0.3000 
    190 H190       -1.3823  -20.9735  -45.3242 H         1 UNK         0.3000 
    191 H191       -3.0397  -22.0332  -47.3084 H         1 UNK         0.0600 
    192 H192       -3.6193  -21.4478  -44.3622 H         1 UNK         0.0600 
    193 H193       -4.8431  -21.6686  -45.6075 H         1 UNK         0.0600 
    194 H194       -3.7447  -20.3048  -45.7006 H         1 UNK         0.0600 
    195 H195       -1.1724  -23.9576  -45.3025 H         1 UNK         0.3000 
    196 H196       -2.8951  -26.2936  -45.1317 H         1 UNK         0.0600 
    197 H197       -0.7538  -27.4638  -44.6617 H         1 UNK         0.0600 
    198 H198       -0.8771  -26.0094  -43.6820 H         1 UNK         0.0600 
    199 H199        0.1604  -26.0283  -45.1076 H         1 UNK         0.0600 
    200 H200       -1.0822  -24.6859  -47.6420 H         1 UNK         0.3000 
    201 H201       -1.6827  -26.8318  -49.6227 H         1 UNK         0.0600 
    202 H202        0.8048  -26.4572  -49.2901 H         1 UNK         0.0600 
    203 H203        0.5821  -24.7471  -49.6503 H         1 UNK         0.0600 
    204 H204        0.2789  -25.9619  -50.8881 H         1 UNK         0.0600 
    205 H205       -1.6400  -25.4985  -51.8866 H         1 UNK         0.3000 
    206 H206       -3.3469  -23.0600  -51.6226 H         1 UNK         0.0600 
    207 H207       -3.4911  -25.3270  -53.6836 H         1 UNK         0.0600 
    208 H208       -4.7269  -24.8965  -52.5087 H         1 UNK         0.0600 
    209 H209       -4.3448  -23.7927  -53.8224 H         1 UNK         0.0600 
    210 H210       -2.4188  -21.2937  -52.5209 H         1 UNK         0.3000 
    211 H211        0.2152  -21.3344  -53.6216 H         1 UNK         0.0600 
    212 H212       -1.9271  -19.1533  -53.4945 H         1 UNK         0.0600 
    213 H213       -0.2895  -18.8882  -54.0779 H         1 UNK         0.0600 
    214 H214       -0.5589  -19.3705  -52.4145 H         1 UNK         0.0600 
    215 H215        0.8545  -21.7713  -55.6234 H         1 UNK         0.3000 
    216 H216        0.9212  -22.3983  -57.7415 H         1 UNK         0.0600 
    217 H217       -0.1438  -20.9713  -59.4441 H         1 UNK         0.0600 
    218 H218        0.4581  -19.9600  -58.1425 H         1 UNK         0.0600 
    219 H219       -1.2652  -20.3129  -58.2612 H         1 UNK         0.0600 
    220 H220       -1.0262  -23.7360  -55.9151 H         1 UNK         0.3000 
    221 H221       -2.5244  -25.3237  -55.8063 H         1 UNK         0.0600 
    222 H222       -2.1802  -25.7991  -58.8089 H         1 UNK         0.0600 
    223 H223       -1.1429  -26.4743  -57.5528 H         1 UNK         0.0600 
    224 H224       -2.8365  -26.9264  -57.6320 H         1 UNK         0.0600 
    225 H225       -3.3825  -22.5041  -56.3852 H         1 UNK         0.3000 
    226 H226       -6.2190  -23.0186  -56.8606 H         1 UNK         0.0600 
    227 H227       -5.3973  -22.7312  -59.1850 H         1 UNK         0.0600 
    228 H228       -6.3421  -21.3323  -58.7221 H         1 UNK         0.0600 
    229 H229       -4.5767  -21.2384  -58.7547 H         1 UNK         0.0600 
    230 H230       -5.4672  -19.8374  -57.4664 H         1 UNK         0.3000 
    231 H231       -5.6756  -17.9009  -56.4280 H         1 UNK         0.0600 
    232 H232       -3.4172  -18.5507  -55.6072 H         1 UNK         0.0600 
    233 H233       -4.1394  -19.2642  -54.1659 H         1 UNK         0.0600 
    234 H234       -4.2369  -17.5293  -54.4399 H         1 UNK         0.0600 
    235 H235       -7.8170  -19.9172  -55.8645 H         1 UNK         0.3000 
    236 H236       -9.7414  -20.1660  -54.8176 H         1 UNK         0.0600 
    237 H237       -9.4203  -17.3289  -53.7115 H         1 UNK         0.0600 
    238 H238      -10.0563  -17.7245  -55.3078 H         1 UNK         0.0600 
    239 H239      -10.9168  -18.2359  -53.8664 H         1 UNK         0.0600 
    240 H240       -7.2084  -20.9438  -53.4463 H         1 UNK         0.3000 
    241 H241       -7.6441  -20.7338  -50.6166 H         1 UNK         0.0600 
    242 H242       -9.3005  -22.8128  -52.8984 H         1 UNK         0.3800 
    243 H243       -9.9090  -23.9224  -51.6989 H         1 UNK         0.3800 
    244 H244       -5.8538  -22.5350  -50.4913 H         1 UNK         0.0800 
    245 H245       -5.8822  -22.6250  -52.2275 H         1 UNK         0.0800 
    246 H246       -4.0979  -21.5392  -49.4072 H         1 UNK         0.0800 
    247 H247       -4.9818  -20.0530  -49.1530 H         1 UNK         0.0800 
@<TRIPOS>BOND
     1    1    2 1    
     2    1  127 1    
     3    1  128 1    
     4    1  129 1    
     5    2    3 2    
     6    2    4 am   BACKBONE|DICT|INTERRES
     7    4    5 1    
     8    4  130 1    
     9    5    6 1    
    10    5   65 1    
    11    5  131 1    
    12    6    7 1    
    13    6  132 1    
    14    6  133 1    
    15    7    8 1    
    16    8    9 1    
    17    8  134 1    
    18    8  135 1    
    19    9   10 ar   
    20    9   14 ar   
    21   10   11 ar   
    22   10  136 1    
    23   11   12 ar   
    24   11  126 1    
    25   12   13 ar   
    26   12  137 1    
    27   13   14 ar   
    28   13   15 1    
    29   14  138 1    
    30   15   16 1    
    31   15  139 1    
    32   15  140 1    
    33   16   17 1    
    34   17   18 1    
    35   17  141 1    
    36   17  142 1    
    37   18   19 1    
    38   18   67 1    
    39   18  143 1    
    40   19   20 am   BACKBONE|DICT|INTERRES
    41   19  144 1    
    42   20   21 2    
    43   20   22 1    
    44   22   23 1    
    45   22   24 1    
    46   22  145 1    
    47   23  146 1    
    48   23  147 1    
    49   23  148 1    
    50   24   25 am   BACKBONE|DICT|INTERRES
    51   24  149 1    
    52   25   26 2    
    53   25   27 1    
    54   27   28 1    
    55   27   29 1    
    56   27  150 1    
    57   28  151 1    
    58   28  152 1    
    59   28  153 1    
    60   29   30 am   BACKBONE|DICT|INTERRES
    61   29  154 1    
    62   30   31 2    
    63   30   32 1    
    64   32   33 1    
    65   32   34 1    
    66   32  155 1    
    67   33  156 1    
    68   33  157 1    
    69   33  158 1    
    70   34   35 am   BACKBONE|DICT|INTERRES
    71   34  159 1    
    72   35   36 2    
    73   35   37 1    
    74   37   38 1    
    75   37   39 1    
    76   37  160 1    
    77   38  161 1    
    78   38  162 1    
    79   38  163 1    
    80   39   40 am   BACKBONE|DICT|INTERRES
    81   39  164 1    
    82   40   41 2    
    83   40   42 1    
    84   42   43 1    
    85   42   44 1    
    86   42  165 1    
    87   43  166 1    
    88   43  167 1    
    89   43  168 1    
    90   44   45 am   BACKBONE|DICT|INTERRES
    91   44  169 1    
    92   45   46 2    
    93   45   47 1    
    94   47   48 1    
    95   47   49 1    
    96   47  170 1    
    97   48  171 1    
    98   48  172 1    
    99   48  173 1    
   100   49   50 am   BACKBONE|DICT|INTERRES
   101   49  174 1    
   102   50   51 2    
   103   50   52 1    
   104   52   53 1    
   105   52   54 1    
   106   52  175 1    
   107   53  176 1    
   108   53  177 1    
   109   53  178 1    
   110   54   55 am   BACKBONE|DICT|INTERRES
   111   54  179 1    
   112   55   56 2    
   113   55   57 1    
   114   57   58 1    
   115   57   59 1    
   116   57  180 1    
   117   58  181 1    
   118   58  182 1    
   119   58  183 1    
   120   59   60 am   BACKBONE|DICT|INTERRES
   121   59  184 1    
   122   60   61 2    
   123   60   62 1    
   124   62   63 1    
   125   62   64 1    
   126   62  185 1    
   127   63  186 1    
   128   63  187 1    
   129   63  188 1    
   130   64   65 am   BACKBONE|DICT|INTERRES
   131   64  189 1    
   132   65   66 2    
   133   67   68 2    
   134   67   69 am   BACKBONE|DICT|INTERRES
   135   69   70 1    
   136   69  190 1    
   137   70   71 1    
   138   70   72 1    
   139   70  191 1    
   140   71  192 1    
   141   71  193 1    
   142   71  194 1    
   143   72   73 2    
   144   72   74 am   BACKBONE|DICT|INTERRES
   145   74   75 1    
   146   74  195 1    
   147   75   76 1    
   148   75   77 1    
   149   75  196 1    
   150   76  197 1    
   151   76  198 1    
   152   76  199 1    
   153   77   78 2    
   154   77   79 am   BACKBONE|DICT|INTERRES
   155   79   80 1    
   156   79  200 1    
   157   80   81 1    
   158   80   82 1    
   159   80  201 1    
   160   81  202 1    
   161   81  203 1    
   162   81  204 1    
   163   82   83 2    
   164   82   84 am   BACKBONE|DICT|INTERRES
   165   84   85 1    
   166   84  205 1    
   167   85   86 1    
   168   85   87 1    
   169   85  206 1    
   170   86  207 1    
   171   86  208 1    
   172   86  209 1    
   173   87   88 2    
   174   87   89 am   BACKBONE|DICT|INTERRES
   175   89   90 1    
   176   89  210 1    
   177   90   91 1    
   178   90   92 1    
   179   90  211 1    
   180   91  212 1    
   181   91  213 1    
   182   91  214 1    
   183   92   93 2    
   184   92   94 am   BACKBONE|DICT|INTERRES
   185   94   95 1    
   186   94  215 1    
   187   95   96 1    
   188   95   97 1    
   189   95  216 1    
   190   96  217 1    
   191   96  218 1    
   192   96  219 1    
   193   97   98 2    
   194   97   99 am   BACKBONE|DICT|INTERRES
   195   99  100 1    
   196   99  220 1    
   197  100  101 1    
   198  100  102 1    
   199  100  221 1    
   200  101  222 1    
   201  101  223 1    
   202  101  224 1    
   203  102  103 2    
   204  102  104 am   BACKBONE|DICT|INTERRES
   205  104  105 1    
   206  104  225 1    
   207  105  106 1    
   208  105  107 1    
   209  105  226 1    
   210  106  227 1    
   211  106  228 1    
   212  106  229 1    
   213  107  108 2    
   214  107  109 am   BACKBONE|DICT|INTERRES
   215  109  110 1    
   216  109  230 1    
   217  110  111 1    
   218  110  112 1    
   219  110  231 1    
   220  111  232 1    
   221  111  233 1    
   222  111  234 1    
   223  112  113 2    
   224  112  114 am   BACKBONE|DICT|INTERRES
   225  114  115 1    
   226  114  235 1    
   227  115  116 1    
   228  115  117 1    
   229  115  236 1    
   230  116  237 1    
   231  116  238 1    
   232  116  239 1    
   233  117  118 2    
   234  117  119 am   BACKBONE|DICT|INTERRES
   235  119  120 1    
   236  119  240 1    
   237  120  121 1    
   238  120  124 1    
   239  120  241 1    
   240  121  122 am   BACKBONE|DICT|INTERRES
   241  121  123 2    
   242  122  242 1    
   243  122  243 1    
   244  124  125 1    
   245  124  244 1    
   246  124  245 1    
   247  125  126 1    
   248  126  246 1    
   249  126  247 1    
@<TRIPOS>SUBSTRUCTURE
     1 UNK         1 GROUP             0       ****    0 ROOT    
