@<TRIPOS>MOLECULE
3R540
247   249    1
SMALL
USER_CHARGES


@<TRIPOS>ATOM
      1 CA          4.1636  -16.8667  -45.9534 C.3       0 UNK        -0.1800 
      2 C           3.7335  -15.4076  -45.9606 C.2       0 UNK         0.5000 
      3 O           3.6656  -14.7857  -44.9023 O.2       0 UNK        -0.5000 
      4 N           3.4732  -14.8494  -47.1505 N.am      1 UNK        -0.5000 
      5 CA          2.9760  -13.4811  -47.3773 C.3       1 UNK         0.1400 
      6 C6          2.6564  -13.2155  -48.8714 C.3       23 UNK        -0.0398 
      7 S7          1.5195  -14.4541  -49.5861 S.3       23 UNK        -0.2404 
      8 C8          2.6493  -15.4198  -50.6351 C.3       23 UNK        -0.0205 
      9 C9          2.1609  -16.8495  -50.8072 C.ar      23 UNK        -0.0193 
     10 C10         1.3196  -17.1917  -51.8701 C.ar      23 UNK        -0.1150 
     11 C11         0.9108  -18.5168  -52.0547 C.ar      23 UNK        -0.0193 
     12 C12         1.3357  -19.4976  -51.1517 C.ar      23 UNK        -0.1150 
     13 C13         2.1702  -19.1671  -50.0794 C.ar      23 UNK        -0.0193 
     14 C14         2.5831  -17.8415  -49.9181 C.ar      23 UNK        -0.1150 
     15 C15         2.6600  -20.2493  -49.1264 C.3       23 UNK        -0.0205 
     16 S16         2.2251  -19.8891  -47.3955 S.3       23 UNK        -0.2404 
     17 C17         2.4544  -21.5224  -46.6171 C.3       23 UNK        -0.0398 
     18 CA          1.1500  -22.3136  -46.3416 C.3       11 UNK         0.1400 
     19 N           0.3059  -21.7239  -45.2956 N.am      11 UNK        -0.5000 
     20 C          -0.6595  -22.4110  -44.6643 C.2       10 UNK         0.5000 
     21 O          -0.9218  -23.5907  -44.9060 O.2       10 UNK        -0.5000 
     22 CA         -1.4936  -21.6635  -43.6091 C.3       10 UNK         0.1400 
     23 CB         -0.6944  -21.4632  -42.3128 C.3       10 UNK        -0.1800 
     24 N          -2.0063  -20.3797  -44.0844 N.am      10 UNK        -0.5000 
     25 C          -2.8702  -20.2373  -45.0998 C.2       9 UNK         0.5000 
     26 O          -3.3290  -21.1773  -45.7461 O.2       9 UNK        -0.5000 
     27 CA         -3.2616  -18.8013  -45.4880 C.3       9 UNK         0.1400 
     28 CB         -4.3380  -18.2500  -44.5416 C.3       9 UNK        -0.1800 
     29 N          -2.1151  -17.8957  -45.5145 N.am      9 UNK        -0.5000 
     30 C          -1.0607  -18.0393  -46.3298 C.2       8 UNK         0.5000 
     31 O          -0.9670  -18.9267  -47.1747 O.2       8 UNK        -0.5000 
     32 CA          0.0977  -17.0486  -46.1361 C.3       8 UNK         0.1400 
     33 CB         -0.2747  -15.6822  -46.7228 C.3       8 UNK        -0.1800 
     34 N           0.4781  -16.9007  -44.7308 N.am      8 UNK        -0.5000 
     35 C           0.8897  -17.8985  -43.9330 C.2       7 UNK         0.5000 
     36 O           1.0605  -19.0592  -44.3052 O.2       7 UNK        -0.5000 
     37 CA          1.0837  -17.5522  -42.4478 C.3       7 UNK         0.1400 
     38 CB          2.4431  -16.8803  -42.2026 C.3       7 UNK        -0.1800 
     39 N           0.0064  -16.6978  -41.9483 N.am      7 UNK        -0.5000 
     40 C          -1.2640  -17.0986  -41.7930 C.2       6 UNK         0.5000 
     41 O          -1.6502  -18.2475  -42.0065 O.2       6 UNK        -0.5000 
     42 CA         -2.2792  -16.0223  -41.3671 C.3       6 UNK         0.1400 
     43 CB         -2.2520  -15.8232  -39.8444 C.3       6 UNK        -0.1800 
     44 N          -2.0389  -14.7390  -42.0286 N.am      6 UNK        -0.5000 
     45 C          -2.2004  -14.5225  -43.3422 C.2       5 UNK         0.5000 
     46 O          -2.6361  -15.3687  -44.1216 O.2       5 UNK        -0.5000 
     47 CA         -1.7553  -13.1469  -43.8791 C.3       5 UNK         0.1400 
     48 CB         -2.9152  -12.1425  -43.8182 C.3       5 UNK        -0.1800 
     49 N          -0.5999  -12.6016  -43.1588 N.am      5 UNK        -0.5000 
     50 C           0.6154  -13.1642  -43.1510 C.2       4 UNK         0.5000 
     51 O           0.9000  -14.1742  -43.7956 O.2       4 UNK        -0.5000 
     52 CA          1.6409  -12.5520  -42.1897 C.3       4 UNK         0.1400 
     53 CB          1.3540  -13.0477  -40.7554 C.3       4 UNK        -0.1800 
     54 N           2.9994  -12.9176  -42.5907 N.am      4 UNK        -0.5000 
     55 C           4.1138  -12.3891  -42.0659 C.2       3 UNK         0.5000 
     56 O           4.1134  -11.4797  -41.2347 O.2       3 UNK        -0.5000 
     57 CA          5.4566  -12.9575  -42.5466 C.3       3 UNK         0.1400 
     58 CB          5.6245  -14.4313  -42.1383 C.3       3 UNK        -0.1800 
     59 N           5.5886  -12.8233  -43.9938 N.am      3 UNK        -0.5000 
     60 C           6.1756  -11.7873  -44.6102 C.2       2 UNK         0.5000 
     61 O           6.6847  -10.8381  -44.0124 O.2       2 UNK        -0.5000 
     62 CA          6.2270  -11.8090  -46.1519 C.3       2 UNK         0.1400 
     63 CB          7.6125  -12.2655  -46.6352 C.3       2 UNK        -0.1800 
     64 N           5.2126  -12.6747  -46.7513 N.am      2 UNK        -0.5000 
     65 C           3.9081  -12.3797  -46.8282 C.2       1 UNK         0.5000 
     66 O           3.4305  -11.3019  -46.4720 O.2       1 UNK        -0.5000 
     67 C           0.3505  -22.6302  -47.6231 C.2       11 UNK         0.5000 
     68 O           0.5916  -23.6674  -48.2408 O.2       11 UNK        -0.5000 
     69 N          -0.6122  -21.7662  -47.9772 N.am      12 UNK        -0.5000 
     70 CA         -1.5312  -21.9788  -49.0914 C.3       12 UNK         0.1400 
     71 CB         -2.3307  -20.7007  -49.3616 C.3       12 UNK        -0.1800 
     72 C          -2.4640  -23.1775  -48.8560 C.2       12 UNK         0.5000 
     73 O          -2.6363  -23.9868  -49.7643 O.2       12 UNK        -0.5000 
     74 N          -3.0110  -23.3092  -47.6392 N.am      13 UNK        -0.5000 
     75 CA         -3.8400  -24.4450  -47.2312 C.3       13 UNK         0.1400 
     76 CB         -4.4521  -24.1808  -45.8483 C.3       13 UNK        -0.1800 
     77 C          -3.0656  -25.7750  -47.2442 C.2       13 UNK         0.5000 
     78 O          -3.6002  -26.7786  -47.7158 O.2       13 UNK        -0.5000 
     79 N          -1.8033  -25.7502  -46.7906 N.am      14 UNK        -0.5000 
     80 CA         -0.8753  -26.8838  -46.8554 C.3       14 UNK         0.1400 
     81 CB          0.3979  -26.5497  -46.0642 C.3       14 UNK        -0.1800 
     82 C          -0.5295  -27.3024  -48.3001 C.2       14 UNK         0.5000 
     83 O          -0.3426  -28.4912  -48.5601 O.2       14 UNK        -0.5000 
     84 N          -0.4941  -26.3271  -49.2177 N.am      15 UNK        -0.5000 
     85 CA         -0.3189  -26.5185  -50.6592 C.3       15 UNK         0.1400 
     86 CB          0.2850  -25.2353  -51.2554 C.3       15 UNK        -0.1800 
     87 C          -1.6224  -26.9080  -51.3940 C.2       15 UNK         0.5000 
     88 O          -1.5841  -27.0958  -52.6108 O.2       15 UNK        -0.5000 
     89 N          -2.7424  -27.0166  -50.6616 N.am      16 UNK        -0.5000 
     90 CA         -4.0995  -27.3211  -51.1308 C.3       16 UNK         0.1400 
     91 CB         -4.1711  -28.7239  -51.7706 C.3       16 UNK        -0.1800 
     92 C          -4.7117  -26.2136  -52.0170 C.2       16 UNK         0.5000 
     93 O          -5.5500  -26.5015  -52.8737 O.2       16 UNK        -0.5000 
     94 N          -4.2982  -24.9648  -51.7765 N.am      17 UNK        -0.5000 
     95 CA         -4.8407  -23.7469  -52.3658 C.3       17 UNK         0.1400 
     96 CB         -3.6678  -22.9015  -52.9008 C.3       17 UNK        -0.1800 
     97 C          -5.7042  -23.0339  -51.3029 C.2       17 UNK         0.5000 
     98 O          -6.5329  -23.6896  -50.6688 O.2       17 UNK        -0.5000 
     99 N          -5.5158  -21.7156  -51.1332 N.am      18 UNK        -0.5000 
    100 CA        -6.2180  -20.8237  -50.1958 C.3       18 UNK         0.1400 
    101 CB        -6.0286  -21.2719  -48.7293 C.3       18 UNK        -0.1800 
    102 C         -7.7022  -20.5944  -50.5567 C.2       18 UNK         0.5000 
    103 O         -8.5014  -20.2410  -49.6880 O.2       18 UNK        -0.5000 
    104 N         -8.0362  -20.7776  -51.8383 N.am      19 UNK        -0.5000 
    105 CA        -9.3577  -20.5731  -52.4262 C.3       19 UNK         0.1400 
    106 CB       -10.3570  -21.6493  -51.9563 C.3       19 UNK        -0.1800 
    107 C         -9.2252  -20.5658  -53.9535 C.2       19 UNK         0.5000 
    108 O         -9.6126  -19.5915  -54.5986 O.2       19 UNK        -0.5000 
    109 N         -8.6425  -21.6437  -54.4994 N.am      20 UNK        -0.5000 
    110 CA        -8.3712  -21.8086  -55.9317 C.3       20 UNK         0.1400 
    111 CB        -8.1020  -23.2948  -56.2152 C.3       20 UNK        -0.1800 
    112 C         -7.1926  -20.9477  -56.4291 C.2       20 UNK         0.5000 
    113 O         -7.1286  -20.6272  -57.6165 O.2       20 UNK        -0.5000 
    114 N         -6.2888  -20.5929  -55.5116 N.am      21 UNK        -0.5000 
    115 CA        -5.1172  -19.7529  -55.7106 C.3       21 UNK         0.1400 
    116 CB        -3.9873  -20.5730  -56.3635 C.3       21 UNK        -0.1800 
    117 C         -4.6928  -19.1943  -54.3432 C.2       21 UNK         0.5000 
    118 O         -5.2047  -19.6441  -53.3107 O.2       21 UNK        -0.5000 
    119 N         -3.7442  -18.2521  -54.3732 N.am      22 UNK        -0.5000 
    120 CA        -3.1665  -17.5447  -53.2163 C.3       22 UNK         0.1400 
    121 C         -4.1447  -16.5154  -52.5689 C.2       22 UNK         0.5000 
    122 N         -3.7684  -15.8855  -51.4632 N.am      22 UNK        -0.7600 
    123 O         -5.2317  -16.2432  -53.0746 O.2       22 UNK        -0.5000 
    124 C124       -2.5027  -18.4848  -52.1637 C.3       23 UNK        -0.0398 
    125 S125       -1.4495  -19.8020  -52.8666 S.3       23 UNK        -0.2404 
    126 C126        0.0781  -18.8971  -53.2734 C.3       23 UNK        -0.0205 
    127 H127        5.0915  -16.9807  -45.3933 H         1 UNK         0.0600 
    128 H128        4.3261  -17.2486  -46.9609 H         1 UNK         0.0600 
    129 H129        3.4010  -17.4809  -45.4764 H         1 UNK         0.0600 
    130 H130        3.5396  -15.4190  -47.9798 H         1 UNK         0.3000 
    131 H131        2.0473  -13.3833  -46.8141 H         1 UNK         0.0600 
    132 H132        2.1840  -12.2379  -48.9843 H         1 UNK         0.0800 
    133 H133        3.5725  -13.1737  -49.4633 H         1 UNK         0.0800 
    134 H134        2.7426  -14.9310  -51.6061 H         1 UNK         0.0800 
    135 H135        3.6510  -15.4309  -50.2036 H         1 UNK         0.0800 
    136 H136        1.0064  -16.4279  -52.5681 H         1 UNK         0.1150 
    137 H137        1.0286  -20.5236  -51.2985 H         1 UNK         0.1150 
    138 H138        3.2399  -17.5866  -49.0997 H         1 UNK         0.1150 
    139 H139        2.2422  -21.2160  -49.4107 H         1 UNK         0.0800 
    140 H140        3.7434  -20.3413  -49.2128 H         1 UNK         0.0800 
    141 H141        2.9838  -21.3657  -45.6765 H         1 UNK         0.0800 
    142 H142        3.1293  -22.1207  -47.2314 H         1 UNK         0.0800 
    143 H143        1.4761  -23.2809  -45.9526 H         1 UNK         0.0600 
    144 H144        0.4783  -20.7503  -45.0546 H         1 UNK         0.3000 
    145 H145       -2.3563  -22.2899  -43.3729 H         1 UNK         0.0600 
    146 H146       -1.3139  -21.0200  -41.5330 H         1 UNK         0.0600 
    147 H147       -0.3243  -22.4157  -41.9316 H         1 UNK         0.0600 
    148 H148        0.1673  -20.8135  -42.4639 H         1 UNK         0.0600 
    149 H149       -1.6983  -19.5532  -43.5833 H         1 UNK         0.3000 
    150 H150       -3.6810  -18.8337  -46.4957 H         1 UNK         0.0600 
    151 H151       -5.2106  -18.9040  -44.5198 H         1 UNK         0.0600 
    152 H152       -4.6772  -17.2650  -44.8629 H         1 UNK         0.0600 
    153 H153       -3.9690  -18.1588  -43.5198 H         1 UNK         0.0600 
    154 H154       -2.1416  -17.1045  -44.8783 H         1 UNK         0.3000 
    155 H155        0.9677  -17.4203  -46.6774 H         1 UNK         0.0600 
    156 H156       -1.1780  -15.2738  -46.2739 H         1 UNK         0.0600 
    157 H157       -0.4551  -15.7616  -47.7950 H         1 UNK         0.0600 
    158 H158        0.5244  -14.9618  -46.5728 H         1 UNK         0.0600 
    159 H159        0.4366  -15.9611  -44.3460 H         1 UNK         0.3000 
    160 H160        1.0648  -18.4866  -41.8829 H         1 UNK         0.0600 
    161 H161        2.5209  -15.9238  -42.7169 H         1 UNK         0.0600 
    162 H162        3.2589  -17.5089  -42.5616 H         1 UNK         0.0600 
    163 H163        2.6111  -16.7029  -41.1404 H         1 UNK         0.0600 
    164 H164        0.2295  -15.7254  -41.8042 H         1 UNK         0.3000 
    165 H165       -3.2748  -16.3716  -41.6492 H         1 UNK         0.0600 
    166 H166       -3.0184  -15.1165  -39.5257 H         1 UNK         0.0600 
    167 H167       -2.4424  -16.7635  -39.3252 H         1 UNK         0.0600 
    168 H168       -1.2863  -15.4487  -39.5022 H         1 UNK         0.0600 
    169 H169       -1.6924  -13.9854  -41.4546 H         1 UNK         0.3000 
    170 H170       -1.4697  -13.2747  -44.9250 H         1 UNK         0.0600 
    171 H171       -3.7820  -12.5147  -44.3661 H         1 UNK         0.0600 
    172 H172       -3.2321  -11.9529  -42.7919 H         1 UNK         0.0600 
    173 H173       -2.6349  -11.1887  -44.2655 H         1 UNK         0.0600 
    174 H174       -0.7656  -11.7770  -42.5997 H         1 UNK         0.3000 
    175 H175        1.5430  -11.4653  -42.2319 H         1 UNK         0.0600 
    176 H176        1.5118  -14.1230  -40.6648 H         1 UNK         0.0600 
    177 H177        1.9943  -12.5571  -40.0229 H         1 UNK         0.0600 
    178 H178        0.3253  -12.8397  -40.4591 H         1 UNK         0.0600 
    179 H179        3.0606  -13.6315  -43.3142 H         1 UNK         0.3000 
    180 H180        6.2515  -12.3958  -42.0511 H         1 UNK         0.0600 
    181 H181        4.8798  -15.0769  -42.6021 H         1 UNK         0.0600 
    182 H182        5.5296  -14.5484  -41.0581 H         1 UNK         0.0600 
    183 H183        6.6087  -14.8053  -42.4203 H         1 UNK         0.0600 
    184 H184        5.1130  -13.5279  -44.5480 H         1 UNK         0.3000 
    185 H185        6.0639  -10.7874  -46.5017 H         1 UNK         0.0600 
    186 H186        8.3977  -11.6233  -46.2340 H         1 UNK         0.0600 
    187 H187        7.8317  -13.2869  -46.3215 H         1 UNK         0.0600 
    188 H188        7.6850  -12.2241  -47.7222 H         1 UNK         0.0600 
    189 H189        5.5169  -13.5863  -47.0605 H         1 UNK         0.3000 
    190 H190       -0.7189  -20.8981  -47.4594 H         1 UNK         0.3000 
    191 H191       -0.9353  -22.1920  -49.9813 H         1 UNK         0.0600 
    192 H192       -1.6692  -19.8836  -49.6498 H         1 UNK         0.0600 
    193 H193       -3.0380  -20.8521  -50.1752 H         1 UNK         0.0600 
    194 H194       -2.8930  -20.3807  -48.4846 H         1 UNK         0.0600 
    195 H195       -2.8716  -22.5780  -46.9462 H         1 UNK         0.3000 
    196 H196       -4.6574  -24.5316  -47.9506 H         1 UNK         0.0600 
    197 H197       -5.0661  -25.0219  -45.5243 H         1 UNK         0.0600 
    198 H198       -5.0930  -23.2992  -45.8658 H         1 UNK         0.0600 
    199 H199       -3.6837  -24.0216  -45.0911 H         1 UNK         0.0600 
    200 H200       -1.4518  -24.8943  -46.3721 H         1 UNK         0.3000 
    201 H201       -1.3594  -27.7356  -46.3735 H         1 UNK         0.0600 
    202 H202        0.1657  -26.3060  -45.0272 H         1 UNK         0.0600 
    203 H203        0.9300  -25.7023  -46.4958 H         1 UNK         0.0600 
    204 H204        1.0844  -27.3971  -46.0540 H         1 UNK         0.0600 
    205 H205       -0.6101  -25.3694  -48.9071 H         1 UNK         0.3000 
    206 H206        0.3939  -27.3298  -50.8193 H         1 UNK         0.0600 
    207 H207        1.2169  -24.9687  -50.7564 H         1 UNK         0.0600 
    208 H208        0.5102  -25.3618  -52.3149 H         1 UNK         0.0600 
    209 H209       -0.3957  -24.3890  -51.1654 H         1 UNK         0.0600 
    210 H210       -2.6723  -26.8239  -49.6699 H         1 UNK         0.3000 
    211 H211       -4.7184  -27.3478  -50.2330 H         1 UNK         0.0600 
    212 H212       -3.6480  -28.7631  -52.7262 H         1 UNK         0.0600 
    213 H213       -5.2055  -29.0161  -51.9549 H         1 UNK         0.0600 
    214 H214       -3.7345  -29.4784  -51.1162 H         1 UNK         0.0600 
    215 H215       -3.6300  -24.8098  -51.0230 H         1 UNK         0.3000 
    216 H216       -5.4960  -23.9864  -53.2053 H         1 UNK         0.0600 
    217 H217       -3.0016  -22.5718  -52.1029 H         1 UNK         0.0600 
    218 H218       -4.0218  -22.0187  -53.4294 H         1 UNK         0.0600 
    219 H219       -3.0687  -23.4734  -53.6096 H         1 UNK         0.0600 
    220 H220       -4.8650  -21.2457  -51.7509 H         1 UNK         0.3000 
    221 H221       -5.7351  -19.8511  -50.3012 H         1 UNK         0.0600 
    222 H222       -6.5849  -22.1823  -48.5057 H         1 UNK         0.0600 
    223 H223       -4.9827  -21.4592  -48.4986 H         1 UNK         0.0600 
    224 H224       -6.3755  -20.5032  -48.0380 H         1 UNK         0.0600 
    225 H225       -7.2884  -20.9863  -52.4821 H         1 UNK         0.3000 
    226 H226       -9.7264  -19.5922  -52.1189 H         1 UNK         0.0600 
    227 H227      -10.5584  -21.5664  -50.8885 H         1 UNK         0.0600 
    228 H228      -11.3130  -21.5458  -52.4711 H         1 UNK         0.0600 
    229 H229       -9.9870  -22.6573  -52.1462 H         1 UNK         0.0600 
    230 H230       -8.4015  -22.4220  -53.9035 H         1 UNK         0.3000 
    231 H231       -9.2599  -21.5084  -56.4910 H         1 UNK         0.0600 
    232 H232       -7.2279  -23.6574  -55.6726 H         1 UNK         0.0600 
    233 H233       -7.9214  -23.4633  -57.2777 H         1 UNK         0.0600 
    234 H234       -8.9546  -23.9118  -55.9307 H         1 UNK         0.0600 
    235 H235       -6.4411  -20.8424  -54.5459 H         1 UNK         0.3000 
    236 H236       -5.3845  -18.9122  -56.3540 H         1 UNK         0.0600 
    237 H237       -4.2874  -20.9548  -57.3392 H         1 UNK         0.0600 
    238 H238       -3.0947  -19.9661  -56.5182 H         1 UNK         0.0600 
    239 H239       -3.7004  -21.4252  -55.7471 H         1 UNK         0.0600 
    240 H240       -3.4027  -17.9466  -55.2724 H         1 UNK         0.3000 
    241 H241       -2.3730  -16.9321  -53.6444 H         1 UNK         0.0600 
    242 H242       -4.3959  -15.2091  -51.0569 H         1 UNK         0.3800 
    243 H243       -2.8716  -16.0437  -51.0328 H         1 UNK         0.3800 
    244 H244       -1.8983  -17.9124  -51.4591 H         1 UNK         0.0800 
    245 H245       -3.2771  -18.9679  -51.5680 H         1 UNK         0.0800 
    246 H246       -0.1736  -18.0176  -53.8672 H         1 UNK         0.0800 
    247 H247        0.6888  -19.5306  -53.9178 H         1 UNK         0.0800 
@<TRIPOS>BOND
     1    1    2 1    
     2    1  127 1    
     3    1  128 1    
     4    1  129 1    
     5    2    3 2    
     6    2    4 am   BACKBONE|DICT|INTERRES
     7    4    5 1    
     8    4  130 1    
     9    5    6 1    
    10    5   65 1    
    11    5  131 1    
    12    6    7 1    
    13    6  132 1    
    14    6  133 1    
    15    7    8 1    
    16    8    9 1    
    17    8  134 1    
    18    8  135 1    
    19    9   10 ar   
    20    9   14 ar   
    21   10   11 ar   
    22   10  136 1    
    23   11   12 ar   
    24   11  126 1    
    25   12   13 ar   
    26   12  137 1    
    27   13   14 ar   
    28   13   15 1    
    29   14  138 1    
    30   15   16 1    
    31   15  139 1    
    32   15  140 1    
    33   16   17 1    
    34   17   18 1    
    35   17  141 1    
    36   17  142 1    
    37   18   19 1    
    38   18   67 1    
    39   18  143 1    
    40   19   20 am   BACKBONE|DICT|INTERRES
    41   19  144 1    
    42   20   21 2    
    43   20   22 1    
    44   22   23 1    
    45   22   24 1    
    46   22  145 1    
    47   23  146 1    
    48   23  147 1    
    49   23  148 1    
    50   24   25 am   BACKBONE|DICT|INTERRES
    51   24  149 1    
    52   25   26 2    
    53   25   27 1    
    54   27   28 1    
    55   27   29 1    
    56   27  150 1    
    57   28  151 1    
    58   28  152 1    
    59   28  153 1    
    60   29   30 am   BACKBONE|DICT|INTERRES
    61   29  154 1    
    62   30   31 2    
    63   30   32 1    
    64   32   33 1    
    65   32   34 1    
    66   32  155 1    
    67   33  156 1    
    68   33  157 1    
    69   33  158 1    
    70   34   35 am   BACKBONE|DICT|INTERRES
    71   34  159 1    
    72   35   36 2    
    73   35   37 1    
    74   37   38 1    
    75   37   39 1    
    76   37  160 1    
    77   38  161 1    
    78   38  162 1    
    79   38  163 1    
    80   39   40 am   BACKBONE|DICT|INTERRES
    81   39  164 1    
    82   40   41 2    
    83   40   42 1    
    84   42   43 1    
    85   42   44 1    
    86   42  165 1    
    87   43  166 1    
    88   43  167 1    
    89   43  168 1    
    90   44   45 am   BACKBONE|DICT|INTERRES
    91   44  169 1    
    92   45   46 2    
    93   45   47 1    
    94   47   48 1    
    95   47   49 1    
    96   47  170 1    
    97   48  171 1    
    98   48  172 1    
    99   48  173 1    
   100   49   50 am   BACKBONE|DICT|INTERRES
   101   49  174 1    
   102   50   51 2    
   103   50   52 1    
   104   52   53 1    
   105   52   54 1    
   106   52  175 1    
   107   53  176 1    
   108   53  177 1    
   109   53  178 1    
   110   54   55 am   BACKBONE|DICT|INTERRES
   111   54  179 1    
   112   55   56 2    
   113   55   57 1    
   114   57   58 1    
   115   57   59 1    
   116   57  180 1    
   117   58  181 1    
   118   58  182 1    
   119   58  183 1    
   120   59   60 am   BACKBONE|DICT|INTERRES
   121   59  184 1    
   122   60   61 2    
   123   60   62 1    
   124   62   63 1    
   125   62   64 1    
   126   62  185 1    
   127   63  186 1    
   128   63  187 1    
   129   63  188 1    
   130   64   65 am   BACKBONE|DICT|INTERRES
   131   64  189 1    
   132   65   66 2    
   133   67   68 2    
   134   67   69 am   BACKBONE|DICT|INTERRES
   135   69   70 1    
   136   69  190 1    
   137   70   71 1    
   138   70   72 1    
   139   70  191 1    
   140   71  192 1    
   141   71  193 1    
   142   71  194 1    
   143   72   73 2    
   144   72   74 am   BACKBONE|DICT|INTERRES
   145   74   75 1    
   146   74  195 1    
   147   75   76 1    
   148   75   77 1    
   149   75  196 1    
   150   76  197 1    
   151   76  198 1    
   152   76  199 1    
   153   77   78 2    
   154   77   79 am   BACKBONE|DICT|INTERRES
   155   79   80 1    
   156   79  200 1    
   157   80   81 1    
   158   80   82 1    
   159   80  201 1    
   160   81  202 1    
   161   81  203 1    
   162   81  204 1    
   163   82   83 2    
   164   82   84 am   BACKBONE|DICT|INTERRES
   165   84   85 1    
   166   84  205 1    
   167   85   86 1    
   168   85   87 1    
   169   85  206 1    
   170   86  207 1    
   171   86  208 1    
   172   86  209 1    
   173   87   88 2    
   174   87   89 am   BACKBONE|DICT|INTERRES
   175   89   90 1    
   176   89  210 1    
   177   90   91 1    
   178   90   92 1    
   179   90  211 1    
   180   91  212 1    
   181   91  213 1    
   182   91  214 1    
   183   92   93 2    
   184   92   94 am   BACKBONE|DICT|INTERRES
   185   94   95 1    
   186   94  215 1    
   187   95   96 1    
   188   95   97 1    
   189   95  216 1    
   190   96  217 1    
   191   96  218 1    
   192   96  219 1    
   193   97   98 2    
   194   97   99 am   BACKBONE|DICT|INTERRES
   195   99  100 1    
   196   99  220 1    
   197  100  101 1    
   198  100  102 1    
   199  100  221 1    
   200  101  222 1    
   201  101  223 1    
   202  101  224 1    
   203  102  103 2    
   204  102  104 am   BACKBONE|DICT|INTERRES
   205  104  105 1    
   206  104  225 1    
   207  105  106 1    
   208  105  107 1    
   209  105  226 1    
   210  106  227 1    
   211  106  228 1    
   212  106  229 1    
   213  107  108 2    
   214  107  109 am   BACKBONE|DICT|INTERRES
   215  109  110 1    
   216  109  230 1    
   217  110  111 1    
   218  110  112 1    
   219  110  231 1    
   220  111  232 1    
   221  111  233 1    
   222  111  234 1    
   223  112  113 2    
   224  112  114 am   BACKBONE|DICT|INTERRES
   225  114  115 1    
   226  114  235 1    
   227  115  116 1    
   228  115  117 1    
   229  115  236 1    
   230  116  237 1    
   231  116  238 1    
   232  116  239 1    
   233  117  118 2    
   234  117  119 am   BACKBONE|DICT|INTERRES
   235  119  120 1    
   236  119  240 1    
   237  120  121 1    
   238  120  124 1    
   239  120  241 1    
   240  121  122 am   BACKBONE|DICT|INTERRES
   241  121  123 2    
   242  122  242 1    
   243  122  243 1    
   244  124  125 1    
   245  124  244 1    
   246  124  245 1    
   247  125  126 1    
   248  126  246 1    
   249  126  247 1    
@<TRIPOS>SUBSTRUCTURE
     1 UNK         1 GROUP             0       ****    0 ROOT    
