@<TRIPOS>MOLECULE
3R540
247   249    1
SMALL
USER_CHARGES


@<TRIPOS>ATOM
      1 CA          4.7638  -16.9889  -47.8427 C.3       0 UNK        -0.1800 
      2 C           3.6704  -16.3082  -47.0319 C.2       0 UNK         0.5000 
      3 O           3.2440  -16.8422  -46.0090 O.2       0 UNK        -0.5000 
      4 N           3.2098  -15.1370  -47.4904 N.am      1 UNK        -0.5000 
      5 CA          2.1607  -14.3450  -46.8352 C.3       1 UNK         0.1400 
      6 C6          1.5315  -13.2852  -47.7793 C.3       23 UNK        -0.0398 
      7 S7          1.0077  -13.9369  -49.4027 S.3       23 UNK        -0.2404 
      8 C8         -0.6368  -14.6185  -49.0129 C.3       23 UNK        -0.0205 
      9 C9         -0.7650  -16.0791  -49.4267 C.ar      23 UNK        -0.0193 
     10 C10        -1.8266  -16.4898  -50.2353 C.ar      23 UNK        -0.1150 
     11 C11        -1.9540  -17.8280  -50.6149 C.ar      23 UNK        -0.0193 
     12 C12        -1.0057  -18.7623  -50.1838 C.ar      23 UNK        -0.1150 
     13 C13         0.0687  -18.3672  -49.3750 C.ar      23 UNK        -0.0193 
     14 C14         0.1658  -17.0267  -48.9916 C.ar      23 UNK        -0.1150 
     15 C15         1.1365  -19.3375  -48.8680 C.3       23 UNK        -0.0205 
     16 S16         1.4061  -20.8305  -49.8841 S.3       23 UNK        -0.2404 
     17 C17         0.1944  -21.9923  -49.1662 C.3       23 UNK        -0.0398 
     18 CA          0.8158  -22.9596  -48.1261 C.3       11 UNK         0.1400 
     19 N           1.4327  -22.2272  -47.0178 N.am      11 UNK        -0.5000 
     20 C           2.7032  -22.3450  -46.6107 C.2       10 UNK         0.5000 
     21 O           3.5055  -23.1436  -47.0951 O.2       10 UNK        -0.5000 
     22 CA          3.1647  -21.4119  -45.4700 C.3       10 UNK         0.1400 
     23 CB          3.9947  -20.2512  -46.0382 C.3       10 UNK        -0.1800 
     24 N           2.0636  -20.8555  -44.6800 N.am      10 UNK        -0.5000 
     25 C           1.2487  -21.5716  -43.8940 C.2       9 UNK         0.5000 
     26 O           1.3751  -22.7815  -43.7080 O.2       9 UNK        -0.5000 
     27 CA          0.0603  -20.8274  -43.2570 C.3       9 UNK         0.1400 
     28 CB          0.4208  -20.3710  -41.8360 C.3       9 UNK        -0.1800 
     29 N          -0.4321  -19.6829  -44.0361 N.am      9 UNK        -0.5000 
     30 C          -0.9154  -19.7486  -45.2893 C.2       8 UNK         0.5000 
     31 O          -0.8983  -20.7814  -45.9609 O.2       8 UNK        -0.5000 
     32 CA         -1.5051  -18.4608  -45.8975 C.3       8 UNK         0.1400 
     33 CB         -2.6591  -18.7430  -46.8768 C.3       8 UNK        -0.1800 
     34 N          -1.9657  -17.5520  -44.8504 N.am      8 UNK        -0.5000 
     35 C          -1.6983  -16.2431  -44.7944 C.2       7 UNK         0.5000 
     36 O          -1.1222  -15.6185  -45.6834 O.2       7 UNK        -0.5000 
     37 CA         -2.0792  -15.5027  -43.4971 C.3       7 UNK         0.1400 
     38 CB         -3.1281  -16.2340  -42.6291 C.3       7 UNK        -0.1800 
     39 N          -0.8771  -15.2018  -42.7158 N.am      7 UNK        -0.5000 
     40 C           0.0398  -16.0799  -42.2756 C.2       6 UNK         0.5000 
     41 O          -0.0798  -17.2996  -42.3939 O.2       6 UNK        -0.5000 
     42 CA          1.3130  -15.5193  -41.6142 C.3       6 UNK         0.1400 
     43 CB          2.5737  -16.0611  -42.3092 C.3       6 UNK        -0.1800 
     44 N           1.3428  -14.0550  -41.6301 N.am      6 UNK        -0.5000 
     45 C           0.9213  -13.2795  -40.6210 C.2       5 UNK         0.5000 
     46 O           0.5354  -13.7191  -39.5373 O.2       5 UNK        -0.5000 
     47 CA          0.8973  -11.7584  -40.8623 C.3       5 UNK         0.1400 
     48 CB          2.1568  -11.1029  -40.2772 C.3       5 UNK        -0.1800 
     49 N           0.7581  -11.3984  -42.2769 N.am      5 UNK        -0.5000 
     50 C          -0.3713  -11.5600  -42.9846 C.2       4 UNK         0.5000 
     51 O          -1.3878  -12.0655  -42.5066 O.2       4 UNK        -0.5000 
     52 CA         -0.3813  -11.1516  -44.4732 C.3       4 UNK         0.1400 
     53 CB         -1.5925  -10.2659  -44.8287 C.3       4 UNK        -0.1800 
     54 N           0.8766  -10.5719  -44.9547 N.am      4 UNK        -0.5000 
     55 C           1.4145   -9.3709  -44.6973 C.2       3 UNK         0.5000 
     56 O           0.8669   -8.4949  -44.0271 O.2       3 UNK        -0.5000 
     57 CA          2.8313   -9.1473  -45.2780 C.3       3 UNK         0.1400 
     58 CB          3.5962   -8.0052  -44.5764 C.3       3 UNK        -0.1800 
     59 N           3.6356  -10.3813  -45.3041 N.am      3 UNK        -0.5000 
     60 C           3.9743  -11.1322  -44.2435 C.2       2 UNK         0.5000 
     61 O           3.6873  -10.8361  -43.0844 O.2       2 UNK        -0.5000 
     62 CA          4.6738  -12.4730  -44.5524 C.3       2 UNK         0.1400 
     63 CB          4.8966  -13.3332  -43.2922 C.3       2 UNK        -0.1800 
     64 N           3.9617  -13.2426  -45.5820 N.am      2 UNK        -0.5000 
     65 C           2.6811  -13.6508  -45.5584 C.2       1 UNK         0.5000 
     66 O           1.9159  -13.4649  -44.6110 O.2       1 UNK        -0.5000 
     67 C          -0.2396  -23.9622  -47.6065 C.2       11 UNK         0.5000 
     68 O          -0.9150  -24.6025  -48.4162 O.2       11 UNK        -0.5000 
     69 N          -0.3755  -24.1022  -46.2771 N.am      12 UNK        -0.5000 
     70 CA         -1.3800  -24.9375  -45.6091 C.3       12 UNK         0.1400 
     71 CB         -1.3257  -24.6950  -44.0950 C.3       12 UNK        -0.1800 
     72 C          -1.2628  -26.4416  -45.9179 C.2       12 UNK         0.5000 
     73 O          -2.2720  -27.1443  -45.8687 O.2       12 UNK        -0.5000 
     74 N          -0.0608  -26.8991  -46.2963 N.am      13 UNK        -0.5000 
     75 CA          0.2133  -28.2588  -46.7726 C.3       13 UNK         0.1400 
     76 CB          1.7293  -28.4242  -46.9573 C.3       13 UNK        -0.1800 
     77 C          -0.5311  -28.6200  -48.0767 C.2       13 UNK         0.5000 
     78 O          -0.7944  -29.7990  -48.3153 O.2       13 UNK        -0.5000 
     79 N          -0.8763  -27.6018  -48.8759 N.am      14 UNK        -0.5000 
     80 CA         -1.6888  -27.7036  -50.0884 C.3       14 UNK         0.1400 
     81 CB         -0.9495  -26.9728  -51.2236 C.3       14 UNK        -0.1800 
     82 C          -3.0951  -27.1056  -49.8747 C.2       14 UNK         0.5000 
     83 O          -3.7966  -26.8524  -50.8555 O.2       14 UNK        -0.5000 
     84 N          -3.4669  -26.8251  -48.6130 N.am      15 UNK        -0.5000 
     85 CA         -4.6829  -26.1231  -48.1758 C.3       15 UNK         0.1400 
     86 CB         -5.9256  -27.0083  -48.4011 C.3       15 UNK        -0.1800 
     87 C          -4.8287  -24.7210  -48.8096 C.2       15 UNK         0.5000 
     88 O          -5.9461  -24.2763  -49.0807 O.2       15 UNK        -0.5000 
     89 N          -3.6822  -24.0862  -49.1060 N.am      16 UNK        -0.5000 
     90 CA         -3.5113  -22.8441  -49.8658 C.3       16 UNK         0.1400 
     91 CB         -4.0344  -21.6430  -49.0524 C.3       16 UNK        -0.1800 
     92 C          -4.0924  -22.8936  -51.2962 C.2       16 UNK         0.5000 
     93 O          -4.3388  -21.8390  -51.8810 O.2       16 UNK        -0.5000 
     94 N          -4.3499  -24.1036  -51.8212 N.am      17 UNK        -0.5000 
     95 CA         -5.1166  -24.3931  -53.0373 C.3       17 UNK         0.1400 
     96 CB         -4.2860  -24.0681  -54.2898 C.3       17 UNK        -0.1800 
     97 C          -6.4966  -23.6999  -53.0168 C.2       17 UNK         0.5000 
     98 O          -6.8440  -22.9644  -53.9445 O.2       17 UNK        -0.5000 
     99 N          -7.2050  -23.8773  -51.8890 N.am      18 UNK        -0.5000 
    100 CA        -8.4845  -23.2560  -51.5200 C.3       18 UNK         0.1400 
    101 CB        -9.6044  -23.6996  -52.4843 C.3       18 UNK        -0.1800 
    102 C         -8.4102  -21.7192  -51.3716 C.2       18 UNK         0.5000 
    103 O         -9.4434  -21.0510  -51.4253 O.2       18 UNK        -0.5000 
    104 N         -7.1868  -21.1899  -51.2141 N.am      19 UNK        -0.5000 
    105 CA        -6.8006  -19.7751  -51.2234 C.3       19 UNK         0.1400 
    106 CB        -7.4390  -19.0122  -50.0449 C.3       19 UNK        -0.1800 
    107 C         -7.0325  -19.0857  -52.5866 C.2       19 UNK         0.5000 
    108 O         -7.0525  -17.8554  -52.6457 O.2       19 UNK        -0.5000 
    109 N         -7.2077  -19.8792  -53.6532 N.am      20 UNK        -0.5000 
    110 CA        -7.4962  -19.4058  -55.0016 C.3       20 UNK         0.1400 
    111 CB        -8.5386  -20.3302  -55.6550 C.3       20 UNK        -0.1800 
    112 C         -6.2071  -19.3274  -55.8294 C.2       20 UNK         0.5000 
    113 O         -5.8226  -18.2357  -56.2504 O.2       20 UNK        -0.5000 
    114 N         -5.5693  -20.4839  -56.0584 N.am      21 UNK        -0.5000 
    115 CA        -4.3768  -20.5928  -56.9031 C.3       21 UNK         0.1400 
    116 CB        -4.3523  -21.9770  -57.5689 C.3       21 UNK        -0.1800 
    117 C         -3.0672  -20.3325  -56.1373 C.2       21 UNK         0.5000 
    118 O         -2.0816  -19.9342  -56.7589 O.2       21 UNK        -0.5000 
    119 N         -3.0746  -20.5684  -54.8177 N.am      22 UNK        -0.5000 
    120 CA        -1.9354  -20.3955  -53.8964 C.3       22 UNK         0.1400 
    121 C         -0.7228  -21.3431  -54.1537 C.2       22 UNK         0.5000 
    122 N         -0.8859  -22.4436  -54.8783 N.am      22 UNK        -0.7600 
    123 O          0.3774  -21.1004  -53.6670 O.2       22 UNK        -0.5000 
    124 C124       -1.5144  -18.9091  -53.7204 C.3       23 UNK        -0.0398 
    125 S125       -2.9003  -17.8215  -53.2327 S.3       23 UNK        -0.2404 
    126 C126       -3.1283  -18.2591  -51.4798 C.3       23 UNK        -0.0205 
    127 H127        5.1193  -16.3552  -48.6555 H         1 UNK         0.0600 
    128 H128        4.3908  -17.9175  -48.2738 H         1 UNK         0.0600 
    129 H129        5.6125  -17.2269  -47.2016 H         1 UNK         0.0600 
    130 H130        3.5667  -14.7645  -48.3591 H         1 UNK         0.3000 
    131 H131        1.3680  -15.0299  -46.5276 H         1 UNK         0.0600 
    132 H132        2.2451  -12.4841  -47.9808 H         1 UNK         0.0800 
    133 H133        0.6741  -12.8078  -47.3012 H         1 UNK         0.0800 
    134 H134       -0.8429  -14.5367  -47.9475 H         1 UNK         0.0800 
    135 H135       -1.3882  -14.0073  -49.5147 H         1 UNK         0.0800 
    136 H136       -2.5584  -15.7692  -50.5728 H         1 UNK         0.1150 
    137 H137       -1.1121  -19.7935  -50.4848 H         1 UNK         0.1150 
    138 H138        0.9788  -16.7127  -48.3539 H         1 UNK         0.1150 
    139 H139        2.0917  -18.8131  -48.8202 H         1 UNK         0.0800 
    140 H140        0.8987  -19.6222  -47.8440 H         1 UNK         0.0800 
    141 H141       -0.2097  -22.5610  -50.0041 H         1 UNK         0.0800 
    142 H142       -0.6378  -21.4351  -48.7318 H         1 UNK         0.0800 
    143 H143        1.5684  -23.5590  -48.6418 H         1 UNK         0.0600 
    144 H144        0.8185  -21.5739  -46.5419 H         1 UNK         0.3000 
    145 H145        3.8005  -21.9972  -44.8025 H         1 UNK         0.0600 
    146 H146        4.3814  -19.6125  -45.2438 H         1 UNK         0.0600 
    147 H147        3.4016  -19.6290  -46.7085 H         1 UNK         0.0600 
    148 H148        4.8510  -20.6197  -46.6045 H         1 UNK         0.0600 
    149 H149        1.8913  -19.8649  -44.7726 H         1 UNK         0.3000 
    150 H150       -0.7633  -21.5385  -43.1799 H         1 UNK         0.0600 
    151 H151        0.7383  -21.2149  -41.2221 H         1 UNK         0.0600 
    152 H152       -0.4344  -19.9125  -41.3393 H         1 UNK         0.0600 
    153 H153        1.2348  -19.6450  -41.8422 H         1 UNK         0.0600 
    154 H154       -0.4153  -18.7855  -43.5562 H         1 UNK         0.3000 
    155 H155       -0.6881  -17.9997  -46.4541 H         1 UNK         0.0600 
    156 H156       -2.3390  -19.4017  -47.6841 H         1 UNK         0.0600 
    157 H157       -3.0149  -17.8219  -47.3388 H         1 UNK         0.0600 
    158 H158       -3.5032  -19.2195  -46.3774 H         1 UNK         0.0600 
    159 H159       -2.4194  -17.9837  -44.0575 H         1 UNK         0.3000 
    160 H160       -2.5061  -14.5452  -43.7991 H         1 UNK         0.0600 
    161 H161       -2.7595  -17.1797  -42.2310 H         1 UNK         0.0600 
    162 H162       -4.0328  -16.4429  -43.2014 H         1 UNK         0.0600 
    163 H163       -3.4224  -15.6166  -41.7803 H         1 UNK         0.0600 
    164 H164       -0.6945  -14.2178  -42.5711 H         1 UNK         0.3000 
    165 H165        1.3226  -15.8838  -40.5851 H         1 UNK         0.0600 
    166 H166        3.4787  -15.7038  -41.8186 H         1 UNK         0.0600 
    167 H167        2.6029  -17.1510  -42.2778 H         1 UNK         0.0600 
    168 H168        2.6172  -15.7669  -43.3578 H         1 UNK         0.0600 
    169 H169        1.6158  -13.6228  -42.5070 H         1 UNK         0.3000 
    170 H170        0.0339  -11.3539  -40.3297 H         1 UNK         0.0600 
    171 H171        2.1864  -11.2220  -39.1935 H         1 UNK         0.0600 
    172 H172        3.0671  -11.5518  -40.6753 H         1 UNK         0.0600 
    173 H173        2.1857  -10.0339  -40.4890 H         1 UNK         0.0600 
    174 H174        1.5839  -11.0258  -42.7313 H         1 UNK         0.3000 
    175 H175       -0.4978  -12.0853  -45.0255 H         1 UNK         0.0600 
    176 H176       -2.5287  -10.7895  -44.6314 H         1 UNK         0.0600 
    177 H177       -1.6100   -9.3451  -44.2456 H         1 UNK         0.0600 
    178 H178       -1.5896   -9.9971  -45.8849 H         1 UNK         0.0600 
    179 H179        1.4622  -11.2211  -45.4576 H         1 UNK         0.3000 
    180 H180        2.6864   -8.8531  -46.3184 H         1 UNK         0.0600 
    181 H181        3.7174   -8.1916  -43.5090 H         1 UNK         0.0600 
    182 H182        3.0671   -7.0576  -44.6831 H         1 UNK         0.0600 
    183 H183        4.5880   -7.8717  -45.0083 H         1 UNK         0.0600 
    184 H184        3.9129  -10.7037  -46.2207 H         1 UNK         0.3000 
    185 H185        5.6535  -12.2266  -44.9640 H         1 UNK         0.0600 
    186 H186        5.5556  -12.8262  -42.5867 H         1 UNK         0.0600 
    187 H187        3.9608  -13.5346  -42.7726 H         1 UNK         0.0600 
    188 H188        5.3565  -14.2898  -43.5402 H         1 UNK         0.0600 
    189 H189        4.5008  -13.4613  -46.4080 H         1 UNK         0.3000 
    190 H190        0.2305  -23.5626  -45.6740 H         1 UNK         0.3000 
    191 H191       -2.3598  -24.6137  -45.9665 H         1 UNK         0.0600 
    192 H192       -1.5324  -23.6522  -43.8583 H         1 UNK         0.0600 
    193 H193       -2.0714  -25.2968  -43.5736 H         1 UNK         0.0600 
    194 H194       -0.3496  -24.9503  -43.6810 H         1 UNK         0.0600 
    195 H195        0.7128  -26.2507  -46.3064 H         1 UNK         0.3000 
    196 H196       -0.1182  -28.9572  -46.0014 H         1 UNK         0.0600 
    197 H197        1.9752  -29.4348  -47.2863 H         1 UNK         0.0600 
    198 H198        2.2625  -28.2499  -46.0225 H         1 UNK         0.0600 
    199 H199        2.1216  -27.7315  -47.7030 H         1 UNK         0.0600 
    200 H200       -0.6373  -26.6576  -48.5934 H         1 UNK         0.3000 
    201 H201       -1.8222  -28.7472  -50.3792 H         1 UNK         0.0600 
    202 H202        0.0475  -27.3871  -51.3741 H         1 UNK         0.0600 
    203 H203       -0.8412  -25.9080  -51.0122 H         1 UNK         0.0600 
    204 H204       -1.4837  -27.0679  -52.1698 H         1 UNK         0.0600 
    205 H205       -2.8371  -27.0878  -47.8637 H         1 UNK         0.3000 
    206 H206       -4.5790  -25.9620  -47.1021 H         1 UNK         0.0600 
    207 H207       -5.8004  -27.9867  -47.9374 H         1 UNK         0.0600 
    208 H208       -6.8151  -26.5547  -47.9625 H         1 UNK         0.0600 
    209 H209       -6.1264  -27.1630  -49.4617 H         1 UNK         0.0600 
    210 H210       -2.8099  -24.5384  -48.8474 H         1 UNK         0.3000 
    211 H211       -2.4402  -22.7144  -49.9955 H         1 UNK         0.0600 
    212 H212       -5.1193  -21.6660  -48.9469 H         1 UNK         0.0600 
    213 H213       -3.7712  -20.6980  -49.5263 H         1 UNK         0.0600 
    214 H214       -3.6011  -21.6298  -48.0521 H         1 UNK         0.0600 
    215 H215       -4.1036  -24.9246  -51.2768 H         1 UNK         0.3000 
    216 H216       -5.3081  -25.4671  -53.0362 H         1 UNK         0.0600 
    217 H217       -4.8083  -24.3899  -55.1911 H         1 UNK         0.0600 
    218 H218       -3.3242  -24.5804  -54.2688 H         1 UNK         0.0600 
    219 H219       -4.0973  -23.0009  -54.3759 H         1 UNK         0.0600 
    220 H220       -6.7765  -24.4202  -51.1480 H         1 UNK         0.3000 
    221 H221       -8.7291  -23.6406  -50.5289 H         1 UNK         0.0600 
    222 H222       -9.4719  -23.2782  -53.4813 H         1 UNK         0.0600 
    223 H223       -9.6365  -24.7849  -52.5795 H         1 UNK         0.0600 
    224 H224      -10.5822  -23.3788  -52.1232 H         1 UNK         0.0600 
    225 H225       -6.4032  -21.8299  -51.2286 H         1 UNK         0.3000 
    226 H226       -5.7231  -19.7593  -51.0653 H         1 UNK         0.0600 
    227 H227       -7.2584  -19.5250  -49.1001 H         1 UNK         0.0600 
    228 H228       -7.0166  -18.0109  -49.9539 H         1 UNK         0.0600 
    229 H229       -8.5163  -18.9004  -50.1678 H         1 UNK         0.0600 
    230 H230       -7.1449  -20.8834  -53.5311 H         1 UNK         0.3000 
    231 H231       -7.9296  -18.4040  -54.9627 H         1 UNK         0.0600 
    232 H232       -8.2028  -21.3665  -55.7003 H         1 UNK         0.0600 
    233 H233       -8.7587  -20.0106  -56.6743 H         1 UNK         0.0600 
    234 H234       -9.4765  -20.3126  -55.0994 H         1 UNK         0.0600 
    235 H235       -5.9463  -21.3399  -55.6736 H         1 UNK         0.3000 
    236 H236       -4.4359  -19.8505  -57.7023 H         1 UNK         0.0600 
    237 H237       -5.2497  -22.1429  -58.1652 H         1 UNK         0.0600 
    238 H238       -3.4967  -22.0720  -58.2388 H         1 UNK         0.0600 
    239 H239       -4.2838  -22.7798  -56.8373 H         1 UNK         0.0600 
    240 H240       -3.9352  -20.8737  -54.3869 H         1 UNK         0.3000 
    241 H241       -2.2994  -20.7294  -52.9277 H         1 UNK         0.0600 
    242 H242       -0.0985  -23.0531  -55.0328 H         1 UNK         0.3800 
    243 H243       -1.7775  -22.6600  -55.2908 H         1 UNK         0.3800 
    244 H244       -1.0951  -18.5249  -54.6509 H         1 UNK         0.0800 
    245 H245       -0.7206  -18.8125  -52.9790 H         1 UNK         0.0800 
    246 H246       -4.0371  -17.7770  -51.1166 H         1 UNK         0.0800 
    247 H247       -3.3014  -19.3307  -51.3908 H         1 UNK         0.0800 
@<TRIPOS>BOND
     1    1    2 1    
     2    1  127 1    
     3    1  128 1    
     4    1  129 1    
     5    2    3 2    
     6    2    4 am   BACKBONE|DICT|INTERRES
     7    4    5 1    
     8    4  130 1    
     9    5    6 1    
    10    5   65 1    
    11    5  131 1    
    12    6    7 1    
    13    6  132 1    
    14    6  133 1    
    15    7    8 1    
    16    8    9 1    
    17    8  134 1    
    18    8  135 1    
    19    9   10 ar   
    20    9   14 ar   
    21   10   11 ar   
    22   10  136 1    
    23   11   12 ar   
    24   11  126 1    
    25   12   13 ar   
    26   12  137 1    
    27   13   14 ar   
    28   13   15 1    
    29   14  138 1    
    30   15   16 1    
    31   15  139 1    
    32   15  140 1    
    33   16   17 1    
    34   17   18 1    
    35   17  141 1    
    36   17  142 1    
    37   18   19 1    
    38   18   67 1    
    39   18  143 1    
    40   19   20 am   BACKBONE|DICT|INTERRES
    41   19  144 1    
    42   20   21 2    
    43   20   22 1    
    44   22   23 1    
    45   22   24 1    
    46   22  145 1    
    47   23  146 1    
    48   23  147 1    
    49   23  148 1    
    50   24   25 am   BACKBONE|DICT|INTERRES
    51   24  149 1    
    52   25   26 2    
    53   25   27 1    
    54   27   28 1    
    55   27   29 1    
    56   27  150 1    
    57   28  151 1    
    58   28  152 1    
    59   28  153 1    
    60   29   30 am   BACKBONE|DICT|INTERRES
    61   29  154 1    
    62   30   31 2    
    63   30   32 1    
    64   32   33 1    
    65   32   34 1    
    66   32  155 1    
    67   33  156 1    
    68   33  157 1    
    69   33  158 1    
    70   34   35 am   BACKBONE|DICT|INTERRES
    71   34  159 1    
    72   35   36 2    
    73   35   37 1    
    74   37   38 1    
    75   37   39 1    
    76   37  160 1    
    77   38  161 1    
    78   38  162 1    
    79   38  163 1    
    80   39   40 am   BACKBONE|DICT|INTERRES
    81   39  164 1    
    82   40   41 2    
    83   40   42 1    
    84   42   43 1    
    85   42   44 1    
    86   42  165 1    
    87   43  166 1    
    88   43  167 1    
    89   43  168 1    
    90   44   45 am   BACKBONE|DICT|INTERRES
    91   44  169 1    
    92   45   46 2    
    93   45   47 1    
    94   47   48 1    
    95   47   49 1    
    96   47  170 1    
    97   48  171 1    
    98   48  172 1    
    99   48  173 1    
   100   49   50 am   BACKBONE|DICT|INTERRES
   101   49  174 1    
   102   50   51 2    
   103   50   52 1    
   104   52   53 1    
   105   52   54 1    
   106   52  175 1    
   107   53  176 1    
   108   53  177 1    
   109   53  178 1    
   110   54   55 am   BACKBONE|DICT|INTERRES
   111   54  179 1    
   112   55   56 2    
   113   55   57 1    
   114   57   58 1    
   115   57   59 1    
   116   57  180 1    
   117   58  181 1    
   118   58  182 1    
   119   58  183 1    
   120   59   60 am   BACKBONE|DICT|INTERRES
   121   59  184 1    
   122   60   61 2    
   123   60   62 1    
   124   62   63 1    
   125   62   64 1    
   126   62  185 1    
   127   63  186 1    
   128   63  187 1    
   129   63  188 1    
   130   64   65 am   BACKBONE|DICT|INTERRES
   131   64  189 1    
   132   65   66 2    
   133   67   68 2    
   134   67   69 am   BACKBONE|DICT|INTERRES
   135   69   70 1    
   136   69  190 1    
   137   70   71 1    
   138   70   72 1    
   139   70  191 1    
   140   71  192 1    
   141   71  193 1    
   142   71  194 1    
   143   72   73 2    
   144   72   74 am   BACKBONE|DICT|INTERRES
   145   74   75 1    
   146   74  195 1    
   147   75   76 1    
   148   75   77 1    
   149   75  196 1    
   150   76  197 1    
   151   76  198 1    
   152   76  199 1    
   153   77   78 2    
   154   77   79 am   BACKBONE|DICT|INTERRES
   155   79   80 1    
   156   79  200 1    
   157   80   81 1    
   158   80   82 1    
   159   80  201 1    
   160   81  202 1    
   161   81  203 1    
   162   81  204 1    
   163   82   83 2    
   164   82   84 am   BACKBONE|DICT|INTERRES
   165   84   85 1    
   166   84  205 1    
   167   85   86 1    
   168   85   87 1    
   169   85  206 1    
   170   86  207 1    
   171   86  208 1    
   172   86  209 1    
   173   87   88 2    
   174   87   89 am   BACKBONE|DICT|INTERRES
   175   89   90 1    
   176   89  210 1    
   177   90   91 1    
   178   90   92 1    
   179   90  211 1    
   180   91  212 1    
   181   91  213 1    
   182   91  214 1    
   183   92   93 2    
   184   92   94 am   BACKBONE|DICT|INTERRES
   185   94   95 1    
   186   94  215 1    
   187   95   96 1    
   188   95   97 1    
   189   95  216 1    
   190   96  217 1    
   191   96  218 1    
   192   96  219 1    
   193   97   98 2    
   194   97   99 am   BACKBONE|DICT|INTERRES
   195   99  100 1    
   196   99  220 1    
   197  100  101 1    
   198  100  102 1    
   199  100  221 1    
   200  101  222 1    
   201  101  223 1    
   202  101  224 1    
   203  102  103 2    
   204  102  104 am   BACKBONE|DICT|INTERRES
   205  104  105 1    
   206  104  225 1    
   207  105  106 1    
   208  105  107 1    
   209  105  226 1    
   210  106  227 1    
   211  106  228 1    
   212  106  229 1    
   213  107  108 2    
   214  107  109 am   BACKBONE|DICT|INTERRES
   215  109  110 1    
   216  109  230 1    
   217  110  111 1    
   218  110  112 1    
   219  110  231 1    
   220  111  232 1    
   221  111  233 1    
   222  111  234 1    
   223  112  113 2    
   224  112  114 am   BACKBONE|DICT|INTERRES
   225  114  115 1    
   226  114  235 1    
   227  115  116 1    
   228  115  117 1    
   229  115  236 1    
   230  116  237 1    
   231  116  238 1    
   232  116  239 1    
   233  117  118 2    
   234  117  119 am   BACKBONE|DICT|INTERRES
   235  119  120 1    
   236  119  240 1    
   237  120  121 1    
   238  120  124 1    
   239  120  241 1    
   240  121  122 am   BACKBONE|DICT|INTERRES
   241  121  123 2    
   242  122  242 1    
   243  122  243 1    
   244  124  125 1    
   245  124  244 1    
   246  124  245 1    
   247  125  126 1    
   248  126  246 1    
   249  126  247 1    
@<TRIPOS>SUBSTRUCTURE
     1 UNK         1 GROUP             0       ****    0 ROOT    
