@<TRIPOS>MOLECULE
3R540
247   249    1
SMALL
USER_CHARGES


@<TRIPOS>ATOM
      1 CA         -2.4851  -17.6125  -46.9585 C.3       0 UNK        -0.1800 
      2 C          -1.8630  -16.3866  -47.6006 C.2       0 UNK         0.5000 
      3 O          -0.6693  -16.1467  -47.4373 O.2       0 UNK        -0.5000 
      4 N          -2.6731  -15.5848  -48.3011 N.am      1 UNK        -0.5000 
      5 CA         -2.3298  -14.3048  -48.9454 C.3       1 UNK         0.1400 
      6 C6         -1.0958  -14.3338  -49.8944 C.3       23 UNK        -0.0398 
      7 S7         -0.9957  -15.8048  -50.9795 S.3       23 UNK        -0.2404 
      8 C8          0.7299  -16.3018  -50.6654 C.3       23 UNK        -0.0205 
      9 C9          1.0578  -17.6731  -51.2341 C.ar      23 UNK        -0.0193 
     10 C10         1.0645  -17.8777  -52.6157 C.ar      23 UNK        -0.1150 
     11 C11         1.3869  -19.1290  -53.1448 C.ar      23 UNK        -0.0193 
     12 C12         1.7231  -20.1725  -52.2776 C.ar      23 UNK        -0.1150 
     13 C13         1.7328  -19.9882  -50.8910 C.ar      23 UNK        -0.0193 
     14 C14         1.3929  -18.7277  -50.3783 C.ar      23 UNK        -0.1150 
     15 C15         2.1179  -21.1844  -50.0128 C.3       23 UNK        -0.0205 
     16 S16         2.2173  -20.8848  -48.2110 S.3       23 UNK        -0.2404 
     17 C17         0.4554  -20.8119  -47.7528 C.3       23 UNK        -0.0398 
     18 CA          0.0114  -22.0183  -46.8903 C.3       11 UNK         0.1400 
     19 N           0.6130  -22.0330  -45.5483 N.am      11 UNK        -0.5000 
     20 C           0.4766  -23.0375  -44.6672 C.2       10 UNK         0.5000 
     21 O          -0.1202  -24.0840  -44.9181 O.2       10 UNK        -0.5000 
     22 CA          1.0385  -22.8245  -43.2480 C.3       10 UNK         0.1400 
     23 CB          2.5515  -23.0820  -43.1954 C.3       10 UNK        -0.1800 
     24 N           0.7302  -21.4961  -42.7177 N.am      10 UNK        -0.5000 
     25 C          -0.5111  -21.0684  -42.4420 C.2       9 UNK         0.5000 
     26 O          -1.5114  -21.7789  -42.5349 O.2       9 UNK        -0.5000 
     27 CA         -0.6755  -19.5856  -42.0577 C.3       9 UNK         0.1400 
     28 CB         -0.4461  -19.3799  -40.5536 C.3       9 UNK        -0.1800 
     29 N           0.2102  -18.7046  -42.8186 N.am      9 UNK        -0.5000 
     30 C           0.1925  -18.5775  -44.1521 C.2       8 UNK         0.5000 
     31 O          -0.6226  -19.1469  -44.8749 O.2       8 UNK        -0.5000 
     32 CA          1.3084  -17.7302  -44.7862 C.3       8 UNK         0.1400 
     33 CB          1.0051  -16.2369  -44.6679 C.3       8 UNK        -0.1800 
     34 N           2.6082  -17.9921  -44.1777 N.am      8 UNK        -0.5000 
     35 C           3.2788  -19.1444  -44.2870 C.2       7 UNK         0.5000 
     36 O           2.8854  -20.1028  -44.9493 O.2       7 UNK        -0.5000 
     37 CA          4.5828  -19.2501  -43.4766 C.3       7 UNK         0.1400 
     38 CB          5.7578  -18.6419  -44.2565 C.3       7 UNK        -0.1800 
     39 N           4.4743  -18.5965  -42.1693 N.am      7 UNK        -0.5000 
     40 C           3.7051  -19.0491  -41.1692 C.2       6 UNK         0.5000 
     41 O           3.0400  -20.0833  -41.2362 O.2       6 UNK        -0.5000 
     42 CA          3.6399  -18.1800  -39.8986 C.3       6 UNK         0.1400 
     43 CB          4.8461  -18.4591  -38.9894 C.3       6 UNK        -0.1800 
     44 N           3.5557  -16.7396  -40.1701 N.am      6 UNK        -0.5000 
     45 C           2.5303  -16.1484  -40.7975 C.2       5 UNK         0.5000 
     46 O           1.5890  -16.7722  -41.2879 O.2       5 UNK        -0.5000 
     47 CA          2.5813  -14.6151  -40.9323 C.3       5 UNK         0.1400 
     48 CB          3.3240  -14.2039  -42.2129 C.3       5 UNK        -0.1800 
     49 N           1.2344  -14.0404  -40.9542 N.am      5 UNK        -0.5000 
     50 C           0.4707  -13.8730  -39.8637 C.2       4 UNK         0.5000 
     51 O           0.8609  -14.1061  -38.7185 O.2       4 UNK        -0.5000 
     52 CA         -0.9675  -13.3541  -40.0747 C.3       4 UNK         0.1400 
     53 CB         -1.0097  -11.8229  -39.9570 C.3       4 UNK        -0.1800 
     54 N          -1.5315  -13.7459  -41.3657 N.am      4 UNK        -0.5000 
     55 C          -1.8825  -14.9931  -41.6995 C.2       3 UNK         0.5000 
     56 O          -1.9055  -15.9205  -40.8903 O.2       3 UNK        -0.5000 
     57 CA         -2.2750  -15.2741  -43.1691 C.3       3 UNK         0.1400 
     58 CB         -3.7006  -15.8453  -43.2507 C.3       3 UNK        -0.1800 
     59 N          -2.1696  -14.1683  -44.1367 N.am      3 UNK        -0.5000 
     60 C          -1.1028  -13.4085  -44.4289 C.2       2 UNK         0.5000 
     61 O          -0.0493  -13.4231  -43.7904 O.2       2 UNK        -0.5000 
     62 CA         -1.2404  -12.5325  -45.6853 C.3       2 UNK         0.1400 
     63 CB         -0.0091  -11.6452  -45.9470 C.3       2 UNK        -0.1800 
     64 N          -1.4634  -13.4163  -46.8255 N.am      2 UNK        -0.5000 
     65 C          -2.1990  -13.1597  -47.9130 C.2       1 UNK         0.5000 
     66 O          -2.7804  -12.0917  -48.1078 O.2       1 UNK        -0.5000 
     67 C          -1.5281  -22.0877  -46.8353 C.2       11 UNK         0.5000 
     68 O          -2.1222  -22.8221  -47.6256 O.2       11 UNK        -0.5000 
     69 N          -2.1433  -21.3493  -45.9005 N.am      12 UNK        -0.5000 
     70 CA         -3.5837  -21.3716  -45.6434 C.3       12 UNK         0.1400 
     71 CB         -3.9604  -20.2640  -44.6472 C.3       12 UNK        -0.1800 
     72 C          -4.0695  -22.7422  -45.1400 C.2       12 UNK         0.5000 
     73 O          -5.0504  -23.2650  -45.6686 O.2       12 UNK        -0.5000 
     74 N          -3.3575  -23.3125  -44.1571 N.am      13 UNK        -0.5000 
     75 CA         -3.6423  -24.6235  -43.5677 C.3       13 UNK         0.1400 
     76 CB         -2.7345  -24.8456  -42.3486 C.3       13 UNK        -0.1800 
     77 C          -3.4978  -25.7840  -44.5693 C.2       13 UNK         0.5000 
     78 O          -4.3145  -26.7057  -44.5548 O.2       13 UNK        -0.5000 
     79 N          -2.4808  -25.7041  -45.4372 N.am      14 UNK        -0.5000 
     80 CA         -2.2339  -26.6550  -46.5222 C.3       14 UNK         0.1400 
     81 CB         -0.7824  -26.4879  -47.0001 C.3       14 UNK        -0.1800 
     82 C          -3.2003  -26.4965  -47.7132 C.2       14 UNK         0.5000 
     83 O          -3.2615  -27.3960  -48.5522 O.2       14 UNK        -0.5000 
     84 N          -3.9001  -25.3525  -47.7868 N.am      15 UNK        -0.5000 
     85 CA         -4.7201  -24.8782  -48.9084 C.3       15 UNK         0.1400 
     86 CB         -5.9644  -25.7683  -49.1048 C.3       15 UNK        -0.1800 
     87 C          -3.8848  -24.6964  -50.1957 C.2       15 UNK         0.5000 
     88 O          -4.3521  -24.9938  -51.2963 O.2       15 UNK        -0.5000 
     89 N          -2.6457  -24.2262  -50.0129 N.am      16 UNK        -0.5000 
     90 CA         -1.6270  -24.0591  -51.0468 C.3       16 UNK         0.1400 
     91 CB         -0.2973  -24.5988  -50.4928 C.3       16 UNK        -0.1800 
     92 C          -1.4693  -22.5921  -51.4855 C.2       16 UNK         0.5000 
     93 O          -0.7225  -22.3332  -52.4270 O.2       16 UNK        -0.5000 
     94 N          -2.1432  -21.6658  -50.7894 N.am      17 UNK        -0.5000 
     95 CA         -2.1323  -20.2260  -51.0492 C.3       17 UNK         0.1400 
     96 CB         -2.8624  -19.5273  -49.8930 C.3       17 UNK        -0.1800 
     97 C          -2.7755  -19.8429  -52.3956 C.2       17 UNK         0.5000 
     98 O          -3.5589  -20.6150  -52.9551 O.2       17 UNK        -0.5000 
     99 N          -2.4825  -18.6220  -52.8627 N.am      18 UNK        -0.5000 
    100 CA        -2.9606  -18.0386  -54.1205 C.3       18 UNK         0.1400 
    101 CB        -2.0322  -16.8778  -54.5177 C.3       18 UNK        -0.1800 
    102 C         -4.4494  -17.6217  -54.0988 C.2       18 UNK         0.5000 
    103 O         -4.7986  -16.5288  -54.5485 O.2       18 UNK        -0.5000 
    104 N         -5.3216  -18.5145  -53.6186 N.am      19 UNK        -0.5000 
    105 CA        -6.7790  -18.3824  -53.6116 C.3       19 UNK         0.1400 
    106 CB        -7.3452  -19.2740  -52.4922 C.3       19 UNK        -0.1800 
    107 C         -7.3500  -18.7292  -55.0019 C.2       19 UNK         0.5000 
    108 O         -8.0328  -19.7422  -55.1595 O.2       19 UNK        -0.5000 
    109 N         -6.9830  -17.9086  -55.9980 N.am      20 UNK        -0.5000 
    110 CA        -7.2186  -18.0726  -57.4407 C.3       20 UNK         0.1400 
    111 CB        -8.7271  -18.0889  -57.7655 C.3       20 UNK        -0.1800 
    112 C         -6.4611  -19.2700  -58.0632 C.2       20 UNK         0.5000 
    113 O         -6.7822  -19.6841  -59.1783 O.2       20 UNK        -0.5000 
    114 N         -5.4633  -19.7919  -57.3378 N.am      21 UNK        -0.5000 
    115 CA        -4.5946  -20.8945  -57.7352 C.3       21 UNK         0.1400 
    116 CB        -4.3698  -21.8051  -56.5101 C.3       21 UNK        -0.1800 
    117 C         -3.2943  -20.3222  -58.3302 C.2       21 UNK         0.5000 
    118 O         -3.2941  -19.8871  -59.4817 O.2       21 UNK        -0.5000 
    119 N         -2.2187  -20.3119  -57.5349 N.am      22 UNK        -0.5000 
    120 CA        -0.8720  -19.8212  -57.8788 C.3       22 UNK         0.1400 
    121 C         -0.7124  -18.2728  -57.9936 C.2       22 UNK         0.5000 
    122 N         -1.7776  -17.4836  -57.9480 N.am      22 UNK        -0.7600 
    123 O          0.3996  -17.7752  -58.1480 O.2       22 UNK        -0.5000 
    124 C124        0.2010  -20.4704  -56.9632 C.3       23 UNK        -0.0398 
    125 S125       -0.1144  -20.2380  -55.1782 S.3       23 UNK        -0.2404 
    126 C126        1.3848  -19.3562  -54.6494 C.3       23 UNK        -0.0205 
    127 H127       -1.8658  -18.4881  -47.1455 H         1 UNK         0.0600 
    128 H128       -3.4879  -17.8114  -47.3363 H         1 UNK         0.0600 
    129 H129       -2.5432  -17.4625  -45.8814 H         1 UNK         0.0600 
    130 H130       -3.6483  -15.8372  -48.3762 H         1 UNK         0.3000 
    131 H131       -3.1966  -14.0656  -49.5637 H         1 UNK         0.0600 
    132 H132       -0.1744  -14.2601  -49.3145 H         1 UNK         0.0800 
    133 H133       -1.1052  -13.4501  -50.5343 H         1 UNK         0.0800 
    134 H134        0.9191  -16.2916  -49.5911 H         1 UNK         0.0800 
    135 H135        1.4011  -15.5616  -51.1029 H         1 UNK         0.0800 
    136 H136        0.8197  -17.0581  -53.2757 H         1 UNK         0.1150 
    137 H137        1.9684  -21.1419  -52.6891 H         1 UNK         0.1150 
    138 H138        1.3935  -18.5497  -49.3134 H         1 UNK         0.1150 
    139 H139        3.0955  -21.5424  -50.3386 H         1 UNK         0.0800 
    140 H140        1.4188  -22.0007  -50.1982 H         1 UNK         0.0800 
    141 H141        0.2773  -19.8732  -47.2281 H         1 UNK         0.0800 
    142 H142       -0.1332  -20.7566  -48.6701 H         1 UNK         0.0800 
    143 H143        0.3429  -22.9282  -47.3948 H         1 UNK         0.0600 
    144 H144        1.1630  -21.2215  -45.2865 H         1 UNK         0.3000 
    145 H145        0.5593  -23.5556  -42.5936 H         1 UNK         0.0600 
    146 H146        2.7808  -24.1014  -43.5076 H         1 UNK         0.0600 
    147 H147        2.9379  -22.9562  -42.1837 H         1 UNK         0.0600 
    148 H148        3.1051  -22.4107  -43.8498 H         1 UNK         0.0600 
    149 H149        1.5082  -20.8633  -42.5742 H         1 UNK         0.3000 
    150 H150       -1.7024  -19.2937  -42.2862 H         1 UNK         0.0600 
    151 H151        0.5692  -19.6448  -40.2595 H         1 UNK         0.0600 
    152 H152       -1.1297  -19.9951  -39.9674 H         1 UNK         0.0600 
    153 H153       -0.6158  -18.3416  -40.2680 H         1 UNK         0.0600 
    154 H154        0.8668  -18.1440  -42.2795 H         1 UNK         0.3000 
    155 H155        1.3632  -17.9853  -45.8468 H         1 UNK         0.0600 
    156 H156        1.7422  -15.6342  -45.1984 H         1 UNK         0.0600 
    157 H157        0.9776  -15.9090  -43.6308 H         1 UNK         0.0600 
    158 H158        0.0334  -16.0090  -45.0944 H         1 UNK         0.0600 
    159 H159        2.9795  -17.2744  -43.5749 H         1 UNK         0.3000 
    160 H160        4.7908  -20.3103  -43.3159 H         1 UNK         0.0600 
    161 H161        6.6977  -18.7755  -43.7207 H         1 UNK         0.0600 
    162 H162        5.6186  -17.5742  -44.4308 H         1 UNK         0.0600 
    163 H163        5.8684  -19.1218  -45.2300 H         1 UNK         0.0600 
    164 H164        4.9939  -17.7417  -42.0348 H         1 UNK         0.3000 
    165 H165        2.7363  -18.4662  -39.3560 H         1 UNK         0.0600 
    166 H166        4.7571  -17.9275  -38.0418 H         1 UNK         0.0600 
    167 H167        4.9224  -19.5224  -38.7575 H         1 UNK         0.0600 
    168 H168        5.7838  -18.1572  -39.4576 H         1 UNK         0.0600 
    169 H169        4.3039  -16.1683  -39.8044 H         1 UNK         0.3000 
    170 H170        3.1242  -14.2088  -40.0762 H         1 UNK         0.0600 
    171 H171        3.4179  -13.1198  -42.2787 H         1 UNK         0.0600 
    172 H172        2.8097  -14.5446  -43.1106 H         1 UNK         0.0600 
    173 H173        4.3329  -14.6178  -42.2338 H         1 UNK         0.0600 
    174 H174        0.8291  -13.8626  -41.8664 H         1 UNK         0.3000 
    175 H175       -1.5921  -13.7753  -39.2841 H         1 UNK         0.0600 
    176 H176       -0.6171  -11.4944  -38.9937 H         1 UNK         0.0600 
    177 H177       -0.4148  -11.3432  -40.7353 H         1 UNK         0.0600 
    178 H178       -2.0308  -11.4491  -40.0354 H         1 UNK         0.0600 
    179 H179       -1.4898  -13.0600  -42.1058 H         1 UNK         0.3000 
    180 H180       -1.5984  -16.0587  -43.5060 H         1 UNK         0.0600 
    181 H181       -4.4429  -15.1118  -42.9338 H         1 UNK         0.0600 
    182 H182       -3.8130  -16.7235  -42.6132 H         1 UNK         0.0600 
    183 H183       -3.9473  -16.1564  -44.2658 H         1 UNK         0.0600 
    184 H184       -2.9834  -14.0436  -44.7212 H         1 UNK         0.3000 
    185 H185       -2.1106  -11.8893  -45.5392 H         1 UNK         0.0600 
    186 H186        0.1847  -10.9857  -45.1002 H         1 UNK         0.0600 
    187 H187        0.8880  -12.2430  -46.1125 H         1 UNK         0.0600 
    188 H188       -0.1570  -11.0141  -46.8234 H         1 UNK         0.0600 
    189 H189       -1.0310  -14.3349  -46.7667 H         1 UNK         0.3000 
    190 H190       -1.5838  -20.7179  -45.3322 H         1 UNK         0.3000 
    191 H191       -4.0915  -21.1631  -46.5875 H         1 UNK         0.0600 
    192 H192       -3.6818  -19.2813  -45.0207 H         1 UNK         0.0600 
    193 H193       -5.0366  -20.2490  -44.4710 H         1 UNK         0.0600 
    194 H194       -3.4741  -20.4015  -43.6822 H         1 UNK         0.0600 
    195 H195       -2.5843  -22.7932  -43.7485 H         1 UNK         0.3000 
    196 H196       -4.6780  -24.6130  -43.2221 H         1 UNK         0.0600 
    197 H197       -2.9356  -25.8100  -41.8806 H         1 UNK         0.0600 
    198 H198       -2.8957  -24.0772  -41.5924 H         1 UNK         0.0600 
    199 H199       -1.6798  -24.8266  -42.6248 H         1 UNK         0.0600 
    200 H200       -1.8077  -24.9489  -45.3353 H         1 UNK         0.3000 
    201 H201       -2.3527  -27.6681  -46.1326 H         1 UNK         0.0600 
    202 H202       -0.5441  -27.1970  -47.7938 H         1 UNK         0.0600 
    203 H203       -0.0771  -26.6616  -46.1872 H         1 UNK         0.0600 
    204 H204       -0.6029  -25.4852  -47.3901 H         1 UNK         0.0600 
    205 H205       -3.7728  -24.6833  -47.0386 H         1 UNK         0.3000 
    206 H206       -5.0679  -23.8828  -48.6284 H         1 UNK         0.0600 
    207 H207       -6.5229  -25.8731  -48.1746 H         1 UNK         0.0600 
    208 H208       -6.6409  -25.3345  -49.8420 H         1 UNK         0.0600 
    209 H209       -5.7007  -26.7672  -49.4529 H         1 UNK         0.0600 
    210 H210       -2.3795  -23.9443  -49.0717 H         1 UNK         0.3000 
    211 H211       -1.8907  -24.6395  -51.9332 H         1 UNK         0.0600 
    212 H212        0.0206  -24.0503  -49.6057 H         1 UNK         0.0600 
    213 H213        0.4998  -24.5190  -51.2331 H         1 UNK         0.0600 
    214 H214       -0.3835  -25.6512  -50.2214 H         1 UNK         0.0600 
    215 H215       -2.7463  -21.9871  -50.0473 H         1 UNK         0.3000 
    216 H216       -1.0936  -19.8969  -51.0636 H         1 UNK         0.0600 
    217 H217       -2.7679  -18.4432  -49.9666 H         1 UNK         0.0600 
    218 H218       -2.4498  -19.8276  -48.9313 H         1 UNK         0.0600 
    219 H219       -3.9267  -19.7663  -49.8860 H         1 UNK         0.0600 
    220 H220       -1.8632  -18.0351  -52.3207 H         1 UNK         0.3000 
    221 H221       -2.8718  -18.8003  -54.8972 H         1 UNK         0.0600 
    222 H222       -2.0103  -16.0989  -53.7560 H         1 UNK         0.0600 
    223 H223       -1.0140  -17.2282  -54.6794 H         1 UNK         0.0600 
    224 H224       -2.3541  -16.4105  -55.4482 H         1 UNK         0.0600 
    225 H225       -4.9437  -19.4058  -53.3061 H         1 UNK         0.3000 
    226 H226       -7.0493  -17.3484  -53.3873 H         1 UNK         0.0600 
    227 H227       -6.9587  -18.9740  -51.5180 H         1 UNK         0.0600 
    228 H228       -7.0894  -20.3236  -52.6435 H         1 UNK         0.0600 
    229 H229       -8.4326  -19.2017  -52.4466 H         1 UNK         0.0600 
    230 H230       -6.3870  -17.1271  -55.7424 H         1 UNK         0.3000 
    231 H231       -6.7968  -17.1830  -57.9105 H         1 UNK         0.0600 
    232 H232       -9.2103  -19.0001  -57.4123 H         1 UNK         0.0600 
    233 H233       -8.8955  -18.0297  -58.8413 H         1 UNK         0.0600 
    234 H234       -9.2378  -17.2394  -57.3122 H         1 UNK         0.0600 
    235 H235       -5.2823  -19.3799  -56.4363 H         1 UNK         0.3000 
    236 H236       -5.0734  -21.4928  -58.5131 H         1 UNK         0.0600 
    237 H237       -3.9597  -21.2629  -55.6572 H         1 UNK         0.0600 
    238 H238       -5.3092  -22.2540  -56.1865 H         1 UNK         0.0600 
    239 H239       -3.6891  -22.6241  -56.7465 H         1 UNK         0.0600 
    240 H240       -2.3069  -20.6794  -56.5985 H         1 UNK         0.3000 
    241 H241       -0.6656  -20.1804  -58.8886 H         1 UNK         0.0600 
    242 H242       -2.7016  -17.8784  -57.9027 H         1 UNK         0.3800 
    243 H243       -1.6570  -16.4876  -58.0398 H         1 UNK         0.3800 
    244 H244        1.2011  -20.1172  -57.2196 H         1 UNK         0.0800 
    245 H245        0.2232  -21.5450  -57.1483 H         1 UNK         0.0800 
    246 H246        2.2660  -19.9349  -54.9303 H         1 UNK         0.0800 
    247 H247        1.4512  -18.4064  -55.1827 H         1 UNK         0.0800 
@<TRIPOS>BOND
     1    1    2 1    
     2    1  127 1    
     3    1  128 1    
     4    1  129 1    
     5    2    3 2    
     6    2    4 am   BACKBONE|DICT|INTERRES
     7    4    5 1    
     8    4  130 1    
     9    5    6 1    
    10    5   65 1    
    11    5  131 1    
    12    6    7 1    
    13    6  132 1    
    14    6  133 1    
    15    7    8 1    
    16    8    9 1    
    17    8  134 1    
    18    8  135 1    
    19    9   10 ar   
    20    9   14 ar   
    21   10   11 ar   
    22   10  136 1    
    23   11   12 ar   
    24   11  126 1    
    25   12   13 ar   
    26   12  137 1    
    27   13   14 ar   
    28   13   15 1    
    29   14  138 1    
    30   15   16 1    
    31   15  139 1    
    32   15  140 1    
    33   16   17 1    
    34   17   18 1    
    35   17  141 1    
    36   17  142 1    
    37   18   19 1    
    38   18   67 1    
    39   18  143 1    
    40   19   20 am   BACKBONE|DICT|INTERRES
    41   19  144 1    
    42   20   21 2    
    43   20   22 1    
    44   22   23 1    
    45   22   24 1    
    46   22  145 1    
    47   23  146 1    
    48   23  147 1    
    49   23  148 1    
    50   24   25 am   BACKBONE|DICT|INTERRES
    51   24  149 1    
    52   25   26 2    
    53   25   27 1    
    54   27   28 1    
    55   27   29 1    
    56   27  150 1    
    57   28  151 1    
    58   28  152 1    
    59   28  153 1    
    60   29   30 am   BACKBONE|DICT|INTERRES
    61   29  154 1    
    62   30   31 2    
    63   30   32 1    
    64   32   33 1    
    65   32   34 1    
    66   32  155 1    
    67   33  156 1    
    68   33  157 1    
    69   33  158 1    
    70   34   35 am   BACKBONE|DICT|INTERRES
    71   34  159 1    
    72   35   36 2    
    73   35   37 1    
    74   37   38 1    
    75   37   39 1    
    76   37  160 1    
    77   38  161 1    
    78   38  162 1    
    79   38  163 1    
    80   39   40 am   BACKBONE|DICT|INTERRES
    81   39  164 1    
    82   40   41 2    
    83   40   42 1    
    84   42   43 1    
    85   42   44 1    
    86   42  165 1    
    87   43  166 1    
    88   43  167 1    
    89   43  168 1    
    90   44   45 am   BACKBONE|DICT|INTERRES
    91   44  169 1    
    92   45   46 2    
    93   45   47 1    
    94   47   48 1    
    95   47   49 1    
    96   47  170 1    
    97   48  171 1    
    98   48  172 1    
    99   48  173 1    
   100   49   50 am   BACKBONE|DICT|INTERRES
   101   49  174 1    
   102   50   51 2    
   103   50   52 1    
   104   52   53 1    
   105   52   54 1    
   106   52  175 1    
   107   53  176 1    
   108   53  177 1    
   109   53  178 1    
   110   54   55 am   BACKBONE|DICT|INTERRES
   111   54  179 1    
   112   55   56 2    
   113   55   57 1    
   114   57   58 1    
   115   57   59 1    
   116   57  180 1    
   117   58  181 1    
   118   58  182 1    
   119   58  183 1    
   120   59   60 am   BACKBONE|DICT|INTERRES
   121   59  184 1    
   122   60   61 2    
   123   60   62 1    
   124   62   63 1    
   125   62   64 1    
   126   62  185 1    
   127   63  186 1    
   128   63  187 1    
   129   63  188 1    
   130   64   65 am   BACKBONE|DICT|INTERRES
   131   64  189 1    
   132   65   66 2    
   133   67   68 2    
   134   67   69 am   BACKBONE|DICT|INTERRES
   135   69   70 1    
   136   69  190 1    
   137   70   71 1    
   138   70   72 1    
   139   70  191 1    
   140   71  192 1    
   141   71  193 1    
   142   71  194 1    
   143   72   73 2    
   144   72   74 am   BACKBONE|DICT|INTERRES
   145   74   75 1    
   146   74  195 1    
   147   75   76 1    
   148   75   77 1    
   149   75  196 1    
   150   76  197 1    
   151   76  198 1    
   152   76  199 1    
   153   77   78 2    
   154   77   79 am   BACKBONE|DICT|INTERRES
   155   79   80 1    
   156   79  200 1    
   157   80   81 1    
   158   80   82 1    
   159   80  201 1    
   160   81  202 1    
   161   81  203 1    
   162   81  204 1    
   163   82   83 2    
   164   82   84 am   BACKBONE|DICT|INTERRES
   165   84   85 1    
   166   84  205 1    
   167   85   86 1    
   168   85   87 1    
   169   85  206 1    
   170   86  207 1    
   171   86  208 1    
   172   86  209 1    
   173   87   88 2    
   174   87   89 am   BACKBONE|DICT|INTERRES
   175   89   90 1    
   176   89  210 1    
   177   90   91 1    
   178   90   92 1    
   179   90  211 1    
   180   91  212 1    
   181   91  213 1    
   182   91  214 1    
   183   92   93 2    
   184   92   94 am   BACKBONE|DICT|INTERRES
   185   94   95 1    
   186   94  215 1    
   187   95   96 1    
   188   95   97 1    
   189   95  216 1    
   190   96  217 1    
   191   96  218 1    
   192   96  219 1    
   193   97   98 2    
   194   97   99 am   BACKBONE|DICT|INTERRES
   195   99  100 1    
   196   99  220 1    
   197  100  101 1    
   198  100  102 1    
   199  100  221 1    
   200  101  222 1    
   201  101  223 1    
   202  101  224 1    
   203  102  103 2    
   204  102  104 am   BACKBONE|DICT|INTERRES
   205  104  105 1    
   206  104  225 1    
   207  105  106 1    
   208  105  107 1    
   209  105  226 1    
   210  106  227 1    
   211  106  228 1    
   212  106  229 1    
   213  107  108 2    
   214  107  109 am   BACKBONE|DICT|INTERRES
   215  109  110 1    
   216  109  230 1    
   217  110  111 1    
   218  110  112 1    
   219  110  231 1    
   220  111  232 1    
   221  111  233 1    
   222  111  234 1    
   223  112  113 2    
   224  112  114 am   BACKBONE|DICT|INTERRES
   225  114  115 1    
   226  114  235 1    
   227  115  116 1    
   228  115  117 1    
   229  115  236 1    
   230  116  237 1    
   231  116  238 1    
   232  116  239 1    
   233  117  118 2    
   234  117  119 am   BACKBONE|DICT|INTERRES
   235  119  120 1    
   236  119  240 1    
   237  120  121 1    
   238  120  124 1    
   239  120  241 1    
   240  121  122 am   BACKBONE|DICT|INTERRES
   241  121  123 2    
   242  122  242 1    
   243  122  243 1    
   244  124  125 1    
   245  124  244 1    
   246  124  245 1    
   247  125  126 1    
   248  126  246 1    
   249  126  247 1    
@<TRIPOS>SUBSTRUCTURE
     1 UNK         1 GROUP             0       ****    0 ROOT    
