@<TRIPOS>MOLECULE
3R540
247   249    1
SMALL
USER_CHARGES


@<TRIPOS>ATOM
      1 CA         -2.8436  -18.3512  -43.0591 C.3       0 UNK        -0.1800 
      2 C          -2.1925  -17.3548  -44.0089 C.2       0 UNK         0.5000 
      3 O          -1.1886  -17.6849  -44.6358 O.2       0 UNK        -0.5000 
      4 N          -2.7894  -16.1646  -44.1409 N.am      1 UNK        -0.5000 
      5 CA         -2.2873  -15.0020  -44.8837 C.3       1 UNK         0.1400 
      6 C6         -1.8247  -15.2967  -46.3409 C.3       23 UNK        -0.0398 
      7 S7         -2.2253  -13.9100  -47.4581 S.3       23 UNK        -0.2404 
      8 C8         -0.7078  -13.7630  -48.4490 C.3       23 UNK        -0.0205 
      9 C9         -0.5454  -14.9225  -49.4227 C.ar      23 UNK        -0.0193 
     10 C10        -1.3621  -15.0179  -50.5548 C.ar      23 UNK        -0.1150 
     11 C11        -1.1904  -16.0639  -51.4674 C.ar      23 UNK        -0.0193 
     12 C12        -0.1900  -17.0141  -51.2414 C.ar      23 UNK        -0.1150 
     13 C13         0.6204  -16.9401  -50.1070 C.ar      23 UNK        -0.0193 
     14 C14         0.4410  -15.8875  -49.2057 C.ar      23 UNK        -0.1150 
     15 C15         1.6982  -17.9881  -49.8742 C.3       23 UNK        -0.0205 
     16 S16         0.9951  -19.5944  -49.3848 S.3       23 UNK        -0.2404 
     17 C17         0.4893  -19.2645  -47.6659 C.3       23 UNK        -0.0398 
     18 CA         -0.4330  -20.3649  -47.0975 C.3       11 UNK         0.1400 
     19 N          -0.2884  -20.4834  -45.6438 N.am      11 UNK        -0.5000 
     20 C          -0.8487  -21.4375  -44.8902 C.2       10 UNK         0.5000 
     21 O          -1.6483  -22.2655  -45.3291 O.2       10 UNK        -0.5000 
     22 CA         -0.4140  -21.4689  -43.4124 C.3       10 UNK         0.1400 
     23 CB         -1.0222  -22.6425  -42.6189 C.3       10 UNK        -0.1800 
     24 N           1.0452  -21.4408  -43.2850 N.am      10 UNK        -0.5000 
     25 C           1.9358  -22.3316  -43.7487 C.2       9 UNK         0.5000 
     26 O           1.6331  -23.3991  -44.2822 O.2       9 UNK        -0.5000 
     27 CA          3.4257  -21.9576  -43.6131 C.3       9 UNK         0.1400 
     28 CB          3.9998  -21.5554  -44.9817 C.3       9 UNK        -0.1800 
     29 N           3.6389  -20.8537  -42.6747 N.am      9 UNK        -0.5000 
     30 C           3.8434  -20.9953  -41.3574 C.2       8 UNK         0.5000 
     31 O           3.9602  -22.0847  -40.7956 O.2       8 UNK        -0.5000 
     32 CA          3.9031  -19.6997  -40.5223 C.3       8 UNK         0.1400 
     33 CB          5.3500  -19.1966  -40.4115 C.3       8 UNK        -0.1800 
     34 N           3.0574  -18.6365  -41.0729 N.am      8 UNK        -0.5000 
     35 C           1.7156  -18.6709  -41.0722 C.2       7 UNK         0.5000 
     36 O           1.0618  -19.5576  -40.5240 O.2       7 UNK        -0.5000 
     37 CA          0.9645  -17.5793  -41.8588 C.3       7 UNK         0.1400 
     38 CB          0.4056  -16.5041  -40.9190 C.3       7 UNK        -0.1800 
     39 N           1.7575  -16.9496  -42.9151 N.am      7 UNK        -0.5000 
     40 C           2.2335  -17.5904  -43.9916 C.2       6 UNK         0.5000 
     41 O           1.9640  -18.7636  -44.2545 O.2       6 UNK        -0.5000 
     42 CA          3.2172  -16.8279  -44.9013 C.3       6 UNK         0.1400 
     43 CB          2.4893  -16.3121  -46.1460 C.3       6 UNK        -0.1800 
     44 N           3.8938  -15.6864  -44.2872 N.am      6 UNK        -0.5000 
     45 C           4.6027  -15.6439  -43.1511 C.2       5 UNK         0.5000 
     46 O           4.7967  -16.6234  -42.4311 O.2       5 UNK        -0.5000 
     47 CA          5.1658  -14.2632  -42.7414 C.3       5 UNK         0.1400 
     48 CB          6.7001  -14.2624  -42.8229 C.3       5 UNK        -0.1800 
     49 N           4.6470  -13.1493  -43.5501 N.am      5 UNK        -0.5000 
     50 C           3.3766  -12.7219  -43.5396 C.2       4 UNK         0.5000 
     51 O           2.5209  -13.1746  -42.7746 O.2       4 UNK        -0.5000 
     52 CA          3.0018  -11.6670  -44.5972 C.3       4 UNK         0.1400 
     53 CB          3.2036  -12.2096  -46.0242 C.3       4 UNK        -0.1800 
     54 N           1.5968  -11.3163  -44.4405 N.am      4 UNK        -0.5000 
     55 C           1.0919  -10.0811  -44.3398 C.2       3 UNK         0.5000 
     56 O           1.7557   -9.0543  -44.4884 O.2       3 UNK        -0.5000 
     57 CA         -0.4116   -9.9715  -43.9995 C.3       3 UNK         0.1400 
     58 CB         -1.2294   -9.6822  -45.2678 C.3       3 UNK        -0.1800 
     59 N          -0.9382  -11.1836  -43.3679 N.am      3 UNK        -0.5000 
     60 C          -0.5757  -11.6408  -42.1616 C.2       2 UNK         0.5000 
     61 O           0.0783  -10.9745  -41.3580 O.2       2 UNK        -0.5000 
     62 CA         -0.9712  -13.0887  -41.7994 C.3       2 UNK         0.1400 
     63 CB         -1.7725  -13.1347  -40.4880 C.3       2 UNK        -0.1800 
     64 N          -1.7243  -13.8146  -42.8310 N.am      2 UNK        -0.5000 
     65 C          -1.2677  -14.2214  -44.0261 C.2       1 UNK         0.5000 
     66 O          -0.1288  -13.9922  -44.4351 O.2       1 UNK        -0.5000 
     67 C          -1.8965  -20.2101  -47.5711 C.2       11 UNK         0.5000 
     68 O          -2.2672  -20.8072  -48.5808 O.2       11 UNK        -0.5000 
     69 N          -2.7279  -19.4852  -46.8064 N.am      12 UNK        -0.5000 
     70 CA         -4.1656  -19.3558  -47.0834 C.3       12 UNK         0.1400 
     71 CB         -4.7822  -18.2376  -46.2313 C.3       12 UNK        -0.1800 
     72 C          -4.9578  -20.6640  -46.8821 C.2       12 UNK         0.5000 
     73 O          -5.9931  -20.8389  -47.5245 O.2       12 UNK        -0.5000 
     74 N          -4.4686  -21.5601  -46.0120 N.am      13 UNK        -0.5000 
     75 CA         -5.0384  -22.8941  -45.8184 C.3       13 UNK         0.1400 
     76 CB         -4.6652  -23.4363  -44.4300 C.3       13 UNK        -0.1800 
     77 C          -4.5799  -23.8490  -46.9326 C.2       13 UNK         0.5000 
     78 O          -5.3914  -24.6245  -47.4359 O.2       13 UNK        -0.5000 
     79 N          -3.3055  -23.7402  -47.3391 N.am      14 UNK        -0.5000 
     80 CA         -2.7285  -24.4661  -48.4749 C.3       14 UNK         0.1400 
     81 CB         -1.2166  -24.2039  -48.5417 C.3       14 UNK        -0.1800 
     82 C          -3.4060  -24.1132  -49.8141 C.2       14 UNK         0.5000 
     83 O          -3.5977  -24.9950  -50.6509 O.2       14 UNK        -0.5000 
     84 N          -3.8193  -22.8466  -49.9640 N.am      15 UNK        -0.5000 
     85 CA         -4.5591  -22.3142  -51.1106 C.3       15 UNK         0.1400 
     86 CB         -4.6665  -20.7874  -50.9847 C.3       15 UNK        -0.1800 
     87 C          -5.9460  -22.9479  -51.3506 C.2       15 UNK         0.5000 
     88 O          -6.5170  -22.7454  -52.4225 O.2       15 UNK        -0.5000 
     89 N          -6.4609  -23.7341  -50.3930 N.am      16 UNK        -0.5000 
     90 CA         -7.6572  -24.5605  -50.5699 C.3       16 UNK         0.1400 
     91 CB         -8.0803  -25.1480  -49.2163 C.3       16 UNK        -0.1800 
     92 C          -7.4639  -25.6851  -51.6093 C.2       16 UNK         0.5000 
     93 O          -8.4459  -26.1246  -52.2097 O.2       16 UNK        -0.5000 
     94 N          -6.2121  -26.1104  -51.8399 N.am      17 UNK        -0.5000 
     95 CA         -5.8245  -27.0979  -52.8477 C.3       17 UNK         0.1400 
     96 CB         -4.5000  -27.7546  -52.4186 C.3       17 UNK        -0.1800 
     97 C          -5.7520  -26.4727  -54.2580 C.2       17 UNK         0.5000 
     98 O          -4.6892  -26.4729  -54.8813 O.2       17 UNK        -0.5000 
     99 N          -6.8945  -25.9490  -54.7271 N.am      18 UNK        -0.5000 
    100 CA        -7.1274  -25.3348  -56.0395 C.3       18 UNK         0.1400 
    101 CB        -7.0697  -26.4042  -57.1503 C.3       18 UNK        -0.1800 
    102 C         -6.1957  -24.1350  -56.3090 C.2       18 UNK         0.5000 
    103 O         -5.4415  -24.1367  -57.2836 O.2       18 UNK        -0.5000 
    104 N         -6.2386  -23.1490  -55.4023 N.am      19 UNK        -0.5000 
    105 CA        -5.4556  -21.9058  -55.3513 C.3       19 UNK         0.1400 
    106 CB        -5.5784  -21.0824  -56.6477 C.3       19 UNK        -0.1800 
    107 C         -3.9839  -22.1081  -54.9476 C.2       19 UNK         0.5000 
    108 O         -3.4548  -21.2766  -54.2106 O.2       19 UNK        -0.5000 
    109 N         -3.3595  -23.2035  -55.4031 N.am      20 UNK        -0.5000 
    110 CA        -1.9869  -23.6351  -55.1249 C.3       20 UNK         0.1400 
    111 CB        -1.8941  -24.2117  -53.6941 C.3       20 UNK        -0.1800 
    112 C         -0.9681  -22.5131  -55.4187 C.2       20 UNK         0.5000 
    113 O         -0.8104  -22.1314  -56.5802 O.2       20 UNK        -0.5000 
    114 N         -0.3407  -21.9693  -54.3667 N.am      21 UNK        -0.5000 
    115 CA         0.5837  -20.8339  -54.4072 C.3       21 UNK         0.1400 
    116 CB         1.1315  -20.5972  -52.9918 C.3       21 UNK        -0.1800 
    117 C         -0.0328  -19.5331  -54.9622 C.2       21 UNK         0.5000 
    118 O          0.7042  -18.7011  -55.4930 O.2       21 UNK        -0.5000 
    119 N         -1.3585  -19.3854  -54.8472 N.am      22 UNK        -0.5000 
    120 CA        -2.1315  -18.2700  -55.4127 C.3       22 UNK         0.1400 
    121 C         -2.5454  -18.4870  -56.8986 C.2       22 UNK         0.5000 
    122 N         -2.2343  -19.6139  -57.5309 N.am      22 UNK        -0.7600 
    123 O         -3.1551  -17.6062  -57.4986 O.2       22 UNK        -0.5000 
    124 C124       -3.3596  -17.8918  -54.5362 C.3       23 UNK        -0.0398 
    125 S125       -2.9920  -17.7251  -52.7544 S.3       23 UNK        -0.2404 
    126 C126       -2.0568  -16.1623  -52.7141 C.3       23 UNK        -0.0205 
    127 H127       -2.9821  -19.3120  -43.5542 H         1 UNK         0.0600 
    128 H128       -2.2150  -18.5057  -42.1829 H         1 UNK         0.0600 
    129 H129       -3.8192  -18.0051  -42.7171 H         1 UNK         0.0600 
    130 H130       -3.6379  -15.9974  -43.6184 H         1 UNK         0.3000 
    131 H131       -3.1615  -14.3521  -44.9515 H         1 UNK         0.0600 
    132 H132       -0.7633  -15.5448  -46.3861 H         1 UNK         0.0800 
    133 H133       -2.3384  -16.1703  -46.7392 H         1 UNK         0.0800 
    134 H134        0.1537  -13.6815  -47.7836 H         1 UNK         0.0800 
    135 H135       -0.7459  -12.8294  -49.0120 H         1 UNK         0.0800 
    136 H136       -2.1259  -14.2721  -50.7252 H         1 UNK         0.1150 
    137 H137       -0.0510  -17.8220  -51.9464 H         1 UNK         0.1150 
    138 H138        1.0761  -15.8089  -48.3389 H         1 UNK         0.1150 
    139 H139        2.2672  -18.1223  -50.7953 H         1 UNK         0.0800 
    140 H140        2.4137  -17.6561  -49.1206 H         1 UNK         0.0800 
    141 H141        0.0291  -18.2787  -47.5786 H         1 UNK         0.0800 
    142 H142        1.4111  -19.2316  -47.0848 H         1 UNK         0.0800 
    143 H143       -0.0829  -21.3221  -47.4892 H         1 UNK         0.0600 
    144 H144        0.3398  -19.8230  -45.1976 H         1 UNK         0.3000 
    145 H145       -0.7764  -20.5444  -42.9622 H         1 UNK         0.0600 
    146 H146       -0.6841  -22.6331  -41.5827 H         1 UNK         0.0600 
    147 H147       -2.1105  -22.5783  -42.6056 H         1 UNK         0.0600 
    148 H148       -0.7573  -23.6082  -43.0504 H         1 UNK         0.0600 
    149 H149        1.4250  -20.5841  -42.9090 H         1 UNK         0.3000 
    150 H150        3.9611  -22.8440  -43.2667 H         1 UNK         0.0600 
    151 H151        3.9024  -22.3702  -45.7003 H         1 UNK         0.0600 
    152 H152        5.0599  -21.3125  -44.9090 H         1 UNK         0.0600 
    153 H153        3.4845  -20.6896  -45.3990 H         1 UNK         0.0600 
    154 H154        3.5323  -19.9221  -43.0525 H         1 UNK         0.3000 
    155 H155        3.5467  -19.9335  -39.5169 H         1 UNK         0.0600 
    156 H156        5.7733  -18.9688  -41.3905 H         1 UNK         0.0600 
    157 H157        5.9890  -19.9473  -39.9449 H         1 UNK         0.0600 
    158 H158        5.4092  -18.2942  -39.8028 H         1 UNK         0.0600 
    159 H159        3.5379  -17.8749  -41.5441 H         1 UNK         0.3000 
    160 H160        0.1225  -18.0800  -42.3352 H         1 UNK         0.0600 
    161 H161       -0.3313  -15.8947  -41.4379 H         1 UNK         0.0600 
    162 H162        1.1897  -15.8487  -40.5384 H         1 UNK         0.0600 
    163 H163       -0.0999  -16.9499  -40.0612 H         1 UNK         0.0600 
    164 H164        2.0113  -15.9804  -42.7842 H         1 UNK         0.3000 
    165 H165        3.9856  -17.5377  -45.2129 H         1 UNK         0.0600 
    166 H166        3.1830  -15.8586  -46.8544 H         1 UNK         0.0600 
    167 H167        1.9851  -17.1229  -46.6633 H         1 UNK         0.0600 
    168 H168        1.7334  -15.5689  -45.8879 H         1 UNK         0.0600 
    169 H169        3.7980  -14.8141  -44.7831 H         1 UNK         0.3000 
    170 H170        4.8775  -14.0937  -41.7019 H         1 UNK         0.0600 
    171 H171        7.1258  -15.0539  -42.2045 H         1 UNK         0.0600 
    172 H172        7.0487  -14.4207  -43.8442 H         1 UNK         0.0600 
    173 H173        7.1139  -13.3184  -42.4680 H         1 UNK         0.0600 
    174 H174        5.2990  -12.7293  -44.1973 H         1 UNK         0.3000 
    175 H175        3.6395  -10.7945  -44.4416 H         1 UNK         0.0600 
    176 H176        2.9113  -11.4680  -46.7680 H         1 UNK         0.0600 
    177 H177        4.2471  -12.4601  -46.2167 H         1 UNK         0.0600 
    178 H178        2.6077  -13.1062  -46.2009 H         1 UNK         0.0600 
    179 H179        0.9896  -12.1071  -44.2511 H         1 UNK         0.3000 
    180 H180       -0.5372   -9.1379  -43.3056 H         1 UNK         0.0600 
    181 H181       -1.1489  -10.4940  -45.9922 H         1 UNK         0.0600 
    182 H182       -0.8831   -8.7705  -45.7564 H         1 UNK         0.0600 
    183 H183       -2.2851   -9.5433  -45.0340 H         1 UNK         0.0600 
    184 H184       -1.4787  -11.7974  -43.9582 H         1 UNK         0.3000 
    185 H185       -0.0307  -13.6186  -41.6406 H         1 UNK         0.0600 
    186 H186       -2.7290  -12.6197  -40.5845 H         1 UNK         0.0600 
    187 H187       -1.9717  -14.1621  -40.1827 H         1 UNK         0.0600 
    188 H188       -1.2244  -12.6596  -39.6734 H         1 UNK         0.0600 
    189 H189       -2.6790  -14.0345  -42.5888 H         1 UNK         0.3000 
    190 H190       -2.3499  -19.0084  -45.9977 H         1 UNK         0.3000 
    191 H191       -4.2749  -19.0697  -48.1319 H         1 UNK         0.0600 
    192 H192       -4.7397  -18.4688  -45.1680 H         1 UNK         0.0600 
    193 H193       -5.8334  -18.0952  -46.4855 H         1 UNK         0.0600 
    194 H194       -4.2860  -17.2841  -46.3997 H         1 UNK         0.0600 
    195 H195       -3.5739  -21.3863  -45.5728 H         1 UNK         0.3000 
    196 H196       -6.1275  -22.8230  -45.8623 H         1 UNK         0.0600 
    197 H197       -5.1829  -24.3758  -44.2331 H         1 UNK         0.0600 
    198 H198       -4.9483  -22.7378  -43.6425 H         1 UNK         0.0600 
    199 H199       -3.5976  -23.6328  -44.3383 H         1 UNK         0.0600 
    200 H200       -2.6914  -23.1078  -46.8364 H         1 UNK         0.3000 
    201 H201       -2.8817  -25.5324  -48.2968 H         1 UNK         0.0600 
    202 H202       -0.7291  -24.4487  -47.5977 H         1 UNK         0.0600 
    203 H203       -0.9968  -23.1622  -48.7730 H         1 UNK         0.0600 
    204 H204       -0.7521  -24.8137  -49.3175 H         1 UNK         0.0600 
    205 H205       -3.5386  -22.1704  -49.2606 H         1 UNK         0.3000 
    206 H206       -3.9657  -22.5365  -51.9951 H         1 UNK         0.0600 
    207 H207       -3.6810  -20.3274  -50.9090 H         1 UNK         0.0600 
    208 H208       -5.1521  -20.3559  -51.8611 H         1 UNK         0.0600 
    209 H209       -5.2454  -20.4950  -50.1093 H         1 UNK         0.0600 
    210 H210       -5.9450  -23.8611  -49.5315 H         1 UNK         0.3000 
    211 H211       -8.4619  -23.9146  -50.9269 H         1 UNK         0.0600 
    212 H212       -7.3361  -25.8463  -48.8319 H         1 UNK         0.0600 
    213 H213       -9.0221  -25.6908  -49.3050 H         1 UNK         0.0600 
    214 H214       -8.2241  -24.3652  -48.4712 H         1 UNK         0.0600 
    215 H215       -5.4474  -25.6714  -51.3375 H         1 UNK         0.3000 
    216 H216       -6.5818  -27.8839  -52.8811 H         1 UNK         0.0600 
    217 H217       -4.2151  -28.5470  -53.1116 H         1 UNK         0.0600 
    218 H218       -4.5841  -28.2036  -51.4288 H         1 UNK         0.0600 
    219 H219       -3.6819  -27.0345  -52.3906 H         1 UNK         0.0600 
    220 H220       -7.6951  -25.9772  -54.1038 H         1 UNK         0.3000 
    221 H221       -8.1433  -24.9374  -56.0207 H         1 UNK         0.0600 
    222 H222       -6.0760  -26.8442  -57.2408 H         1 UNK         0.0600 
    223 H223       -7.7764  -27.2112  -56.9570 H         1 UNK         0.0600 
    224 H224       -7.3260  -25.9741  -58.1192 H         1 UNK         0.0600 
    225 H225       -6.8190  -23.2902  -54.5840 H         1 UNK         0.3000 
    226 H226       -5.9107  -21.3105  -54.5586 H         1 UNK         0.0600 
    227 H227       -5.0597  -21.5516  -57.4839 H         1 UNK         0.0600 
    228 H228       -5.1433  -20.0916  -56.5165 H         1 UNK         0.0600 
    229 H229       -6.6214  -20.9430  -56.9314 H         1 UNK         0.0600 
    230 H230       -3.8841  -23.7911  -56.0425 H         1 UNK         0.3000 
    231 H231       -1.7689  -24.4438  -55.8237 H         1 UNK         0.0600 
    232 H232       -2.6116  -25.0203  -53.5537 H         1 UNK         0.0600 
    233 H233       -2.0955  -23.4631  -52.9288 H         1 UNK         0.0600 
    234 H234       -0.9040  -24.6263  -53.5012 H         1 UNK         0.0600 
    235 H235       -0.5654  -22.3253  -53.4495 H         1 UNK         0.3000 
    236 H236        1.4154  -21.1066  -55.0596 H         1 UNK         0.0600 
    237 H237        1.8380  -19.7663  -52.9766 H         1 UNK         0.0600 
    238 H238        0.3307  -20.3588  -52.2905 H         1 UNK         0.0600 
    239 H239        1.6565  -21.4756  -52.6162 H         1 UNK         0.0600 
    240 H240       -1.9118  -20.1241  -54.4217 H         1 UNK         0.3000 
    241 H241       -1.4811  -17.3953  -55.4371 H         1 UNK         0.0600 
    242 H242       -2.5036  -19.7256  -58.4951 H         1 UNK         0.3800 
    243 H243       -1.7170  -20.3535  -57.0696 H         1 UNK         0.3800 
    244 H244       -3.8052  -16.9587  -54.8849 H         1 UNK         0.0800 
    245 H245       -4.1363  -18.6516  -54.6337 H         1 UNK         0.0800 
    246 H246       -2.7561  -15.3272  -52.7754 H         1 UNK         0.0800 
    247 H247       -1.4049  -16.0873  -53.5837 H         1 UNK         0.0800 
@<TRIPOS>BOND
     1    1    2 1    
     2    1  127 1    
     3    1  128 1    
     4    1  129 1    
     5    2    3 2    
     6    2    4 am   BACKBONE|DICT|INTERRES
     7    4    5 1    
     8    4  130 1    
     9    5    6 1    
    10    5   65 1    
    11    5  131 1    
    12    6    7 1    
    13    6  132 1    
    14    6  133 1    
    15    7    8 1    
    16    8    9 1    
    17    8  134 1    
    18    8  135 1    
    19    9   10 ar   
    20    9   14 ar   
    21   10   11 ar   
    22   10  136 1    
    23   11   12 ar   
    24   11  126 1    
    25   12   13 ar   
    26   12  137 1    
    27   13   14 ar   
    28   13   15 1    
    29   14  138 1    
    30   15   16 1    
    31   15  139 1    
    32   15  140 1    
    33   16   17 1    
    34   17   18 1    
    35   17  141 1    
    36   17  142 1    
    37   18   19 1    
    38   18   67 1    
    39   18  143 1    
    40   19   20 am   BACKBONE|DICT|INTERRES
    41   19  144 1    
    42   20   21 2    
    43   20   22 1    
    44   22   23 1    
    45   22   24 1    
    46   22  145 1    
    47   23  146 1    
    48   23  147 1    
    49   23  148 1    
    50   24   25 am   BACKBONE|DICT|INTERRES
    51   24  149 1    
    52   25   26 2    
    53   25   27 1    
    54   27   28 1    
    55   27   29 1    
    56   27  150 1    
    57   28  151 1    
    58   28  152 1    
    59   28  153 1    
    60   29   30 am   BACKBONE|DICT|INTERRES
    61   29  154 1    
    62   30   31 2    
    63   30   32 1    
    64   32   33 1    
    65   32   34 1    
    66   32  155 1    
    67   33  156 1    
    68   33  157 1    
    69   33  158 1    
    70   34   35 am   BACKBONE|DICT|INTERRES
    71   34  159 1    
    72   35   36 2    
    73   35   37 1    
    74   37   38 1    
    75   37   39 1    
    76   37  160 1    
    77   38  161 1    
    78   38  162 1    
    79   38  163 1    
    80   39   40 am   BACKBONE|DICT|INTERRES
    81   39  164 1    
    82   40   41 2    
    83   40   42 1    
    84   42   43 1    
    85   42   44 1    
    86   42  165 1    
    87   43  166 1    
    88   43  167 1    
    89   43  168 1    
    90   44   45 am   BACKBONE|DICT|INTERRES
    91   44  169 1    
    92   45   46 2    
    93   45   47 1    
    94   47   48 1    
    95   47   49 1    
    96   47  170 1    
    97   48  171 1    
    98   48  172 1    
    99   48  173 1    
   100   49   50 am   BACKBONE|DICT|INTERRES
   101   49  174 1    
   102   50   51 2    
   103   50   52 1    
   104   52   53 1    
   105   52   54 1    
   106   52  175 1    
   107   53  176 1    
   108   53  177 1    
   109   53  178 1    
   110   54   55 am   BACKBONE|DICT|INTERRES
   111   54  179 1    
   112   55   56 2    
   113   55   57 1    
   114   57   58 1    
   115   57   59 1    
   116   57  180 1    
   117   58  181 1    
   118   58  182 1    
   119   58  183 1    
   120   59   60 am   BACKBONE|DICT|INTERRES
   121   59  184 1    
   122   60   61 2    
   123   60   62 1    
   124   62   63 1    
   125   62   64 1    
   126   62  185 1    
   127   63  186 1    
   128   63  187 1    
   129   63  188 1    
   130   64   65 am   BACKBONE|DICT|INTERRES
   131   64  189 1    
   132   65   66 2    
   133   67   68 2    
   134   67   69 am   BACKBONE|DICT|INTERRES
   135   69   70 1    
   136   69  190 1    
   137   70   71 1    
   138   70   72 1    
   139   70  191 1    
   140   71  192 1    
   141   71  193 1    
   142   71  194 1    
   143   72   73 2    
   144   72   74 am   BACKBONE|DICT|INTERRES
   145   74   75 1    
   146   74  195 1    
   147   75   76 1    
   148   75   77 1    
   149   75  196 1    
   150   76  197 1    
   151   76  198 1    
   152   76  199 1    
   153   77   78 2    
   154   77   79 am   BACKBONE|DICT|INTERRES
   155   79   80 1    
   156   79  200 1    
   157   80   81 1    
   158   80   82 1    
   159   80  201 1    
   160   81  202 1    
   161   81  203 1    
   162   81  204 1    
   163   82   83 2    
   164   82   84 am   BACKBONE|DICT|INTERRES
   165   84   85 1    
   166   84  205 1    
   167   85   86 1    
   168   85   87 1    
   169   85  206 1    
   170   86  207 1    
   171   86  208 1    
   172   86  209 1    
   173   87   88 2    
   174   87   89 am   BACKBONE|DICT|INTERRES
   175   89   90 1    
   176   89  210 1    
   177   90   91 1    
   178   90   92 1    
   179   90  211 1    
   180   91  212 1    
   181   91  213 1    
   182   91  214 1    
   183   92   93 2    
   184   92   94 am   BACKBONE|DICT|INTERRES
   185   94   95 1    
   186   94  215 1    
   187   95   96 1    
   188   95   97 1    
   189   95  216 1    
   190   96  217 1    
   191   96  218 1    
   192   96  219 1    
   193   97   98 2    
   194   97   99 am   BACKBONE|DICT|INTERRES
   195   99  100 1    
   196   99  220 1    
   197  100  101 1    
   198  100  102 1    
   199  100  221 1    
   200  101  222 1    
   201  101  223 1    
   202  101  224 1    
   203  102  103 2    
   204  102  104 am   BACKBONE|DICT|INTERRES
   205  104  105 1    
   206  104  225 1    
   207  105  106 1    
   208  105  107 1    
   209  105  226 1    
   210  106  227 1    
   211  106  228 1    
   212  106  229 1    
   213  107  108 2    
   214  107  109 am   BACKBONE|DICT|INTERRES
   215  109  110 1    
   216  109  230 1    
   217  110  111 1    
   218  110  112 1    
   219  110  231 1    
   220  111  232 1    
   221  111  233 1    
   222  111  234 1    
   223  112  113 2    
   224  112  114 am   BACKBONE|DICT|INTERRES
   225  114  115 1    
   226  114  235 1    
   227  115  116 1    
   228  115  117 1    
   229  115  236 1    
   230  116  237 1    
   231  116  238 1    
   232  116  239 1    
   233  117  118 2    
   234  117  119 am   BACKBONE|DICT|INTERRES
   235  119  120 1    
   236  119  240 1    
   237  120  121 1    
   238  120  124 1    
   239  120  241 1    
   240  121  122 am   BACKBONE|DICT|INTERRES
   241  121  123 2    
   242  122  242 1    
   243  122  243 1    
   244  124  125 1    
   245  124  244 1    
   246  124  245 1    
   247  125  126 1    
   248  126  246 1    
   249  126  247 1    
@<TRIPOS>SUBSTRUCTURE
     1 UNK         1 GROUP             0       ****    0 ROOT    
