@<TRIPOS>MOLECULE
3R540
247   249    1
SMALL
USER_CHARGES


@<TRIPOS>ATOM
      1 CA          0.0670  -16.3346  -41.6994 C.3       0 UNK        -0.1800 
      2 C          -1.2606  -15.7259  -42.1231 C.2       0 UNK         0.5000 
      3 O          -1.6316  -14.6532  -41.6473 O.2       0 UNK        -0.5000 
      4 N          -1.9723  -16.3957  -43.0394 N.am      1 UNK        -0.5000 
      5 CA         -3.2511  -15.9453  -43.6139 C.3       1 UNK         0.1400 
      6 C6         -3.9670  -17.0744  -44.3978 C.3       23 UNK        -0.0398 
      7 S7         -2.9200  -17.8475  -45.6768 S.3       23 UNK        -0.2404 
      8 C8         -3.6689  -17.2178  -47.2114 C.3       23 UNK        -0.0205 
      9 C9         -2.7667  -17.4943  -48.4043 C.ar      23 UNK        -0.0193 
     10 C10        -2.1978  -16.4403  -49.1236 C.ar      23 UNK        -0.1150 
     11 C11        -1.3375  -16.6951  -50.1958 C.ar      23 UNK        -0.0193 
     12 C12        -1.0271  -18.0162  -50.5327 C.ar      23 UNK        -0.1150 
     13 C13        -1.5943  -19.0780  -49.8237 C.ar      23 UNK        -0.0193 
     14 C14        -2.4855  -18.8094  -48.7811 C.ar      23 UNK        -0.1150 
     15 C15        -1.2571  -20.5149  -50.1888 C.3       23 UNK        -0.0205 
     16 S16         0.2825  -21.1103  -49.4163 S.3       23 UNK        -0.2404 
     17 C17        -0.0831  -21.0340  -47.6303 C.3       23 UNK        -0.0398 
     18 CA         -0.6679  -22.3314  -47.0190 C.3       11 UNK         0.1400 
     19 N          -0.4491  -22.3820  -45.5685 N.am      11 UNK        -0.5000 
     20 C          -0.5731  -23.4887  -44.8200 C.2       10 UNK         0.5000 
     21 O          -0.8372  -24.5906  -45.3014 O.2       10 UNK        -0.5000 
     22 CA         -0.4532  -23.3550  -43.2842 C.3       10 UNK         0.1400 
     23 CB          0.4350  -24.4565  -42.6698 C.3       10 UNK        -0.1800 
     24 N          -0.0705  -22.0189  -42.8079 N.am      10 UNK        -0.5000 
     25 C           1.1153  -21.4073  -42.9339 C.2       9 UNK         0.5000 
     26 O           2.1141  -21.9164  -43.4453 O.2       9 UNK        -0.5000 
     27 CA          1.1695  -19.9467  -42.4407 C.3       9 UNK         0.1400 
     28 CB          2.1047  -19.8095  -41.2304 C.3       9 UNK        -0.1800 
     29 N           1.5962  -19.0278  -43.4991 N.am      9 UNK        -0.5000 
     30 C           0.9917  -18.9081  -44.6916 C.2       8 UNK         0.5000 
     31 O          -0.0610  -19.4888  -44.9571 O.2       8 UNK        -0.5000 
     32 CA          1.6407  -18.0093  -45.7687 C.3       8 UNK         0.1400 
     33 CB          0.6987  -16.8666  -46.1709 C.3       8 UNK        -0.1800 
     34 N           2.9276  -17.4400  -45.3695 N.am      8 UNK        -0.5000 
     35 C           4.0828  -18.1192  -45.3017 C.2       7 UNK         0.5000 
     36 O           4.2015  -19.2911  -45.6588 O.2       7 UNK        -0.5000 
     37 CA          5.3078  -17.3851  -44.7121 C.3       7 UNK         0.1400 
     38 CB          6.2770  -16.9743  -45.8312 C.3       7 UNK        -0.1800 
     39 N           4.9726  -16.1967  -43.9231 N.am      7 UNK        -0.5000 
     40 C           4.2186  -16.1751  -42.8147 C.2       6 UNK         0.5000 
     41 O           3.7790  -17.1896  -42.2749 O.2       6 UNK        -0.5000 
     42 CA          3.8441  -14.7910  -42.2472 C.3       6 UNK         0.1400 
     43 CB          4.6891  -14.4699  -41.0060 C.3       6 UNK        -0.1800 
     44 N           3.9674  -13.6859  -43.2040 N.am      6 UNK        -0.5000 
     45 C           3.2933  -13.5590  -44.3552 C.2       5 UNK         0.5000 
     46 O           2.5054  -14.4055  -44.7812 O.2       5 UNK        -0.5000 
     47 CA          3.5446  -12.2518  -45.1312 C.3       5 UNK         0.1400 
     48 CB          3.0476  -12.2972  -46.5846 C.3       5 UNK        -0.1800 
     49 N           2.9004  -11.1405  -44.4373 N.am      5 UNK        -0.5000 
     50 C           3.4247  -10.4929  -43.3882 C.2       4 UNK         0.5000 
     51 O           4.5728  -10.6758  -42.9799 O.2       4 UNK        -0.5000 
     52 CA          2.4991   -9.5167  -42.6384 C.3       4 UNK         0.1400 
     53 CB          2.6462   -8.0943  -43.1989 C.3       4 UNK        -0.1800 
     54 N           1.0873   -9.9056  -42.6800 N.am      4 UNK        -0.5000 
     55 C           0.5745  -11.0311  -42.1618 C.2       3 UNK         0.5000 
     56 O           1.2416  -11.8779  -41.5662 O.2       3 UNK        -0.5000 
     57 CA         -0.9396  -11.2534  -42.3328 C.3       3 UNK         0.1400 
     58 CB         -1.7487   -9.9474  -42.4997 C.3       3 UNK        -0.1800 
     59 N          -1.2454  -12.1922  -43.4141 N.am      3 UNK        -0.5000 
     60 C          -0.9648  -12.0727  -44.7218 C.2       2 UNK         0.5000 
     61 O          -0.3067  -11.1428  -45.1922 O.2       2 UNK        -0.5000 
     62 CA         -1.5222  -13.1640  -45.6663 C.3       2 UNK         0.1400 
     63 CB         -0.5274  -13.5420  -46.7737 C.3       2 UNK        -0.1800 
     64 N          -1.9035  -14.3814  -44.9514 N.am      2 UNK        -0.5000 
     65 C          -3.1189  -14.6570  -44.4598 C.2       1 UNK         0.5000 
     66 O          -4.1001  -13.9302  -44.6172 O.2       1 UNK        -0.5000 
     67 C          -2.1680  -22.5062  -47.3364 C.2       11 UNK         0.5000 
     68 O          -2.5248  -23.2846  -48.2225 O.2       11 UNK        -0.5000 
     69 N          -3.0278  -21.8256  -46.5607 N.am      12 UNK        -0.5000 
     70 CA         -4.4872  -21.9417  -46.6314 C.3       12 UNK         0.1400 
     71 CB         -5.1378  -20.9008  -45.7100 C.3       12 UNK        -0.1800 
     72 C          -4.9915  -23.3547  -46.2899 C.2       12 UNK         0.5000 
     73 O          -5.8949  -23.8537  -46.9613 O.2       12 UNK        -0.5000 
     74 N          -4.3572  -23.9873  -45.2914 N.am      13 UNK        -0.5000 
     75 CA         -4.6453  -25.3480  -44.8269 C.3       13 UNK         0.1400 
     76 CB         -3.8579  -25.6197  -43.5359 C.3       13 UNK        -0.1800 
     77 C          -4.3560  -26.4377  -45.8786 C.2       13 UNK         0.5000 
     78 O          -4.9739  -27.5010  -45.8319 O.2       13 UNK        -0.5000 
     79 N          -3.4686  -26.1393  -46.8367 N.am      14 UNK        -0.5000 
     80 CA         -3.1594  -26.9675  -48.0031 C.3       14 UNK         0.1400 
     81 CB         -1.6870  -26.7361  -48.3888 C.3       14 UNK        -0.1800 
     82 C          -4.1194  -26.6980  -49.1851 C.2       14 UNK         0.5000 
     83 O          -3.7263  -26.8770  -50.3383 O.2       14 UNK        -0.5000 
     84 N          -5.3470  -26.2405  -48.8908 N.am      15 UNK        -0.5000 
     85 CA         -6.4002  -25.8334  -49.8285 C.3       15 UNK         0.1400 
     86 CB         -6.9192  -27.0431  -50.6339 C.3       15 UNK        -0.1800 
     87 C          -5.9442  -24.6627  -50.7203 C.2       15 UNK         0.5000 
     88 O          -6.0904  -24.7163  -51.9423 O.2       15 UNK        -0.5000 
     89 N          -5.3391  -23.6506  -50.0810 N.am      16 UNK        -0.5000 
     90 CA         -4.6612  -22.5041  -50.6983 C.3       16 UNK         0.1400 
     91 CB         -5.6764  -21.5628  -51.3778 C.3       16 UNK        -0.1800 
     92 C          -3.5181  -22.9471  -51.6376 C.2       16 UNK         0.5000 
     93 O          -3.4113  -22.4477  -52.7579 O.2       16 UNK        -0.5000 
     94 N          -2.7150  -23.9105  -51.1606 N.am      17 UNK        -0.5000 
     95 CA         -1.6607  -24.6378  -51.8781 C.3       17 UNK         0.1400 
     96 CB         -0.4234  -23.7432  -52.0801 C.3       17 UNK        -0.1800 
     97 C          -2.1712  -25.2862  -53.1828 C.2       17 UNK         0.5000 
     98 O          -1.5737  -25.1059  -54.2445 O.2       17 UNK        -0.5000 
     99 N          -3.2938  -26.0097  -53.0648 N.am      18 UNK        -0.5000 
    100 CA        -4.0788  -26.6170  -54.1438 C.3       18 UNK         0.1400 
    101 CB        -3.3065  -27.7851  -54.7915 C.3       18 UNK        -0.1800 
    102 C         -4.5778  -25.5701  -55.1641 C.2       18 UNK         0.5000 
    103 O         -4.3882  -25.7357  -56.3709 O.2       18 UNK        -0.5000 
    104 N         -5.2060  -24.5081  -54.6388 N.am      19 UNK        -0.5000 
    105 CA        -5.7678  -23.3550  -55.3480 C.3       19 UNK         0.1400 
    106 CB        -7.0068  -23.7763  -56.1651 C.3       19 UNK        -0.1800 
    107 C         -4.7223  -22.5831  -56.1820 C.2       19 UNK         0.5000 
    108 O         -4.9568  -22.2882  -57.3560 O.2       19 UNK        -0.5000 
    109 N         -3.5813  -22.2646  -55.5564 N.am      20 UNK        -0.5000 
    110 CA        -2.4876  -21.5021  -56.1621 C.3       20 UNK         0.1400 
    111 CB        -1.2157  -21.6750  -55.3192 C.3       20 UNK        -0.1800 
    112 C         -2.8083  -20.0046  -56.3129 C.2       20 UNK         0.5000 
    113 O         -2.2492  -19.3590  -57.2005 O.2       20 UNK        -0.5000 
    114 N         -3.6724  -19.4758  -55.4301 N.am      21 UNK        -0.5000 
    115 CA        -4.1442  -18.0837  -55.3765 C.3       21 UNK         0.1400 
    116 CB        -5.1124  -17.8089  -56.5456 C.3       21 UNK        -0.1800 
    117 C         -2.9954  -17.0519  -55.2921 C.2       21 UNK         0.5000 
    118 O         -3.0450  -16.0082  -55.9456 O.2       21 UNK        -0.5000 
    119 N         -1.9666  -17.3964  -54.5065 N.am      22 UNK        -0.5000 
    120 CA        -0.6944  -16.6685  -54.3425 C.3       22 UNK         0.1400 
    121 C          0.2601  -16.7324  -55.5758 C.2       22 UNK         0.5000 
    122 N         -0.0189  -17.5160  -56.6111 N.am      22 UNK        -0.7600 
    123 O          1.3013  -16.0812  -55.5832 O.2       22 UNK        -0.5000 
    124 C124       -0.8502  -15.2127  -53.8099 C.3       23 UNK        -0.0398 
    125 S125       -1.9042  -15.0616  -52.3270 S.3       23 UNK        -0.2404 
    126 C126       -0.7587  -15.5412  -50.9962 C.3       23 UNK        -0.0205 
    127 H127        0.7461  -16.3987  -42.5494 H         1 UNK         0.0600 
    128 H128       -0.0828  -17.3341  -41.2933 H         1 UNK         0.0600 
    129 H129        0.5435  -15.7253  -40.9314 H         1 UNK         0.0600 
    130 H130       -1.6255  -17.2717  -43.4063 H         1 UNK         0.3000 
    131 H131       -3.8978  -15.6841  -42.7734 H         1 UNK         0.0600 
    132 H132       -4.2606  -17.8610  -43.7017 H         1 UNK         0.0800 
    133 H133       -4.8992  -16.7171  -44.8391 H         1 UNK         0.0800 
    134 H134       -4.6389  -17.6912  -47.3680 H         1 UNK         0.0800 
    135 H135       -3.8524  -16.1468  -47.1122 H         1 UNK         0.0800 
    136 H136       -2.4306  -15.4194  -48.8567 H         1 UNK         0.1150 
    137 H137       -0.3496  -18.2203  -51.3492 H         1 UNK         0.1150 
    138 H138       -2.9356  -19.6231  -48.2322 H         1 UNK         0.1150 
    139 H139       -2.0705  -21.1729  -49.8987 H         1 UNK         0.0800 
    140 H140       -1.1666  -20.6069  -51.2723 H         1 UNK         0.0800 
    141 H141       -0.6936  -20.1645  -47.3934 H         1 UNK         0.0800 
    142 H142        0.8809  -20.8378  -47.1603 H         1 UNK         0.0800 
    143 H143       -0.1385  -23.1797  -47.4589 H         1 UNK         0.0600 
    144 H144       -0.2505  -21.4958  -45.1152 H         1 UNK         0.3000 
    145 H145       -1.4626  -23.5143  -42.9029 H         1 UNK         0.0600 
    146 H146        0.0283  -25.4467  -42.8787 H         1 UNK         0.0600 
    147 H147        1.4488  -24.4342  -43.0697 H         1 UNK         0.0600 
    148 H148        0.4975  -24.3558  -41.5863 H         1 UNK         0.0600 
    149 H149       -0.8240  -21.4918  -42.3882 H         1 UNK         0.3000 
    150 H150        0.1681  -19.6435  -42.1295 H         1 UNK         0.0600 
    151 H151        2.0705  -18.8010  -40.8180 H         1 UNK         0.0600 
    152 H152        3.1398  -20.0270  -41.4968 H         1 UNK         0.0600 
    153 H153        1.8175  -20.4959  -40.4330 H         1 UNK         0.0600 
    154 H154        2.4510  -18.5124  -43.3271 H         1 UNK         0.3000 
    155 H155        1.8041  -18.6305  -46.6511 H         1 UNK         0.0600 
    156 H156        0.4307  -16.2493  -45.3138 H         1 UNK         0.0600 
    157 H157       -0.2219  -17.2544  -46.6064 H         1 UNK         0.0600 
    158 H158        1.1578  -16.2230  -46.9213 H         1 UNK         0.0600 
    159 H159        2.9136  -16.4690  -45.0763 H         1 UNK         0.3000 
    160 H160        5.8198  -18.0879  -44.0519 H         1 UNK         0.0600 
    161 H161        6.5785  -17.8384  -46.4249 H         1 UNK         0.0600 
    162 H162        7.1853  -16.5296  -45.4243 H         1 UNK         0.0600 
    163 H163        5.8226  -16.2518  -46.5104 H         1 UNK         0.0600 
    164 H164        5.2843  -15.3112  -44.2928 H         1 UNK         0.3000 
    165 H165        2.7970  -14.8409  -41.9431 H         1 UNK         0.0600 
    166 H166        4.3661  -13.5384  -40.5405 H         1 UNK         0.0600 
    167 H167        4.5967  -15.2559  -40.2552 H         1 UNK         0.0600 
    168 H168        5.7469  -14.3738  -41.2539 H         1 UNK         0.0600 
    169 H169        4.5547  -12.9114  -42.9198 H         1 UNK         0.3000 
    170 H170        4.6246  -12.0927  -45.1639 H         1 UNK         0.0600 
    171 H171        3.4141  -11.4384  -47.1468 H         1 UNK         0.0600 
    172 H172        3.3962  -13.1948  -47.0971 H         1 UNK         0.0600 
    173 H173        1.9616  -12.2813  -46.6379 H         1 UNK         0.0600 
    174 H174        1.9304  -10.9661  -44.6721 H         1 UNK         0.3000 
    175 H175        2.8107   -9.5075  -41.5920 H         1 UNK         0.0600 
    176 H176        2.3213   -8.0361  -44.2385 H         1 UNK         0.0600 
    177 H177        2.0589   -7.3797  -42.6221 H         1 UNK         0.0600 
    178 H178        3.6855   -7.7650  -43.1605 H         1 UNK         0.0600 
    179 H179        0.4642   -9.2884  -43.1804 H         1 UNK         0.3000 
    180 H180       -1.2809  -11.7293  -41.4121 H         1 UNK         0.0600 
    181 H181       -2.8193  -10.1514  -42.4784 H         1 UNK         0.0600 
    182 H182       -1.5324   -9.4371  -43.4385 H         1 UNK         0.0600 
    183 H183       -1.5396   -9.2504  -41.6871 H         1 UNK         0.0600 
    184 H184       -1.7103  -13.0387  -43.1098 H         1 UNK         0.3000 
    185 H185       -2.4036  -12.7380  -46.1495 H         1 UNK         0.0600 
    186 H186        0.4007  -13.9297  -46.3572 H         1 UNK         0.0600 
    187 H187       -0.9387  -14.3076  -47.4298 H         1 UNK         0.0600 
    188 H188       -0.2836  -12.6814  -47.3971 H         1 UNK         0.0600 
    189 H189       -1.1593  -15.0342  -44.7567 H         1 UNK         0.3000 
    190 H190       -2.6564  -21.2034  -45.8567 H         1 UNK         0.3000 
    191 H191       -4.7969  -21.7201  -47.6533 H         1 UNK         0.0600 
    192 H192       -4.7708  -20.9768  -44.6859 H         1 UNK         0.0600 
    193 H193       -6.2215  -21.0236  -45.6815 H         1 UNK         0.0600 
    194 H194       -4.9438  -19.8904  -46.0650 H         1 UNK         0.0600 
    195 H195       -3.6129  -23.4995  -44.8183 H         1 UNK         0.3000 
    196 H196       -5.7107  -25.3971  -44.5924 H         1 UNK         0.0600 
    197 H197       -4.1142  -26.5964  -43.1234 H         1 UNK         0.0600 
    198 H198       -4.0812  -24.8768  -42.7701 H         1 UNK         0.0600 
    199 H199       -2.7820  -25.6139  -43.7101 H         1 UNK         0.0600 
    200 H200       -3.0119  -25.2376  -46.8023 H         1 UNK         0.3000 
    201 H201       -3.2716  -28.0204  -47.7372 H         1 UNK         0.0600 
    202 H202       -1.0245  -26.9382  -47.5468 H         1 UNK         0.0600 
    203 H203       -1.5098  -25.7099  -48.7103 H         1 UNK         0.0600 
    204 H204       -1.3830  -27.3946  -49.2032 H         1 UNK         0.0600 
    205 H205       -5.5614  -26.0875  -47.9149 H         1 UNK         0.3000 
    206 H206       -7.2268  -25.4570  -49.2242 H         1 UNK         0.0600 
    207 H207       -7.7739  -26.7621  -51.2503 H         1 UNK         0.0600 
    208 H208       -6.1573  -27.4484  -51.3003 H         1 UNK         0.0600 
    209 H209       -7.2462  -27.8451  -49.9723 H         1 UNK         0.0600 
    210 H210       -5.2703  -23.7192  -49.0731 H         1 UNK         0.3000 
    211 H211       -4.1982  -21.9440  -49.8884 H         1 UNK         0.0600 
    212 H212       -6.1735  -22.0396  -52.2221 H         1 UNK         0.0600 
    213 H213       -5.1852  -20.6636  -51.7517 H         1 UNK         0.0600 
    214 H214       -6.4454  -21.2426  -50.6750 H         1 UNK         0.0600 
    215 H215       -2.8685  -24.2019  -50.2034 H         1 UNK         0.3000 
    216 H216       -1.3603  -25.4649  -51.2338 H         1 UNK         0.0600 
    217 H217        0.3635  -24.2707  -52.6201 H         1 UNK         0.0600 
    218 H218       -0.0050  -23.4441  -51.1208 H         1 UNK         0.0600 
    219 H219       -0.6605  -22.8402  -52.6404 H         1 UNK         0.0600 
    220 H220       -3.6681  -26.1368  -52.1280 H         1 UNK         0.3000 
    221 H221       -4.9703  -27.0342  -53.6731 H         1 UNK         0.0600 
    222 H222       -2.4137  -27.4426  -55.3153 H         1 UNK         0.0600 
    223 H223       -2.9971  -28.5147  -54.0431 H         1 UNK         0.0600 
    224 H224       -3.9299  -28.3089  -55.5170 H         1 UNK         0.0600 
    225 H225       -5.3393  -24.4980  -53.6293 H         1 UNK         0.3000 
    226 H226       -6.1074  -22.6628  -54.5770 H         1 UNK         0.0600 
    227 H227       -7.7404  -24.2794  -55.5353 H         1 UNK         0.0600 
    228 H228       -7.4989  -22.9078  -56.6044 H         1 UNK         0.0600 
    229 H229       -6.7451  -24.4515  -56.9804 H         1 UNK         0.0600 
    230 H230       -3.4710  -22.5149  -54.5746 H         1 UNK         0.3000 
    231 H231       -2.2950  -21.9050  -57.1585 H         1 UNK         0.0600 
    232 H232       -1.3512  -21.2924  -54.3072 H         1 UNK         0.0600 
    233 H233       -0.9282  -22.7233  -55.2490 H         1 UNK         0.0600 
    234 H234       -0.3755  -21.1388  -55.7625 H         1 UNK         0.0600 
    235 H235       -4.0469  -20.0956  -54.7256 H         1 UNK         0.3000 
    236 H236       -4.7096  -17.9835  -54.4489 H         1 UNK         0.0600 
    237 H237       -4.6035  -17.8512  -57.5092 H         1 UNK         0.0600 
    238 H238       -5.9239  -18.5364  -56.5640 H         1 UNK         0.0600 
    239 H239       -5.5655  -16.8209  -56.4564 H         1 UNK         0.0600 
    240 H240       -2.0234  -18.2806  -54.0237 H         1 UNK         0.3000 
    241 H241       -0.1612  -17.2254  -53.5724 H         1 UNK         0.0600 
    242 H242        0.6227  -17.5449  -57.3873 H         1 UNK         0.3800 
    243 H243       -0.8737  -18.0610  -56.6564 H         1 UNK         0.3800 
    244 H244        0.1251  -14.7812  -53.5790 H         1 UNK         0.0800 
    245 H245       -1.2756  -14.5735  -54.5845 H         1 UNK         0.0800 
    246 H246        0.2156  -15.8185  -51.4006 H         1 UNK         0.0800 
    247 H247       -0.5855  -14.6824  -50.3457 H         1 UNK         0.0800 
@<TRIPOS>BOND
     1    1    2 1    
     2    1  127 1    
     3    1  128 1    
     4    1  129 1    
     5    2    3 2    
     6    2    4 am   BACKBONE|DICT|INTERRES
     7    4    5 1    
     8    4  130 1    
     9    5    6 1    
    10    5   65 1    
    11    5  131 1    
    12    6    7 1    
    13    6  132 1    
    14    6  133 1    
    15    7    8 1    
    16    8    9 1    
    17    8  134 1    
    18    8  135 1    
    19    9   10 ar   
    20    9   14 ar   
    21   10   11 ar   
    22   10  136 1    
    23   11   12 ar   
    24   11  126 1    
    25   12   13 ar   
    26   12  137 1    
    27   13   14 ar   
    28   13   15 1    
    29   14  138 1    
    30   15   16 1    
    31   15  139 1    
    32   15  140 1    
    33   16   17 1    
    34   17   18 1    
    35   17  141 1    
    36   17  142 1    
    37   18   19 1    
    38   18   67 1    
    39   18  143 1    
    40   19   20 am   BACKBONE|DICT|INTERRES
    41   19  144 1    
    42   20   21 2    
    43   20   22 1    
    44   22   23 1    
    45   22   24 1    
    46   22  145 1    
    47   23  146 1    
    48   23  147 1    
    49   23  148 1    
    50   24   25 am   BACKBONE|DICT|INTERRES
    51   24  149 1    
    52   25   26 2    
    53   25   27 1    
    54   27   28 1    
    55   27   29 1    
    56   27  150 1    
    57   28  151 1    
    58   28  152 1    
    59   28  153 1    
    60   29   30 am   BACKBONE|DICT|INTERRES
    61   29  154 1    
    62   30   31 2    
    63   30   32 1    
    64   32   33 1    
    65   32   34 1    
    66   32  155 1    
    67   33  156 1    
    68   33  157 1    
    69   33  158 1    
    70   34   35 am   BACKBONE|DICT|INTERRES
    71   34  159 1    
    72   35   36 2    
    73   35   37 1    
    74   37   38 1    
    75   37   39 1    
    76   37  160 1    
    77   38  161 1    
    78   38  162 1    
    79   38  163 1    
    80   39   40 am   BACKBONE|DICT|INTERRES
    81   39  164 1    
    82   40   41 2    
    83   40   42 1    
    84   42   43 1    
    85   42   44 1    
    86   42  165 1    
    87   43  166 1    
    88   43  167 1    
    89   43  168 1    
    90   44   45 am   BACKBONE|DICT|INTERRES
    91   44  169 1    
    92   45   46 2    
    93   45   47 1    
    94   47   48 1    
    95   47   49 1    
    96   47  170 1    
    97   48  171 1    
    98   48  172 1    
    99   48  173 1    
   100   49   50 am   BACKBONE|DICT|INTERRES
   101   49  174 1    
   102   50   51 2    
   103   50   52 1    
   104   52   53 1    
   105   52   54 1    
   106   52  175 1    
   107   53  176 1    
   108   53  177 1    
   109   53  178 1    
   110   54   55 am   BACKBONE|DICT|INTERRES
   111   54  179 1    
   112   55   56 2    
   113   55   57 1    
   114   57   58 1    
   115   57   59 1    
   116   57  180 1    
   117   58  181 1    
   118   58  182 1    
   119   58  183 1    
   120   59   60 am   BACKBONE|DICT|INTERRES
   121   59  184 1    
   122   60   61 2    
   123   60   62 1    
   124   62   63 1    
   125   62   64 1    
   126   62  185 1    
   127   63  186 1    
   128   63  187 1    
   129   63  188 1    
   130   64   65 am   BACKBONE|DICT|INTERRES
   131   64  189 1    
   132   65   66 2    
   133   67   68 2    
   134   67   69 am   BACKBONE|DICT|INTERRES
   135   69   70 1    
   136   69  190 1    
   137   70   71 1    
   138   70   72 1    
   139   70  191 1    
   140   71  192 1    
   141   71  193 1    
   142   71  194 1    
   143   72   73 2    
   144   72   74 am   BACKBONE|DICT|INTERRES
   145   74   75 1    
   146   74  195 1    
   147   75   76 1    
   148   75   77 1    
   149   75  196 1    
   150   76  197 1    
   151   76  198 1    
   152   76  199 1    
   153   77   78 2    
   154   77   79 am   BACKBONE|DICT|INTERRES
   155   79   80 1    
   156   79  200 1    
   157   80   81 1    
   158   80   82 1    
   159   80  201 1    
   160   81  202 1    
   161   81  203 1    
   162   81  204 1    
   163   82   83 2    
   164   82   84 am   BACKBONE|DICT|INTERRES
   165   84   85 1    
   166   84  205 1    
   167   85   86 1    
   168   85   87 1    
   169   85  206 1    
   170   86  207 1    
   171   86  208 1    
   172   86  209 1    
   173   87   88 2    
   174   87   89 am   BACKBONE|DICT|INTERRES
   175   89   90 1    
   176   89  210 1    
   177   90   91 1    
   178   90   92 1    
   179   90  211 1    
   180   91  212 1    
   181   91  213 1    
   182   91  214 1    
   183   92   93 2    
   184   92   94 am   BACKBONE|DICT|INTERRES
   185   94   95 1    
   186   94  215 1    
   187   95   96 1    
   188   95   97 1    
   189   95  216 1    
   190   96  217 1    
   191   96  218 1    
   192   96  219 1    
   193   97   98 2    
   194   97   99 am   BACKBONE|DICT|INTERRES
   195   99  100 1    
   196   99  220 1    
   197  100  101 1    
   198  100  102 1    
   199  100  221 1    
   200  101  222 1    
   201  101  223 1    
   202  101  224 1    
   203  102  103 2    
   204  102  104 am   BACKBONE|DICT|INTERRES
   205  104  105 1    
   206  104  225 1    
   207  105  106 1    
   208  105  107 1    
   209  105  226 1    
   210  106  227 1    
   211  106  228 1    
   212  106  229 1    
   213  107  108 2    
   214  107  109 am   BACKBONE|DICT|INTERRES
   215  109  110 1    
   216  109  230 1    
   217  110  111 1    
   218  110  112 1    
   219  110  231 1    
   220  111  232 1    
   221  111  233 1    
   222  111  234 1    
   223  112  113 2    
   224  112  114 am   BACKBONE|DICT|INTERRES
   225  114  115 1    
   226  114  235 1    
   227  115  116 1    
   228  115  117 1    
   229  115  236 1    
   230  116  237 1    
   231  116  238 1    
   232  116  239 1    
   233  117  118 2    
   234  117  119 am   BACKBONE|DICT|INTERRES
   235  119  120 1    
   236  119  240 1    
   237  120  121 1    
   238  120  124 1    
   239  120  241 1    
   240  121  122 am   BACKBONE|DICT|INTERRES
   241  121  123 2    
   242  122  242 1    
   243  122  243 1    
   244  124  125 1    
   245  124  244 1    
   246  124  245 1    
   247  125  126 1    
   248  126  246 1    
   249  126  247 1    
@<TRIPOS>SUBSTRUCTURE
     1 UNK         1 GROUP             0       ****    0 ROOT    
