@<TRIPOS>MOLECULE
3R540
247   249    1
SMALL
USER_CHARGES


@<TRIPOS>ATOM
      1 CA          4.6007  -10.5977  -48.8592 C.3       0 UNK        -0.1800 
      2 C           3.8230  -11.8516  -48.4864 C.2       0 UNK         0.5000 
      3 O           3.8814  -12.2918  -47.3376 O.2       0 UNK        -0.5000 
      4 N           3.0833  -12.4236  -49.4451 N.am      1 UNK        -0.5000 
      5 CA          2.2597  -13.6294  -49.2898 C.3       1 UNK         0.1400 
      6 C6          2.1019  -14.3741  -50.6431 C.3       23 UNK        -0.0398 
      7 S7          1.7676  -16.1571  -50.4293 S.3       23 UNK        -0.2404 
      8 C8          3.2753  -16.8878  -51.1391 C.3       23 UNK        -0.0205 
      9 C9          3.2281  -18.4051  -51.0690 C.ar      23 UNK        -0.0193 
     10 C10         2.5669  -19.1343  -52.0610 C.ar      23 UNK        -0.1150 
     11 C11         2.4791  -20.5279  -51.9840 C.ar      23 UNK        -0.0193 
     12 C12         3.0910  -21.1919  -50.9152 C.ar      23 UNK        -0.1150 
     13 C13         3.7845  -20.4754  -49.9329 C.ar      23 UNK        -0.0193 
     14 C14         3.8436  -19.0814  -50.0133 C.ar      23 UNK        -0.1150 
     15 C15         4.4810  -21.2069  -48.7914 C.3       23 UNK        -0.0205 
     16 S16         3.8122  -20.7672  -47.1534 S.3       23 UNK        -0.2404 
     17 C17         2.0916  -21.3395  -47.3018 C.3       23 UNK        -0.0398 
     18 CA          1.8737  -22.7483  -46.7031 C.3       11 UNK         0.1400 
     19 N           2.0042  -22.7367  -45.2477 N.am      11 UNK        -0.5000 
     20 C           2.1618  -23.8118  -44.4685 C.2       10 UNK         0.5000 
     21 O           2.2695  -24.9601  -44.9041 O.2       10 UNK        -0.5000 
     22 CA          2.2143  -23.5375  -42.9495 C.3       10 UNK         0.1400 
     23 CB          2.6936  -24.7483  -42.1221 C.3       10 UNK        -0.1800 
     24 N           2.9872  -22.3339  -42.6238 N.am      10 UNK        -0.5000 
     25 C           4.2907  -22.1073  -42.8462 C.2       9 UNK         0.5000 
     26 O           5.0674  -22.9498  -43.2979 O.2       9 UNK        -0.5000 
     27 CA          4.8262  -20.6960  -42.5232 C.3       9 UNK         0.1400 
     28 CB          5.1444  -19.9327  -43.8172 C.3       9 UNK        -0.1800 
     29 N           3.9068  -19.8853  -41.7224 N.am      9 UNK        -0.5000 
     30 C           3.7063  -20.0261  -40.4058 C.2       8 UNK         0.5000 
     31 O           4.3136  -20.8350  -39.7034 O.2       8 UNK        -0.5000 
     32 CA          2.6223  -19.1313  -39.7746 C.3       8 UNK         0.1400 
     33 CB          3.1907  -17.7455  -39.4340 C.3       8 UNK        -0.1800 
     34 N           1.4398  -18.9796  -40.6263 N.am      8 UNK        -0.5000 
     35 C           0.6082  -19.9786  -40.9569 C.2       7 UNK         0.5000 
     36 O           0.7346  -21.1356  -40.5558 O.2       7 UNK        -0.5000 
     37 CA         -0.5316  -19.6434  -41.9345 C.3       7 UNK         0.1400 
     38 CB         -1.7044  -18.9746  -41.2029 C.3       7 UNK        -0.1800 
     39 N          -0.0911  -18.7984  -43.0441 N.am      7 UNK        -0.5000 
     40 C           0.7837  -19.1835  -43.9839 C.2       6 UNK         0.5000 
     41 O           1.2869  -20.3043  -44.0294 O.2       6 UNK        -0.5000 
     42 CA          1.1917  -18.1360  -45.0327 C.3       6 UNK         0.1400 
     43 CB          0.1118  -18.0024  -46.1173 C.3       6 UNK        -0.1800 
     44 N           1.4584  -16.8263  -44.4445 N.am      6 UNK        -0.5000 
     45 C           2.3970  -16.5705  -43.5230 C.2       5 UNK         0.5000 
     46 O           3.1890  -17.4090  -43.0947 O.2       5 UNK        -0.5000 
     47 CA          2.4055  -15.1503  -42.9356 C.3       5 UNK         0.1400 
     48 CB          3.0833  -14.1579  -43.8934 C.3       5 UNK        -0.1800 
     49 N           1.0532  -14.6906  -42.6170 N.am      5 UNK        -0.5000 
     50 C           0.2862  -15.2100  -41.6474 C.2       4 UNK         0.5000 
     51 O           0.6515  -16.1123  -40.8938 O.2       4 UNK        -0.5000 
     52 CA         -1.1428  -14.6507  -41.5260 C.3       4 UNK         0.1400 
     53 CB         -1.1470  -13.3408  -40.7240 C.3       4 UNK        -0.1800 
     54 N          -1.7690  -14.4250  -42.8297 N.am      4 UNK        -0.5000 
     55 C          -2.1196  -15.4027  -43.6770 C.2       3 UNK         0.5000 
     56 O          -1.9754  -16.6004  -43.4369 O.2       3 UNK        -0.5000 
     57 CA         -2.6792  -14.9653  -45.0436 C.3       3 UNK         0.1400 
     58 CB         -4.1853  -14.6810  -44.9465 C.3       3 UNK        -0.1800 
     59 N          -1.9946  -13.7977  -45.6096 N.am      3 UNK        -0.5000 
     60 C          -0.6905  -13.7619  -45.9125 C.2       2 UNK         0.5000 
     61 O           0.0866  -14.6917  -45.6881 O.2       2 UNK        -0.5000 
     62 CA         -0.1516  -12.4560  -46.5198 C.3       2 UNK         0.1400 
     63 CB          0.2945  -11.4942  -45.4078 C.3       2 UNK        -0.1800 
     64 N           0.9878  -12.7245  -47.3948 N.am      2 UNK        -0.5000 
     65 C           0.9116  -13.2994  -48.6013 C.2       1 UNK         0.5000 
     66 O          -0.1583  -13.5323  -49.1674 O.2       1 UNK        -0.5000 
     67 C           0.4873  -23.2593  -47.1333 C.2       11 UNK         0.5000 
     68 O          -0.4999  -23.0594  -46.4203 O.2       11 UNK        -0.5000 
     69 N           0.4287  -23.8160  -48.3518 N.am      12 UNK        -0.5000 
     70 CA         -0.8062  -24.2004  -49.0415 C.3       12 UNK         0.1400 
     71 CB         -0.4511  -24.8860  -50.3692 C.3       12 UNK        -0.1800 
     72 C          -1.7551  -23.0130  -49.2932 C.2       12 UNK         0.5000 
     73 O          -2.9695  -23.2025  -49.2746 O.2       12 UNK        -0.5000 
     74 N          -1.1857  -21.8101  -49.4645 N.am      13 UNK        -0.5000 
     75 CA         -1.8799  -20.5353  -49.6627 C.3       13 UNK         0.1400 
     76 CB         -0.8348  -19.4075  -49.7133 C.3       13 UNK        -0.1800 
     77 C          -2.9400  -20.2197  -48.5897 C.2       13 UNK         0.5000 
     78 O          -3.9991  -19.6886  -48.9209 O.2       13 UNK        -0.5000 
     79 N          -2.6553  -20.5798  -47.3295 N.am      14 UNK        -0.5000 
     80 CA         -3.5611  -20.3769  -46.1978 C.3       14 UNK         0.1400 
     81 CB         -2.7747  -20.5277  -44.8883 C.3       14 UNK        -0.1800 
     82 C          -4.7772  -21.3221  -46.2157 C.2       14 UNK         0.5000 
     83 O          -5.8399  -20.9445  -45.7214 O.2       14 UNK        -0.5000 
     84 N          -4.6060  -22.5237  -46.7822 N.am      15 UNK        -0.5000 
     85 CA         -5.6681  -23.5150  -46.9468 C.3       15 UNK         0.1400 
     86 CB         -5.0523  -24.9233  -46.9513 C.3       15 UNK        -0.1800 
     87 C          -6.4726  -23.2651  -48.2336 C.2       15 UNK         0.5000 
     88 O          -7.6987  -23.3783  -48.2176 O.2       15 UNK        -0.5000 
     89 N          -5.7647  -22.9326  -49.3207 N.am      16 UNK        -0.5000 
     90 CA         -6.3203  -22.6537  -50.6431 C.3       16 UNK         0.1400 
     91 CB         -5.1686  -22.6191  -51.6582 C.3       16 UNK        -0.1800 
     92 C          -7.1347  -21.3480  -50.6866 C.2       16 UNK         0.5000 
     93 O          -8.1909  -21.3118  -51.3204 O.2       16 UNK        -0.5000 
     94 N          -6.6438  -20.3129  -49.9880 N.am      17 UNK        -0.5000 
     95 CA         -7.2062  -18.9652  -49.9038 C.3       17 UNK         0.1400 
     96 CB         -8.5298  -18.9760  -49.1056 C.3       17 UNK        -0.1800 
     97 C          -7.2987  -18.3153  -51.3001 C.2       17 UNK         0.5000 
     98 O          -6.2776  -18.2164  -51.9807 O.2       17 UNK        -0.5000 
     99 N          -8.4992  -17.8874  -51.7081 N.am      18 UNK        -0.5000 
    100 CA        -8.7621  -17.2725  -53.0104 C.3       18 UNK         0.1400 
    101 CB       -10.0491  -16.4384  -52.9036 C.3       18 UNK        -0.1800 
    102 C         -8.8730  -18.2873  -54.1681 C.2       18 UNK         0.5000 
    103 O         -8.8397  -17.8722  -55.3279 O.2       18 UNK        -0.5000 
    104 N         -9.0330  -19.5785  -53.8519 N.am      19 UNK        -0.5000 
    105 CA        -9.1684  -20.6633  -54.8224 C.3       19 UNK         0.1400 
    106 CB       -10.1709  -21.6880  -54.2637 C.3       19 UNK        -0.1800 
    107 C         -7.8119  -21.3324  -55.1066 C.2       19 UNK         0.5000 
    108 O         -6.8475  -21.1168  -54.3706 O.2       19 UNK        -0.5000 
    109 N         -7.7881  -22.1661  -56.1575 N.am      20 UNK        -0.5000 
    110 CA        -6.6832  -23.0379  -56.5766 C.3       20 UNK         0.1400 
    111 CB        -6.5362  -24.2075  -55.5760 C.3       20 UNK        -0.1800 
    112 C         -5.3615  -22.2783  -56.8393 C.2       20 UNK         0.5000 
    113 O         -5.3930  -21.1257  -57.2786 O.2       20 UNK        -0.5000 
    114 N         -4.2237  -22.9393  -56.5932 N.am      21 UNK        -0.5000 
    115 CA        -2.8964  -22.3313  -56.6039 C.3       21 UNK         0.1400 
    116 CB        -1.8375  -23.4292  -56.7907 C.3       21 UNK        -0.1800 
    117 C         -2.6659  -21.5712  -55.2872 C.2       21 UNK         0.5000 
    118 O         -2.9623  -22.1145  -54.2223 O.2       21 UNK        -0.5000 
    119 N         -2.1476  -20.3428  -55.4020 N.am      22 UNK        -0.5000 
    120 CA        -1.8084  -19.3854  -54.3298 C.3       22 UNK         0.1400 
    121 C         -2.9147  -19.0046  -53.2956 C.2       22 UNK         0.5000 
    122 N         -4.1643  -19.4123  -53.4628 N.am      22 UNK        -0.7600 
    123 O         -2.6505  -18.2515  -52.3636 O.2       22 UNK        -0.5000 
    124 C124       -0.3948  -19.5965  -53.7095 C.3       23 UNK        -0.0398 
    125 S125       -0.0616  -21.2126  -52.9220 S.3       23 UNK        -0.2404 
    126 C126        1.7539  -21.3193  -53.0673 C.3       23 UNK        -0.0205 
    127 H127        4.4522  -10.3237  -49.9040 H         1 UNK         0.0600 
    128 H128        5.6669  -10.7562  -48.6973 H         1 UNK         0.0600 
    129 H129        4.2812   -9.7603  -48.2389 H         1 UNK         0.0600 
    130 H130        3.0475  -11.9887  -50.3563 H         1 UNK         0.3000 
    131 H131        2.7947  -14.2997  -48.6127 H         1 UNK         0.0600 
    132 H132        1.3181  -13.9312  -51.2600 H         1 UNK         0.0800 
    133 H133        3.0170  -14.2714  -51.2279 H         1 UNK         0.0800 
    134 H134        4.1490  -16.5106  -50.6050 H         1 UNK         0.0800 
    135 H135        3.3825  -16.5694  -52.1772 H         1 UNK         0.0800 
    136 H136        2.1127  -18.6095  -52.8881 H         1 UNK         0.1150 
    137 H137        3.0398  -22.2700  -50.8568 H         1 UNK         0.1150 
    138 H138        4.3652  -18.5239  -49.2479 H         1 UNK         0.1150 
    139 H139        4.4156  -22.2879  -48.9230 H         1 UNK         0.0800 
    140 H140        5.5434  -20.9610  -48.8128 H         1 UNK         0.0800 
    141 H141        1.8001  -21.3029  -48.3513 H         1 UNK         0.0800 
    142 H142        1.4522  -20.6147  -46.8001 H         1 UNK         0.0800 
    143 H143        2.6277  -23.4265  -47.1087 H         1 UNK         0.0600 
    144 H144        1.8668  -21.8347  -44.7954 H         1 UNK         0.3000 
    145 H145        1.1880  -23.3224  -42.6484 H         1 UNK         0.0600 
    146 H146        2.7069  -24.5161  -41.0572 H         1 UNK         0.0600 
    147 H147        2.0281  -25.6013  -42.2594 H         1 UNK         0.0600 
    148 H148        3.6956  -25.0677  -42.4092 H         1 UNK         0.0600 
    149 H149        2.4398  -21.5549  -42.2823 H         1 UNK         0.3000 
    150 H150        5.7566  -20.8217  -41.9659 H         1 UNK         0.0600 
    151 H151        5.8184  -20.5011  -44.4592 H         1 UNK         0.0600 
    152 H152        5.6251  -18.9779  -43.6036 H         1 UNK         0.0600 
    153 H153        4.2383  -19.7282  -44.3882 H         1 UNK         0.0600 
    154 H154        3.4133  -19.1458  -42.2151 H         1 UNK         0.3000 
    155 H155        2.3040  -19.6046  -38.8434 H         1 UNK         0.0600 
    156 H156        4.0650  -17.8290  -38.7872 H         1 UNK         0.0600 
    157 H157        2.4546  -17.1364  -38.9090 H         1 UNK         0.0600 
    158 H158        3.4944  -17.2032  -40.3299 H         1 UNK         0.0600 
    159 H159        1.2434  -18.0439  -40.9680 H         1 UNK         0.3000 
    160 H160       -0.8916  -20.5844  -42.3561 H         1 UNK         0.0600 
    161 H161       -1.4255  -18.0008  -40.7997 H         1 UNK         0.0600 
    162 H162       -2.0491  -19.5898  -40.3710 H         1 UNK         0.0600 
    163 H163       -2.5525  -18.8290  -41.8722 H         1 UNK         0.0600 
    164 H164       -0.5143  -17.8776  -43.1099 H         1 UNK         0.3000 
    165 H165        2.1129  -18.4828  -45.5052 H         1 UNK         0.0600 
    166 H166        0.4650  -17.3978  -46.9532 H         1 UNK         0.0600 
    167 H167       -0.1748  -18.9762  -46.5117 H         1 UNK         0.0600 
    168 H168       -0.7932  -17.5369  -45.7285 H         1 UNK         0.0600 
    169 H169        0.8771  -16.0574  -44.7727 H         1 UNK         0.3000 
    170 H170        2.9824  -15.1748  -42.0086 H         1 UNK         0.0600 
    171 H171        4.1085  -14.4635  -44.1062 H         1 UNK         0.0600 
    172 H172        2.5613  -14.0884  -44.8480 H         1 UNK         0.0600 
    173 H173        3.1263  -13.1581  -43.4612 H         1 UNK         0.0600 
    174 H174        0.6551  -13.9932  -43.2268 H         1 UNK         0.3000 
    175 H175       -1.7421  -15.3846  -40.9828 H         1 UNK         0.0600 
    176 H176       -0.6980  -13.4849  -39.7403 H         1 UNK         0.0600 
    177 H177       -0.5849  -12.5546  -41.2296 H         1 UNK         0.0600 
    178 H178       -2.1631  -12.9788  -40.5661 H         1 UNK         0.0600 
    179 H179       -1.9206  -13.4668  -43.1078 H         1 UNK         0.3000 
    180 H180       -2.5376  -15.7974  -45.7363 H         1 UNK         0.0600 
    181 H181       -4.7197  -15.5429  -44.5443 H         1 UNK         0.0600 
    182 H182       -4.3950  -13.8314  -44.2956 H         1 UNK         0.0600 
    183 H183       -4.6103  -14.4665  -45.9272 H         1 UNK         0.0600 
    184 H184       -2.5687  -12.9911  -45.8086 H         1 UNK         0.3000 
    185 H185       -0.9419  -11.9811  -47.1048 H         1 UNK         0.0600 
    186 H186       -0.5343  -11.2518  -44.7415 H         1 UNK         0.0600 
    187 H187        1.0920  -11.9219  -44.7992 H         1 UNK         0.0600 
    188 H188        0.6602  -10.5553  -45.8239 H         1 UNK         0.0600 
    189 H189        1.9129  -12.5669  -47.0096 H         1 UNK         0.3000 
    190 H190        1.2845  -23.9559  -48.8693 H         1 UNK         0.3000 
    191 H191       -1.3345  -24.9180  -48.4104 H         1 UNK         0.0600 
    192 H192        0.0970  -24.2171  -51.0346 H         1 UNK         0.0600 
    193 H193       -1.3519  -25.2044  -50.8960 H         1 UNK         0.0600 
    194 H194        0.1593  -25.7742  -50.2055 H         1 UNK         0.0600 
    195 H195       -0.1797  -21.7723  -49.5010 H         1 UNK         0.3000 
    196 H196       -2.3880  -20.5838  -50.6276 H         1 UNK         0.0600 
    197 H197       -1.3120  -18.4355  -49.8457 H         1 UNK         0.0600 
    198 H198       -0.1430  -19.5376  -50.5436 H         1 UNK         0.0600 
    199 H199       -0.2420  -19.3613  -48.8011 H         1 UNK         0.0600 
    200 H200       -1.7912  -21.0686  -47.1407 H         1 UNK         0.3000 
    201 H201       -3.9421  -19.3542  -46.2436 H         1 UNK         0.0600 
    202 H202       -1.9996  -19.7676  -44.8168 H         1 UNK         0.0600 
    203 H203       -2.2985  -21.5059  -44.8098 H         1 UNK         0.0600 
    204 H204       -3.4249  -20.4050  -44.0211 H         1 UNK         0.0600 
    205 H205       -3.7170  -22.7354  -47.2154 H         1 UNK         0.3000 
    206 H206       -6.3562  -23.4540  -46.1008 H         1 UNK         0.0600 
    207 H207       -4.5201  -25.1225  -46.0211 H         1 UNK         0.0600 
    208 H208       -5.8256  -25.6856  -47.0534 H         1 UNK         0.0600 
    209 H209       -4.3492  -25.0574  -47.7741 H         1 UNK         0.0600 
    210 H210       -4.7490  -22.9175  -49.2521 H         1 UNK         0.3000 
    211 H211       -6.9877  -23.4753  -50.9108 H         1 UNK         0.0600 
    212 H212       -5.5412  -22.4851  -52.6716 H         1 UNK         0.0600 
    213 H213       -4.5998  -23.5489  -51.6471 H         1 UNK         0.0600 
    214 H214       -4.4745  -21.8022  -51.4561 H         1 UNK         0.0600 
    215 H215       -5.7339  -20.4145  -49.5494 H         1 UNK         0.3000 
    216 H216       -6.4871  -18.3695  -49.3399 H         1 UNK         0.0600 
    217 H217       -8.9037  -17.9637  -48.9478 H         1 UNK         0.0600 
    218 H218       -8.3811  -19.4171  -48.1197 H         1 UNK         0.0600 
    219 H219       -9.3118  -19.5489  -49.6049 H         1 UNK         0.0600 
    220 H220       -9.2942  -18.0201  -51.1001 H         1 UNK         0.3000 
    221 H221       -7.9399  -16.5949  -53.2506 H         1 UNK         0.0600 
    222 H222      -10.9124  -17.0600  -52.6626 H         1 UNK         0.0600 
    223 H223       -9.9603  -15.6720  -52.1334 H         1 UNK         0.0600 
    224 H224      -10.2646  -15.9279  -53.8432 H         1 UNK         0.0600 
    225 H225       -8.9346  -19.8633  -52.8850 H         1 UNK         0.3000 
    226 H226       -9.5634  -20.2750  -55.7635 H         1 UNK         0.0600 
    227 H227      -11.1313  -21.2207  -54.0453 H         1 UNK         0.0600 
    228 H228      -10.3580  -22.4899  -54.9785 H         1 UNK         0.0600 
    229 H229       -9.8064  -22.1483  -53.3447 H         1 UNK         0.0600 
    230 H230       -8.6232  -22.2385  -56.7211 H         1 UNK         0.3000 
    231 H231       -6.9809  -23.4608  -57.5370 H         1 UNK         0.0600 
    232 H232       -7.4988  -24.6822  -55.3848 H         1 UNK         0.0600 
    233 H233       -6.1382  -23.8721  -54.6176 H         1 UNK         0.0600 
    234 H234       -5.8743  -24.9841  -55.9604 H         1 UNK         0.0600 
    235 H235       -4.2830  -23.8645  -56.1940 H         1 UNK         0.3000 
    236 H236       -2.8246  -21.6386  -57.4454 H         1 UNK         0.0600 
    237 H237       -1.9859  -23.9656  -57.7281 H         1 UNK         0.0600 
    238 H238       -0.8344  -23.0014  -56.8151 H         1 UNK         0.0600 
    239 H239       -1.8631  -24.1572  -55.9786 H         1 UNK         0.0600 
    240 H240       -1.9734  -19.9983  -56.3350 H         1 UNK         0.3000 
    241 H241       -1.7186  -18.4509  -54.8851 H         1 UNK         0.0600 
    242 H242       -4.4105  -20.0760  -54.1804 H         1 UNK         0.3800 
    243 H243       -4.8845  -19.0716  -52.8300 H         1 UNK         0.3800 
    244 H244        0.3421  -19.4540  -54.5003 H         1 UNK         0.0800 
    245 H245       -0.1853  -18.8143  -52.9789 H         1 UNK         0.0800 
    246 H246        2.0364  -22.3715  -53.0108 H         1 UNK         0.0800 
    247 H247        2.0740  -20.9797  -54.0531 H         1 UNK         0.0800 
@<TRIPOS>BOND
     1    1    2 1    
     2    1  127 1    
     3    1  128 1    
     4    1  129 1    
     5    2    3 2    
     6    2    4 am   BACKBONE|DICT|INTERRES
     7    4    5 1    
     8    4  130 1    
     9    5    6 1    
    10    5   65 1    
    11    5  131 1    
    12    6    7 1    
    13    6  132 1    
    14    6  133 1    
    15    7    8 1    
    16    8    9 1    
    17    8  134 1    
    18    8  135 1    
    19    9   10 ar   
    20    9   14 ar   
    21   10   11 ar   
    22   10  136 1    
    23   11   12 ar   
    24   11  126 1    
    25   12   13 ar   
    26   12  137 1    
    27   13   14 ar   
    28   13   15 1    
    29   14  138 1    
    30   15   16 1    
    31   15  139 1    
    32   15  140 1    
    33   16   17 1    
    34   17   18 1    
    35   17  141 1    
    36   17  142 1    
    37   18   19 1    
    38   18   67 1    
    39   18  143 1    
    40   19   20 am   BACKBONE|DICT|INTERRES
    41   19  144 1    
    42   20   21 2    
    43   20   22 1    
    44   22   23 1    
    45   22   24 1    
    46   22  145 1    
    47   23  146 1    
    48   23  147 1    
    49   23  148 1    
    50   24   25 am   BACKBONE|DICT|INTERRES
    51   24  149 1    
    52   25   26 2    
    53   25   27 1    
    54   27   28 1    
    55   27   29 1    
    56   27  150 1    
    57   28  151 1    
    58   28  152 1    
    59   28  153 1    
    60   29   30 am   BACKBONE|DICT|INTERRES
    61   29  154 1    
    62   30   31 2    
    63   30   32 1    
    64   32   33 1    
    65   32   34 1    
    66   32  155 1    
    67   33  156 1    
    68   33  157 1    
    69   33  158 1    
    70   34   35 am   BACKBONE|DICT|INTERRES
    71   34  159 1    
    72   35   36 2    
    73   35   37 1    
    74   37   38 1    
    75   37   39 1    
    76   37  160 1    
    77   38  161 1    
    78   38  162 1    
    79   38  163 1    
    80   39   40 am   BACKBONE|DICT|INTERRES
    81   39  164 1    
    82   40   41 2    
    83   40   42 1    
    84   42   43 1    
    85   42   44 1    
    86   42  165 1    
    87   43  166 1    
    88   43  167 1    
    89   43  168 1    
    90   44   45 am   BACKBONE|DICT|INTERRES
    91   44  169 1    
    92   45   46 2    
    93   45   47 1    
    94   47   48 1    
    95   47   49 1    
    96   47  170 1    
    97   48  171 1    
    98   48  172 1    
    99   48  173 1    
   100   49   50 am   BACKBONE|DICT|INTERRES
   101   49  174 1    
   102   50   51 2    
   103   50   52 1    
   104   52   53 1    
   105   52   54 1    
   106   52  175 1    
   107   53  176 1    
   108   53  177 1    
   109   53  178 1    
   110   54   55 am   BACKBONE|DICT|INTERRES
   111   54  179 1    
   112   55   56 2    
   113   55   57 1    
   114   57   58 1    
   115   57   59 1    
   116   57  180 1    
   117   58  181 1    
   118   58  182 1    
   119   58  183 1    
   120   59   60 am   BACKBONE|DICT|INTERRES
   121   59  184 1    
   122   60   61 2    
   123   60   62 1    
   124   62   63 1    
   125   62   64 1    
   126   62  185 1    
   127   63  186 1    
   128   63  187 1    
   129   63  188 1    
   130   64   65 am   BACKBONE|DICT|INTERRES
   131   64  189 1    
   132   65   66 2    
   133   67   68 2    
   134   67   69 am   BACKBONE|DICT|INTERRES
   135   69   70 1    
   136   69  190 1    
   137   70   71 1    
   138   70   72 1    
   139   70  191 1    
   140   71  192 1    
   141   71  193 1    
   142   71  194 1    
   143   72   73 2    
   144   72   74 am   BACKBONE|DICT|INTERRES
   145   74   75 1    
   146   74  195 1    
   147   75   76 1    
   148   75   77 1    
   149   75  196 1    
   150   76  197 1    
   151   76  198 1    
   152   76  199 1    
   153   77   78 2    
   154   77   79 am   BACKBONE|DICT|INTERRES
   155   79   80 1    
   156   79  200 1    
   157   80   81 1    
   158   80   82 1    
   159   80  201 1    
   160   81  202 1    
   161   81  203 1    
   162   81  204 1    
   163   82   83 2    
   164   82   84 am   BACKBONE|DICT|INTERRES
   165   84   85 1    
   166   84  205 1    
   167   85   86 1    
   168   85   87 1    
   169   85  206 1    
   170   86  207 1    
   171   86  208 1    
   172   86  209 1    
   173   87   88 2    
   174   87   89 am   BACKBONE|DICT|INTERRES
   175   89   90 1    
   176   89  210 1    
   177   90   91 1    
   178   90   92 1    
   179   90  211 1    
   180   91  212 1    
   181   91  213 1    
   182   91  214 1    
   183   92   93 2    
   184   92   94 am   BACKBONE|DICT|INTERRES
   185   94   95 1    
   186   94  215 1    
   187   95   96 1    
   188   95   97 1    
   189   95  216 1    
   190   96  217 1    
   191   96  218 1    
   192   96  219 1    
   193   97   98 2    
   194   97   99 am   BACKBONE|DICT|INTERRES
   195   99  100 1    
   196   99  220 1    
   197  100  101 1    
   198  100  102 1    
   199  100  221 1    
   200  101  222 1    
   201  101  223 1    
   202  101  224 1    
   203  102  103 2    
   204  102  104 am   BACKBONE|DICT|INTERRES
   205  104  105 1    
   206  104  225 1    
   207  105  106 1    
   208  105  107 1    
   209  105  226 1    
   210  106  227 1    
   211  106  228 1    
   212  106  229 1    
   213  107  108 2    
   214  107  109 am   BACKBONE|DICT|INTERRES
   215  109  110 1    
   216  109  230 1    
   217  110  111 1    
   218  110  112 1    
   219  110  231 1    
   220  111  232 1    
   221  111  233 1    
   222  111  234 1    
   223  112  113 2    
   224  112  114 am   BACKBONE|DICT|INTERRES
   225  114  115 1    
   226  114  235 1    
   227  115  116 1    
   228  115  117 1    
   229  115  236 1    
   230  116  237 1    
   231  116  238 1    
   232  116  239 1    
   233  117  118 2    
   234  117  119 am   BACKBONE|DICT|INTERRES
   235  119  120 1    
   236  119  240 1    
   237  120  121 1    
   238  120  124 1    
   239  120  241 1    
   240  121  122 am   BACKBONE|DICT|INTERRES
   241  121  123 2    
   242  122  242 1    
   243  122  243 1    
   244  124  125 1    
   245  124  244 1    
   246  124  245 1    
   247  125  126 1    
   248  126  246 1    
   249  126  247 1    
@<TRIPOS>SUBSTRUCTURE
     1 UNK         1 GROUP             0       ****    0 ROOT    
