@<TRIPOS>MOLECULE
3R540
247   249    1
SMALL
USER_CHARGES


@<TRIPOS>ATOM
      1 CA         -5.2952  -14.3103  -45.7819 C.3       0 UNK        -0.1800 
      2 C          -5.1280  -15.4497  -46.7853 C.2       0 UNK         0.5000 
      3 O          -5.6192  -16.5481  -46.5389 O.2       0 UNK        -0.5000 
      4 N          -4.4557  -15.2436  -47.9262 N.am      1 UNK        -0.5000 
      5 CA         -3.7565  -14.0188  -48.3394 C.3       1 UNK         0.1400 
      6 C6         -3.5240  -13.9906  -49.8729 C.3       23 UNK        -0.0398 
      7 S7         -2.5880  -15.4253  -50.5234 S.3       23 UNK        -0.2404 
      8 C8         -0.9872  -14.6506  -50.9231 C.3       23 UNK        -0.0205 
      9 C9          0.0251  -15.6634  -51.4418 C.ar      23 UNK        -0.0193 
     10 C10        -0.2264  -16.3582  -52.6281 C.ar      23 UNK        -0.1150 
     11 C11         0.6946  -17.2866  -53.1203 C.ar      23 UNK        -0.0193 
     12 C12         1.8839  -17.5092  -52.4204 C.ar      23 UNK        -0.1150 
     13 C13         2.1577  -16.8121  -51.2394 C.ar      23 UNK        -0.0193 
     14 C14         1.2228  -15.8910  -50.7550 C.ar      23 UNK        -0.1150 
     15 C15         3.4852  -17.0174  -50.5199 C.3       23 UNK        -0.0205 
     16 S16         3.7343  -18.7289  -49.9429 S.3       23 UNK        -0.2404 
     17 C17         2.7096  -18.7845  -48.4350 C.3       23 UNK        -0.0398 
     18 CA          1.8636  -20.0803  -48.3381 C.3       11 UNK         0.1400 
     19 N           1.7024  -20.5217  -46.9481 N.am      11 UNK        -0.5000 
     20 C           1.3299  -21.7601  -46.5867 C.2       10 UNK         0.5000 
     21 O           1.1690  -22.6792  -47.3890 O.2       10 UNK        -0.5000 
     22 CA          1.0650  -22.0262  -45.0889 C.3       10 UNK         0.1400 
     23 CB          2.2633  -22.7449  -44.4514 C.3       10 UNK        -0.1800 
     24 N           0.7654  -20.8282  -44.3029 N.am      10 UNK        -0.5000 
     25 C          -0.2578  -19.9885  -44.5101 C.2       9 UNK         0.5000 
     26 O          -1.1077  -20.1518  -45.3850 O.2       9 UNK        -0.5000 
     27 CA         -0.3068  -18.7203  -43.6393 C.3       9 UNK         0.1400 
     28 CB         -1.1945  -18.9718  -42.4103 C.3       9 UNK        -0.1800 
     29 N           1.0048  -18.2298  -43.1999 N.am      9 UNK        -0.5000 
     30 C           2.0661  -17.9682  -43.9809 C.2       8 UNK         0.5000 
     31 O           2.0857  -18.1527  -45.1984 O.2       8 UNK        -0.5000 
     32 CA          3.3412  -17.4777  -43.2734 C.3       8 UNK         0.1400 
     33 CB          3.3365  -15.9505  -43.1146 C.3       8 UNK        -0.1800 
     34 N           3.5165  -18.1007  -41.9616 N.am      8 UNK        -0.5000 
     35 C           3.9412  -19.3572  -41.7680 C.2       7 UNK         0.5000 
     36 O           4.2484  -20.1240  -42.6806 O.2       7 UNK        -0.5000 
     37 CA          4.0282  -19.8398  -40.3077 C.3       7 UNK         0.1400 
     38 CB          5.3958  -19.4858  -39.7041 C.3       7 UNK        -0.1800 
     39 N           2.9714  -19.2731  -39.4686 N.am      7 UNK        -0.5000 
     40 C           1.6849  -19.6446  -39.5238 C.2       6 UNK         0.5000 
     41 O           1.2664  -20.5524  -40.2420 O.2       6 UNK        -0.5000 
     42 CA          0.6954  -18.8454  -38.6523 C.3       6 UNK         0.1400 
     43 CB          0.5489  -19.4962  -37.2687 C.3       6 UNK        -0.1800 
     44 N           1.0601  -17.4329  -38.4869 N.am      6 UNK        -0.5000 
     45 C           1.1261  -16.5486  -39.4893 C.2       5 UNK         0.5000 
     46 O           0.9261  -16.8432  -40.6717 O.2       5 UNK        -0.5000 
     47 CA          1.5146  -15.1089  -39.1263 C.3       5 UNK         0.1400 
     48 CB          3.0363  -14.9769  -38.9442 C.3       5 UNK        -0.1800 
     49 N           1.0753  -14.2575  -40.2214 N.am      5 UNK        -0.5000 
     50 C           0.7376  -12.9654  -40.1628 C.2       4 UNK         0.5000 
     51 O           0.8419  -12.2731  -39.1497 O.2       4 UNK        -0.5000 
     52 CA          0.1692  -12.3508  -41.4596 C.3       4 UNK         0.1400 
     53 CB          1.2697  -11.6044  -42.2286 C.3       4 UNK        -0.1800 
     54 N          -0.4111  -13.3696  -42.3377 N.am      4 UNK        -0.5000 
     55 C          -1.5809  -13.9860  -42.1373 C.2       3 UNK         0.5000 
     56 O          -2.3947  -13.6273  -41.2847 O.2       3 UNK        -0.5000 
     57 CA         -1.8582  -15.2352  -43.0043 C.3       3 UNK         0.1400 
     58 CB         -3.2680  -15.8140  -42.7896 C.3       3 UNK        -0.1800 
     59 N          -1.6407  -15.0557  -44.4423 N.am      3 UNK        -0.5000 
     60 C          -0.4588  -14.9366  -45.0618 C.2       2 UNK         0.5000 
     61 O           0.6118  -14.8417  -44.4637 O.2       2 UNK        -0.5000 
     62 CA         -0.4567  -14.9645  -46.5993 C.3       2 UNK         0.1400 
     63 CB          0.2270  -16.2460  -47.0938 C.3       2 UNK        -0.1800 
     64 N          -1.7979  -14.9233  -47.1794 N.am      2 UNK        -0.5000 
     65 C          -2.4286  -13.8125  -47.5791 C.2       1 UNK         0.5000 
     66 O          -2.0073  -12.6734  -47.3810 O.2       1 UNK        -0.5000 
     67 C           0.5056  -19.9401  -49.0645 C.2       11 UNK         0.5000 
     68 O           0.4567  -20.1044  -50.2827 O.2       11 UNK        -0.5000 
     69 N          -0.5702  -19.6738  -48.3071 N.am      12 UNK        -0.5000 
     70 CA         -1.9442  -19.6591  -48.8061 C.3       12 UNK         0.1400 
     71 CB         -2.7308  -18.5286  -48.1272 C.3       12 UNK        -0.1800 
     72 C          -2.6290  -21.0182  -48.5886 C.2       12 UNK         0.5000 
     73 O          -3.2927  -21.5119  -49.5021 O.2       12 UNK        -0.5000 
     74 N          -2.4023  -21.6098  -47.4069 N.am      13 UNK        -0.5000 
     75 CA         -2.8804  -22.9101  -46.9297 C.3       13 UNK         0.1400 
     76 CB         -2.3703  -24.0495  -47.8372 C.3       13 UNK        -0.1800 
     77 C          -4.4075  -22.9780  -46.7204 C.2       13 UNK         0.5000 
     78 O          -5.1324  -22.0119  -46.9757 O.2       13 UNK        -0.5000 
     79 N          -4.8685  -24.1344  -46.2239 N.am      14 UNK        -0.5000 
     80 CA         -6.2783  -24.4515  -45.9967 C.3       14 UNK         0.1400 
     81 CB         -6.3856  -25.8350  -45.3381 C.3       14 UNK        -0.1800 
     82 C          -7.0828  -24.4114  -47.3072 C.2       14 UNK         0.5000 
     83 O          -6.6113  -24.9208  -48.3265 O.2       14 UNK        -0.5000 
     84 N          -8.2591  -23.7710  -47.2589 N.am      15 UNK        -0.5000 
     85 CA         -9.1821  -23.5373  -48.3791 C.3       15 UNK         0.1400 
     86 CB         -9.8077  -24.8690  -48.8452 C.3       15 UNK        -0.1800 
     87 C          -8.5654  -22.7367  -49.5512 C.2       15 UNK         0.5000 
     88 O          -9.0767  -22.8104  -50.6696 O.2       15 UNK        -0.5000 
     89 N          -7.4772  -21.9972  -49.2763 N.am      16 UNK        -0.5000 
     90 CA         -6.6514  -21.2412  -50.2237 C.3       16 UNK         0.1400 
     91 CB         -7.4569  -20.0742  -50.8355 C.3       16 UNK        -0.1800 
     92 C          -5.9767  -22.1336  -51.2917 C.2       16 UNK         0.5000 
     93 O          -5.7168  -21.6670  -52.4016 O.2       16 UNK        -0.5000 
     94 N          -5.7082  -23.4039  -50.9517 N.am      17 UNK        -0.5000 
     95 CA         -5.1899  -24.4198  -51.8697 C.3       17 UNK         0.1400 
     96 CB         -5.1712  -25.7828  -51.1627 C.3       17 UNK        -0.1800 
     97 C          -3.8034  -24.0979  -52.4556 C.2       17 UNK         0.5000 
     98 O          -3.5868  -24.3178  -53.6482 O.2       17 UNK        -0.5000 
     99 N          -2.8956  -23.5688  -51.6245 N.am      18 UNK        -0.5000 
    100 CA        -1.5549  -23.1725  -52.0551 C.3       18 UNK         0.1400 
    101 CB        -0.5697  -23.2368  -50.8805 C.3       18 UNK        -0.1800 
    102 C         -1.5596  -21.7910  -52.7293 C.2       18 UNK         0.5000 
    103 O         -0.7742  -21.5849  -53.6535 O.2       18 UNK        -0.5000 
    104 N         -2.4791  -20.9032  -52.3164 N.am      19 UNK        -0.5000 
    105 CA        -2.7322  -19.6094  -52.9580 C.3       19 UNK         0.1400 
    106 CB        -3.7135  -18.7695  -52.1248 C.3       19 UNK        -0.1800 
    107 C         -3.2399  -19.7566  -54.4043 C.2       19 UNK         0.5000 
    108 O         -2.8139  -19.0047  -55.2804 O.2       19 UNK        -0.5000 
    109 N         -4.1257  -20.7357  -54.6302 N.am      20 UNK        -0.5000 
    110 CA        -4.6543  -21.0883  -55.9468 C.3       20 UNK         0.1400 
    111 CB        -5.8328  -22.0583  -55.7724 C.3       20 UNK        -0.1800 
    112 C         -3.5887  -21.6914  -56.8825 C.2       20 UNK         0.5000 
    113 O         -3.6283  -21.4349  -58.0865 O.2       20 UNK        -0.5000 
    114 N         -2.6663  -22.4825  -56.3181 N.am      21 UNK        -0.5000 
    115 CA        -1.5778  -23.1324  -57.0444 C.3       21 UNK         0.1400 
    116 CB        -1.0854  -24.3482  -56.2410 C.3       21 UNK        -0.1800 
    117 C         -0.4273  -22.1569  -57.3526 C.2       21 UNK         0.5000 
    118 O         -0.1190  -21.9241  -58.5218 O.2       21 UNK        -0.5000 
    119 N          0.1867  -21.6162  -56.2926 N.am      22 UNK        -0.5000 
    120 CA         1.3422  -20.7032  -56.3073 C.3       22 UNK         0.1400 
    121 C          2.6489  -21.2652  -56.9509 C.2       22 UNK         0.5000 
    122 N          2.8146  -22.5780  -57.0583 N.am      22 UNK        -0.7600 
    123 O          3.5403  -20.5120  -57.3335 O.2       22 UNK        -0.5000 
    124 C124        0.9593  -19.2725  -56.7918 C.3       23 UNK        -0.0398 
    125 S125        1.6141  -17.9764  -55.6827 S.3       23 UNK        -0.2404 
    126 C126        0.3641  -18.0932  -54.3664 C.3       23 UNK        -0.0205 
    127 H127       -4.3334  -13.9553  -45.4152 H         1 UNK         0.0600 
    128 H128       -5.8743  -14.6444  -44.9207 H         1 UNK         0.0600 
    129 H129       -5.8292  -13.4744  -46.2333 H         1 UNK         0.0600 
    130 H130       -4.3931  -16.0034  -48.5887 H         1 UNK         0.3000 
    131 H131       -4.3941  -13.1659  -48.1001 H         1 UNK         0.0600 
    132 H132       -3.0338  -13.0615  -50.1698 H         1 UNK         0.0800 
    133 H133       -4.4902  -13.9770  -50.3789 H         1 UNK         0.0800 
    134 H134       -1.1377  -13.8801  -51.6806 H         1 UNK         0.0800 
    135 H135       -0.6018  -14.1456  -50.0362 H         1 UNK         0.0800 
    136 H136       -1.1540  -16.1865  -53.1563 H         1 UNK         0.1150 
    137 H137        2.5974  -18.2302  -52.7939 H         1 UNK         0.1150 
    138 H138        1.4354  -15.3391  -49.8507 H         1 UNK         0.1150 
    139 H139        4.2913  -16.7663  -51.2106 H         1 UNK         0.0800 
    140 H140        3.5867  -16.3331  -49.6761 H         1 UNK         0.0800 
    141 H141        2.0857  -17.8940  -48.3692 H         1 UNK         0.0800 
    142 H142        3.4016  -18.7206  -47.5940 H         1 UNK         0.0800 
    143 H143        2.4091  -20.8772  -48.8491 H         1 UNK         0.0600 
    144 H144        1.8243  -19.8101  -46.2327 H         1 UNK         0.3000 
    145 H145        0.1964  -22.6848  -45.0272 H         1 UNK         0.0600 
    146 H146        2.0581  -23.0131  -43.4148 H         1 UNK         0.0600 
    147 H147        2.4968  -23.6671  -44.9851 H         1 UNK         0.0600 
    148 H148        3.1580  -22.1209  -44.4655 H         1 UNK         0.0600 
    149 H149        1.4231  -20.5950  -43.5725 H         1 UNK         0.3000 
    150 H150       -0.7618  -17.9316  -44.2398 H         1 UNK         0.0600 
    151 H151       -2.2102  -19.2318  -42.7112 H         1 UNK         0.0600 
    152 H152       -1.2621  -18.0947  -41.7685 H         1 UNK         0.0600 
    153 H153       -0.8135  -19.7937  -41.8039 H         1 UNK         0.0600 
    154 H154        1.0779  -17.9857  -42.2168 H         1 UNK         0.3000 
    155 H155        4.1931  -17.7466  -43.9017 H         1 UNK         0.0600 
    156 H156        4.2520  -15.5984  -42.6393 H         1 UNK         0.0600 
    157 H157        2.4934  -15.6069  -42.5157 H         1 UNK         0.0600 
    158 H158        3.2667  -15.4611  -44.0869 H         1 UNK         0.0600 
    159 H159        3.2352  -17.5559  -41.1608 H         1 UNK         0.3000 
    160 H160        3.9273  -20.9274  -40.3086 H         1 UNK         0.0600 
    161 H161        5.5519  -18.4072  -39.6610 H         1 UNK         0.0600 
    162 H162        6.2060  -19.9114  -40.2978 H         1 UNK         0.0600 
    163 H163        5.4941  -19.8804  -38.6926 H         1 UNK         0.0600 
    164 H164        3.2329  -18.5302  -38.8376 H         1 UNK         0.3000 
    165 H165       -0.2763  -18.8811  -39.1496 H         1 UNK         0.0600 
    166 H166       -0.2171  -18.9957  -36.6762 H         1 UNK         0.0600 
    167 H167        0.2554  -20.5431  -37.3585 H         1 UNK         0.0600 
    168 H168        1.4835  -19.4642  -36.7072 H         1 UNK         0.0600 
    169 H169        1.2460  -17.1233  -37.5435 H         1 UNK         0.3000 
    170 H170        0.9978  -14.8244  -38.2076 H         1 UNK         0.0600 
    171 H171        3.3930  -15.6128  -38.1333 H         1 UNK         0.0600 
    172 H172        3.5759  -15.2603  -39.8489 H         1 UNK         0.0600 
    173 H173        3.3155  -13.9524  -38.6979 H         1 UNK         0.0600 
    174 H174        0.9103  -14.7659  -41.0806 H         1 UNK         0.3000 
    175 H175       -0.6080  -11.6356  -41.1826 H         1 UNK         0.0600 
    176 H176        2.0702  -12.2774  -42.5391 H         1 UNK         0.0600 
    177 H177        0.8696  -11.1249  -43.1221 H         1 UNK         0.0600 
    178 H178        1.7163  -10.8231  -41.6123 H         1 UNK         0.0600 
    179 H179        0.1837  -13.7365  -43.0781 H         1 UNK         0.3000 
    180 H180       -1.1431  -15.9840  -42.6625 H         1 UNK         0.0600 
    181 H181       -3.4137  -16.7274  -43.3669 H         1 UNK         0.0600 
    182 H182       -4.0423  -15.1039  -43.0808 H         1 UNK         0.0600 
    183 H183       -3.4321  -16.0683  -41.7417 H         1 UNK         0.0600 
    184 H184       -2.4634  -15.0913  -45.0227 H         1 UNK         0.3000 
    185 H185        0.1229  -14.1083  -46.9508 H         1 UNK         0.0600 
    186 H186        1.2905  -16.2259  -46.8549 H         1 UNK         0.0600 
    187 H187       -0.1986  -17.1384  -46.6335 H         1 UNK         0.0600 
    188 H188        0.1344  -16.3577  -48.1730 H         1 UNK         0.0600 
    189 H189       -2.2285  -15.8121  -47.3863 H         1 UNK         0.3000 
    190 H190       -0.4571  -19.6207  -47.3027 H         1 UNK         0.3000 
    191 H191       -1.9307  -19.4652  -49.8772 H         1 UNK         0.0600 
    192 H192       -3.7620  -18.5037  -48.4822 H         1 UNK         0.0600 
    193 H193       -2.2850  -17.5615  -48.3530 H         1 UNK         0.0600 
    194 H194       -2.7592  -18.6434  -47.0431 H         1 UNK         0.0600 
    195 H195       -1.8964  -21.0706  -46.7077 H         1 UNK         0.3000 
    196 H196       -2.4276  -23.0394  -45.9457 H         1 UNK         0.0600 
    197 H197       -2.8766  -24.0583  -48.8017 H         1 UNK         0.0600 
    198 H198       -1.2993  -23.9579  -48.0171 H         1 UNK         0.0600 
    199 H199       -2.5312  -25.0259  -47.3801 H         1 UNK         0.0600 
    200 H200       -4.2156  -24.8851  -46.0564 H         1 UNK         0.3000 
    201 H201       -6.6804  -23.7066  -45.3068 H         1 UNK         0.0600 
    202 H202       -5.9737  -26.6175  -45.9771 H         1 UNK         0.0600 
    203 H203       -7.4264  -26.0912  -45.1359 H         1 UNK         0.0600 
    204 H204       -5.8541  -25.8629  -44.3867 H         1 UNK         0.0600 
    205 H205       -8.5472  -23.3695  -46.3770 H         1 UNK         0.3000 
    206 H206       -9.9871  -22.9157  -47.9847 H         1 UNK         0.0600 
    207 H207      -10.2411  -25.4159  -48.0079 H         1 UNK         0.0600 
    208 H208      -10.6081  -24.6967  -49.5656 H         1 UNK         0.0600 
    209 H209       -9.0720  -25.5160  -49.3240 H         1 UNK         0.0600 
    210 H210       -7.1178  -22.0245  -48.3304 H         1 UNK         0.3000 
    211 H211       -5.8426  -20.8060  -49.6363 H         1 UNK         0.0600 
    212 H212       -6.8193  -19.4116  -51.4191 H         1 UNK         0.0600 
    213 H213       -7.9228  -19.4679  -50.0588 H         1 UNK         0.0600 
    214 H214       -8.2437  -20.4290  -51.5015 H         1 UNK         0.0600 
    215 H215       -5.9612  -23.7234  -50.0236 H         1 UNK         0.3000 
    216 H216       -5.8872  -24.4852  -52.7075 H         1 UNK         0.0600 
    217 H217       -4.5411  -25.7652  -50.2724 H         1 UNK         0.0600 
    218 H218       -4.7893  -26.5630  -51.8225 H         1 UNK         0.0600 
    219 H219       -6.1743  -26.0801  -50.8560 H         1 UNK         0.0600 
    220 H220       -3.1722  -23.3116  -50.6846 H         1 UNK         0.3000 
    221 H221       -1.2016  -23.8908  -52.7981 H         1 UNK         0.0600 
    222 H222        0.4364  -22.9663  -51.2033 H         1 UNK         0.0600 
    223 H223       -0.5183  -24.2424  -50.4635 H         1 UNK         0.0600 
    224 H224       -0.8421  -22.5557  -50.0785 H         1 UNK         0.0600 
    225 H225       -3.0725  -21.1578  -51.5356 H         1 UNK         0.3000 
    226 H226       -1.7891  -19.0667  -52.9892 H         1 UNK         0.0600 
    227 H227       -3.2444  -18.3747  -51.2272 H         1 UNK         0.0600 
    228 H228       -4.0718  -17.9064  -52.6878 H         1 UNK         0.0600 
    229 H229       -4.5829  -19.3477  -51.8221 H         1 UNK         0.0600 
    230 H230       -4.4971  -21.2500  -53.8357 H         1 UNK         0.3000 
    231 H231       -5.0302  -20.1763  -56.4151 H         1 UNK         0.0600 
    232 H232       -5.5250  -22.9794  -55.2759 H         1 UNK         0.0600 
    233 H233       -6.2624  -22.3308  -56.7372 H         1 UNK         0.0600 
    234 H234       -6.6277  -21.6088  -55.1770 H         1 UNK         0.0600 
    235 H235       -2.7183  -22.6496  -55.3229 H         1 UNK         0.3000 
    236 H236       -1.9649  -23.5023  -57.9964 H         1 UNK         0.0600 
    237 H237       -1.8865  -25.0745  -56.1010 H         1 UNK         0.0600 
    238 H238       -0.2729  -24.8573  -56.7607 H         1 UNK         0.0600 
    239 H239       -0.7203  -24.0662  -55.2532 H         1 UNK         0.0600 
    240 H240       -0.1777  -21.8153  -55.3630 H         1 UNK         0.3000 
    241 H241        1.6059  -20.6410  -55.2515 H         1 UNK         0.0600 
    242 H242        3.6628  -22.9390  -57.4664 H         1 UNK         0.3800 
    243 H243        2.1019  -23.2135  -56.7383 H         1 UNK         0.3800 
    244 H244       -0.1250  -19.1543  -56.8348 H         1 UNK         0.0800 
    245 H245        1.3057  -19.0865  -57.8097 H         1 UNK         0.0800 
    246 H246       -0.5921  -17.7747  -54.7813 H         1 UNK         0.0800 
    247 H247        0.2486  -19.1356  -54.0710 H         1 UNK         0.0800 
@<TRIPOS>BOND
     1    1    2 1    
     2    1  127 1    
     3    1  128 1    
     4    1  129 1    
     5    2    3 2    
     6    2    4 am   BACKBONE|DICT|INTERRES
     7    4    5 1    
     8    4  130 1    
     9    5    6 1    
    10    5   65 1    
    11    5  131 1    
    12    6    7 1    
    13    6  132 1    
    14    6  133 1    
    15    7    8 1    
    16    8    9 1    
    17    8  134 1    
    18    8  135 1    
    19    9   10 ar   
    20    9   14 ar   
    21   10   11 ar   
    22   10  136 1    
    23   11   12 ar   
    24   11  126 1    
    25   12   13 ar   
    26   12  137 1    
    27   13   14 ar   
    28   13   15 1    
    29   14  138 1    
    30   15   16 1    
    31   15  139 1    
    32   15  140 1    
    33   16   17 1    
    34   17   18 1    
    35   17  141 1    
    36   17  142 1    
    37   18   19 1    
    38   18   67 1    
    39   18  143 1    
    40   19   20 am   BACKBONE|DICT|INTERRES
    41   19  144 1    
    42   20   21 2    
    43   20   22 1    
    44   22   23 1    
    45   22   24 1    
    46   22  145 1    
    47   23  146 1    
    48   23  147 1    
    49   23  148 1    
    50   24   25 am   BACKBONE|DICT|INTERRES
    51   24  149 1    
    52   25   26 2    
    53   25   27 1    
    54   27   28 1    
    55   27   29 1    
    56   27  150 1    
    57   28  151 1    
    58   28  152 1    
    59   28  153 1    
    60   29   30 am   BACKBONE|DICT|INTERRES
    61   29  154 1    
    62   30   31 2    
    63   30   32 1    
    64   32   33 1    
    65   32   34 1    
    66   32  155 1    
    67   33  156 1    
    68   33  157 1    
    69   33  158 1    
    70   34   35 am   BACKBONE|DICT|INTERRES
    71   34  159 1    
    72   35   36 2    
    73   35   37 1    
    74   37   38 1    
    75   37   39 1    
    76   37  160 1    
    77   38  161 1    
    78   38  162 1    
    79   38  163 1    
    80   39   40 am   BACKBONE|DICT|INTERRES
    81   39  164 1    
    82   40   41 2    
    83   40   42 1    
    84   42   43 1    
    85   42   44 1    
    86   42  165 1    
    87   43  166 1    
    88   43  167 1    
    89   43  168 1    
    90   44   45 am   BACKBONE|DICT|INTERRES
    91   44  169 1    
    92   45   46 2    
    93   45   47 1    
    94   47   48 1    
    95   47   49 1    
    96   47  170 1    
    97   48  171 1    
    98   48  172 1    
    99   48  173 1    
   100   49   50 am   BACKBONE|DICT|INTERRES
   101   49  174 1    
   102   50   51 2    
   103   50   52 1    
   104   52   53 1    
   105   52   54 1    
   106   52  175 1    
   107   53  176 1    
   108   53  177 1    
   109   53  178 1    
   110   54   55 am   BACKBONE|DICT|INTERRES
   111   54  179 1    
   112   55   56 2    
   113   55   57 1    
   114   57   58 1    
   115   57   59 1    
   116   57  180 1    
   117   58  181 1    
   118   58  182 1    
   119   58  183 1    
   120   59   60 am   BACKBONE|DICT|INTERRES
   121   59  184 1    
   122   60   61 2    
   123   60   62 1    
   124   62   63 1    
   125   62   64 1    
   126   62  185 1    
   127   63  186 1    
   128   63  187 1    
   129   63  188 1    
   130   64   65 am   BACKBONE|DICT|INTERRES
   131   64  189 1    
   132   65   66 2    
   133   67   68 2    
   134   67   69 am   BACKBONE|DICT|INTERRES
   135   69   70 1    
   136   69  190 1    
   137   70   71 1    
   138   70   72 1    
   139   70  191 1    
   140   71  192 1    
   141   71  193 1    
   142   71  194 1    
   143   72   73 2    
   144   72   74 am   BACKBONE|DICT|INTERRES
   145   74   75 1    
   146   74  195 1    
   147   75   76 1    
   148   75   77 1    
   149   75  196 1    
   150   76  197 1    
   151   76  198 1    
   152   76  199 1    
   153   77   78 2    
   154   77   79 am   BACKBONE|DICT|INTERRES
   155   79   80 1    
   156   79  200 1    
   157   80   81 1    
   158   80   82 1    
   159   80  201 1    
   160   81  202 1    
   161   81  203 1    
   162   81  204 1    
   163   82   83 2    
   164   82   84 am   BACKBONE|DICT|INTERRES
   165   84   85 1    
   166   84  205 1    
   167   85   86 1    
   168   85   87 1    
   169   85  206 1    
   170   86  207 1    
   171   86  208 1    
   172   86  209 1    
   173   87   88 2    
   174   87   89 am   BACKBONE|DICT|INTERRES
   175   89   90 1    
   176   89  210 1    
   177   90   91 1    
   178   90   92 1    
   179   90  211 1    
   180   91  212 1    
   181   91  213 1    
   182   91  214 1    
   183   92   93 2    
   184   92   94 am   BACKBONE|DICT|INTERRES
   185   94   95 1    
   186   94  215 1    
   187   95   96 1    
   188   95   97 1    
   189   95  216 1    
   190   96  217 1    
   191   96  218 1    
   192   96  219 1    
   193   97   98 2    
   194   97   99 am   BACKBONE|DICT|INTERRES
   195   99  100 1    
   196   99  220 1    
   197  100  101 1    
   198  100  102 1    
   199  100  221 1    
   200  101  222 1    
   201  101  223 1    
   202  101  224 1    
   203  102  103 2    
   204  102  104 am   BACKBONE|DICT|INTERRES
   205  104  105 1    
   206  104  225 1    
   207  105  106 1    
   208  105  107 1    
   209  105  226 1    
   210  106  227 1    
   211  106  228 1    
   212  106  229 1    
   213  107  108 2    
   214  107  109 am   BACKBONE|DICT|INTERRES
   215  109  110 1    
   216  109  230 1    
   217  110  111 1    
   218  110  112 1    
   219  110  231 1    
   220  111  232 1    
   221  111  233 1    
   222  111  234 1    
   223  112  113 2    
   224  112  114 am   BACKBONE|DICT|INTERRES
   225  114  115 1    
   226  114  235 1    
   227  115  116 1    
   228  115  117 1    
   229  115  236 1    
   230  116  237 1    
   231  116  238 1    
   232  116  239 1    
   233  117  118 2    
   234  117  119 am   BACKBONE|DICT|INTERRES
   235  119  120 1    
   236  119  240 1    
   237  120  121 1    
   238  120  124 1    
   239  120  241 1    
   240  121  122 am   BACKBONE|DICT|INTERRES
   241  121  123 2    
   242  122  242 1    
   243  122  243 1    
   244  124  125 1    
   245  124  244 1    
   246  124  245 1    
   247  125  126 1    
   248  126  246 1    
   249  126  247 1    
@<TRIPOS>SUBSTRUCTURE
     1 UNK         1 GROUP             0       ****    0 ROOT    
