@<TRIPOS>MOLECULE
3R540
247   249    1
SMALL
USER_CHARGES


@<TRIPOS>ATOM
      1 CA         -1.7861  -12.5001  -51.7003 C.3       0 UNK        -0.1800 
      2 C          -1.0182  -12.0721  -50.4592 C.2       0 UNK         0.5000 
      3 O          -0.6481  -10.9043  -50.3334 O.2       0 UNK        -0.5000 
      4 N          -0.7836  -13.0106  -49.5344 N.am      1 UNK        -0.5000 
      5 CA         -0.0179  -12.8288  -48.2946 C.3       1 UNK         0.1400 
      6 C6          0.5684  -14.1671  -47.7740 C.3       23 UNK        -0.0398 
      7 S7          1.6785  -15.0032  -48.9541 S.3       23 UNK        -0.2404 
      8 C8          0.5710  -16.2456  -49.6895 C.3       23 UNK        -0.0205 
      9 C9          1.3607  -17.4003  -50.2795 C.ar      23 UNK        -0.0193 
     10 C10         2.0429  -17.2426  -51.4889 C.ar      23 UNK        -0.1150 
     11 C11         2.8052  -18.2899  -52.0139 C.ar      23 UNK        -0.0193 
     12 C12         2.8685  -19.5053  -51.3264 C.ar      23 UNK        -0.1150 
     13 C13         2.1744  -19.6809  -50.1262 C.ar      23 UNK        -0.0193 
     14 C14         1.4227  -18.6241  -49.6081 C.ar      23 UNK        -0.1150 
     15 C15         2.2578  -21.0069  -49.3878 C.3       23 UNK        -0.0205 
     16 S16         1.0093  -22.1818  -49.9910 S.3       23 UNK        -0.2404 
     17 C17        -0.4019  -21.8586  -48.8801 C.3       23 UNK        -0.0398 
     18 CA         -0.5272  -22.9692  -47.8031 C.3       11 UNK         0.1400 
     19 N          -0.0619  -22.5283  -46.4842 N.am      11 UNK        -0.5000 
     20 C           0.1996  -23.3612  -45.4670 C.2       10 UNK         0.5000 
     21 O           0.1111  -24.5853  -45.5508 O.2       10 UNK        -0.5000 
     22 CA          0.5563  -22.7227  -44.1137 C.3       10 UNK         0.1400 
     23 CB          2.0227  -22.2672  -44.0866 C.3       10 UNK        -0.1800 
     24 N          -0.3286  -21.6053  -43.7808 N.am      10 UNK        -0.5000 
     25 C          -1.6457  -21.7323  -43.5632 C.2       9 UNK         0.5000 
     26 O          -2.2290  -22.8163  -43.5557 O.2       9 UNK        -0.5000 
     27 CA         -2.4569  -20.4381  -43.3633 C.3       9 UNK         0.1400 
     28 CB         -2.3808  -19.9688  -41.9034 C.3       9 UNK        -0.1800 
     29 N          -2.0350  -19.3532  -44.2505 N.am      9 UNK        -0.5000 
     30 C          -2.1172  -19.3802  -45.5883 C.2       8 UNK         0.5000 
     31 O          -2.5965  -20.3121  -46.2307 O.2       8 UNK        -0.5000 
     32 CA         -1.4950  -18.1956  -46.3462 C.3       8 UNK         0.1400 
     33 CB         -2.4496  -16.9934  -46.3790 C.3       8 UNK        -0.1800 
     34 N          -0.1993  -17.8060  -45.7893 N.am      8 UNK        -0.5000 
     35 C           0.8777  -18.6059  -45.7750 C.2       7 UNK         0.5000 
     36 O           0.9006  -19.7267  -46.2837 O.2       7 UNK        -0.5000 
     37 CA          2.1120  -18.0885  -45.0216 C.3       7 UNK         0.1400 
     38 CB          2.9132  -17.1131  -45.8963 C.3       7 UNK        -0.1800 
     39 N           1.7394  -17.4462  -43.7601 N.am      7 UNK        -0.5000 
     40 C           1.2980  -18.1171  -42.6845 C.2       6 UNK         0.5000 
     41 O           1.2071  -19.3433  -42.6428 O.2       6 UNK        -0.5000 
     42 CA          0.8436  -17.2916  -41.4633 C.3       6 UNK         0.1400 
     43 CB          2.0276  -17.0333  -40.5200 C.3       6 UNK        -0.1800 
     44 N           0.2273  -16.0141  -41.8205 N.am      6 UNK        -0.5000 
     45 C          -0.8796  -15.8745  -42.5628 C.2       5 UNK         0.5000 
     46 O          -1.5595  -16.8240  -42.9508 O.2       5 UNK        -0.5000 
     47 CA         -1.2639  -14.4440  -42.9938 C.3       5 UNK         0.1400 
     48 CB         -2.3799  -13.8932  -42.0946 C.3       5 UNK        -0.1800 
     49 N          -0.1552  -13.4812  -43.0251 N.am      5 UNK        -0.5000 
     50 C           0.9774  -13.6159  -43.7295 C.2       4 UNK         0.5000 
     51 O           1.2685  -14.6302  -44.3650 O.2       4 UNK        -0.5000 
     52 CA          1.9170  -12.4029  -43.7316 C.3       4 UNK         0.1400 
     53 CB          3.1826  -12.6181  -44.5847 C.3       4 UNK        -0.1800 
     54 N           1.1896  -11.2315  -44.2152 N.am      4 UNK        -0.5000 
     55 C           1.4094   -9.9719  -43.8154 C.2       3 UNK         0.5000 
     56 O           2.2130   -9.6780  -42.9291 O.2       3 UNK        -0.5000 
     57 CA          0.6350   -8.8413  -44.5261 C.3       3 UNK         0.1400 
     58 CB          1.6086   -7.8329  -45.1596 C.3       3 UNK        -0.1800 
     59 N          -0.2585   -9.3336  -45.5760 N.am      3 UNK        -0.5000 
     60 C          -1.5603   -9.6049  -45.4202 C.2       2 UNK         0.5000 
     61 O          -2.1717   -9.4541  -44.3622 O.2       2 UNK        -0.5000 
     62 CA         -2.2967  -10.1615  -46.6557 C.3       2 UNK         0.1400 
     63 CB         -2.9316   -9.0210  -47.4653 C.3       2 UNK        -0.1800 
     64 N          -1.4404  -10.9574  -47.5420 N.am      2 UNK        -0.5000 
     65 C          -0.8565  -12.1149  -47.2075 C.2       1 UNK         0.5000 
     66 O          -0.9659  -12.6115  -46.0871 O.2       1 UNK        -0.5000 
     67 C          -1.9428  -23.5865  -47.7507 C.2       11 UNK         0.5000 
     68 O          -2.1955  -24.5673  -48.4525 O.2       11 UNK        -0.5000 
     69 N          -2.8235  -23.0518  -46.8922 N.am      12 UNK        -0.5000 
     70 CA         -4.1517  -23.6031  -46.6152 C.3       12 UNK         0.1400 
     71 CB         -4.9532  -22.6427  -45.7223 C.3       12 UNK        -0.1800 
     72 C          -4.0951  -25.0051  -45.9812 C.2       12 UNK         0.5000 
     73 O          -4.9012  -25.8634  -46.3367 O.2       12 UNK        -0.5000 
     74 N          -3.1314  -25.2244  -45.0787 N.am      13 UNK        -0.5000 
     75 CA         -2.8642  -26.5281  -44.4755 C.3       13 UNK         0.1400 
     76 CB         -1.9774  -26.3454  -43.2340 C.3       13 UNK        -0.1800 
     77 C          -2.2246  -27.5147  -45.4713 C.2       13 UNK         0.5000 
     78 O          -2.6133  -28.6831  -45.5005 O.2       13 UNK        -0.5000 
     79 N          -1.2495  -27.0333  -46.2540 N.am      14 UNK        -0.5000 
     80 CA         -0.4520  -27.8447  -47.1713 C.3       14 UNK         0.1400 
     81 CB          0.8426  -27.0947  -47.5233 C.3       14 UNK        -0.1800 
     82 C          -1.1965  -28.2574  -48.4530 C.2       14 UNK         0.5000 
     83 O          -1.1494  -29.4332  -48.8181 O.2       14 UNK        -0.5000 
     84 N          -1.8236  -27.2889  -49.1339 N.am      15 UNK        -0.5000 
     85 CA         -2.3462  -27.4499  -50.4949 C.3       15 UNK         0.1400 
     86 CB         -1.4630  -26.6318  -51.4508 C.3       15 UNK        -0.1800 
     87 C          -3.8206  -27.0415  -50.6486 C.2       15 UNK         0.5000 
     88 O          -4.4250  -27.3904  -51.6640 O.2       15 UNK        -0.5000 
     89 N          -4.3749  -26.3100  -49.6713 N.am      16 UNK        -0.5000 
     90 CA         -5.7479  -25.7902  -49.5926 C.3       16 UNK         0.1400 
     91 CB         -6.7992  -26.9167  -49.6368 C.3       16 UNK        -0.1800 
     92 C          -6.0513  -24.6807  -50.6145 C.2       16 UNK         0.5000 
     93 O          -6.3669  -23.5600  -50.2170 O.2       16 UNK        -0.5000 
     94 N          -5.9299  -24.9964  -51.9086 N.am      17 UNK        -0.5000 
     95 CA         -6.2174  -24.0988  -53.0306 C.3       17 UNK         0.1400 
     96 CB         -6.2324  -24.9213  -54.3279 C.3       17 UNK        -0.1800 
     97 C          -5.2337  -22.9185  -53.1533 C.2       17 UNK         0.5000 
     98 O          -5.5853  -21.8946  -53.7386 O.2       17 UNK        -0.5000 
     99 N          -4.0252  -23.0803  -52.5996 N.am      18 UNK        -0.5000 
    100 CA        -2.9484  -22.0915  -52.6319 C.3       18 UNK         0.1400 
    101 CB        -1.6105  -22.8248  -52.4606 C.3       18 UNK        -0.1800 
    102 C         -3.0872  -20.9769  -51.5765 C.2       18 UNK         0.5000 
    103 O         -2.2789  -20.0459  -51.5958 O.2       18 UNK        -0.5000 
    104 N         -4.0672  -21.0916  -50.6662 N.am      19 UNK        -0.5000 
    105 CA        -4.3477  -20.1702  -49.5608 C.3       19 UNK         0.1400 
    106 CB        -5.5929  -20.6634  -48.8095 C.3       19 UNK        -0.1800 
    107 C         -4.5324  -18.7132  -50.0289 C.2       19 UNK         0.5000 
    108 O         -5.5949  -18.3664  -50.5473 O.2       19 UNK        -0.5000 
    109 N         -3.4674  -17.9124  -49.8743 N.am      20 UNK        -0.5000 
    110 CA        -3.3262  -16.5282  -50.3437 C.3       20 UNK         0.1400 
    111 CB        -4.2933  -15.5835  -49.5995 C.3       20 UNK        -0.1800 
    112 C         -3.4073  -16.3848  -51.8814 C.2       20 UNK         0.5000 
    113 O         -3.7798  -15.3197  -52.3750 O.2       20 UNK        -0.5000 
    114 N         -3.0516  -17.4525  -52.6071 N.am      21 UNK        -0.5000 
    115 CA        -3.1081  -17.5326  -54.0672 C.3       21 UNK         0.1400 
    116 CB        -4.3030  -18.4113  -54.4716 C.3       21 UNK        -0.1800 
    117 C         -1.8065  -18.0744  -54.6828 C.2       21 UNK         0.5000 
    118 O         -1.5398  -17.7795  -55.8488 O.2       21 UNK        -0.5000 
    119 N         -1.0187  -18.8372  -53.9098 N.am      22 UNK        -0.5000 
    120 CA         0.1939  -19.5450  -54.3544 C.3       22 UNK         0.1400 
    121 C         -0.1047  -20.7402  -55.3166 C.2       22 UNK         0.5000 
    122 N          0.9170  -21.3922  -55.8530 N.am      22 UNK        -0.7600 
    123 O         -1.2496  -21.1116  -55.5640 O.2       22 UNK        -0.5000 
    124 C124        1.2839  -18.5698  -54.8947 C.3       23 UNK        -0.0398 
    125 S125        2.9875  -19.1802  -54.6442 S.3       23 UNK        -0.2404 
    126 C126        3.5846  -18.0996  -53.3068 C.3       23 UNK        -0.0205 
    127 H127       -2.8341  -12.2136  -51.6137 H         1 UNK         0.0600 
    128 H128       -1.7342  -13.5785  -51.8482 H         1 UNK         0.0600 
    129 H129       -1.3710  -12.0205  -52.5867 H         1 UNK         0.0600 
    130 H130       -1.1490  -13.9376  -49.6810 H         1 UNK         0.3000 
    131 H131        0.8266  -12.1709  -48.5112 H         1 UNK         0.0600 
    132 H132        1.1659  -13.9811  -46.8817 H         1 UNK         0.0800 
    133 H133       -0.2228  -14.8476  -47.4607 H         1 UNK         0.0800 
    134 H134       -0.0246  -15.7760  -50.4727 H         1 UNK         0.0800 
    135 H135       -0.1240  -16.6193  -48.9367 H         1 UNK         0.0800 
    136 H136        1.9973  -16.2946  -52.0065 H         1 UNK         0.1150 
    137 H137        3.4575  -20.3173  -51.7297 H         1 UNK         0.1150 
    138 H138        0.8933  -18.7520  -48.6772 H         1 UNK         0.1150 
    139 H139        3.2462  -21.4437  -49.5373 H         1 UNK         0.0800 
    140 H140        2.1549  -20.8630  -48.3118 H         1 UNK         0.0800 
    141 H141       -1.2884  -21.8053  -49.5109 H         1 UNK         0.0800 
    142 H142       -0.3156  -20.8689  -48.4316 H         1 UNK         0.0800 
    143 H143        0.1208  -23.8006  -48.0878 H         1 UNK         0.0600 
    144 H144        0.0692  -21.5305  -46.3464 H         1 UNK         0.3000 
    145 H145        0.4293  -23.4876  -43.3447 H         1 UNK         0.0600 
    146 H146        2.2966  -21.8813  -43.1046 H         1 UNK         0.0600 
    147 H147        2.6924  -23.0994  -44.3067 H         1 UNK         0.0600 
    148 H148        2.2205  -21.4860  -44.8198 H         1 UNK         0.0600 
    149 H149        0.0999  -20.6892  -43.7057 H         1 UNK         0.3000 
    150 H150       -3.5005  -20.6620  -43.5920 H         1 UNK         0.0600 
    151 H151       -2.7421  -20.7433  -41.2257 H         1 UNK         0.0600 
    152 H152       -2.9932  -19.0816  -41.7412 H         1 UNK         0.0600 
    153 H153       -1.3589  -19.7282  -41.6114 H         1 UNK         0.0600 
    154 H154       -1.6750  -18.5141  -43.8030 H         1 UNK         0.3000 
    155 H155       -1.3298  -18.5195  -47.3756 H         1 UNK         0.0600 
    156 H156       -2.6103  -16.5727  -45.3867 H         1 UNK         0.0600 
    157 H157       -2.0696  -16.2010  -47.0218 H         1 UNK         0.0600 
    158 H158       -3.4254  -17.2849  -46.7697 H         1 UNK         0.0600 
    159 H159       -0.1463  -16.9168  -45.3136 H         1 UNK         0.3000 
    160 H160        2.7525  -18.9443  -44.7979 H         1 UNK         0.0600 
    161 H161        3.2333  -17.5932  -46.8222 H         1 UNK         0.0600 
    162 H162        2.3245  -16.2387  -46.1723 H         1 UNK         0.0600 
    163 H163        3.8084  -16.7645  -45.3817 H         1 UNK         0.0600 
    164 H164        1.7245  -16.4304  -43.7572 H         1 UNK         0.3000 
    165 H165        0.0991  -17.8800  -40.9239 H         1 UNK         0.0600 
    166 H166        1.7052  -16.5232  -39.6120 H         1 UNK         0.0600 
    167 H167        2.4958  -17.9705  -40.2160 H         1 UNK         0.0600 
    168 H168        2.7953  -16.4216  -40.9957 H         1 UNK         0.0600 
    169 H169        0.7248  -15.1787  -41.5511 H         1 UNK         0.3000 
    170 H170       -1.6527  -14.5148  -44.0117 H         1 UNK         0.0600 
    171 H171       -3.2343  -14.5712  -42.0709 H         1 UNK         0.0600 
    172 H172       -2.0384  -13.7580  -41.0677 H         1 UNK         0.0600 
    173 H173       -2.7413  -12.9314  -42.4595 H         1 UNK         0.0600 
    174 H174       -0.3124  -12.6082  -42.5428 H         1 UNK         0.3000 
    175 H175        2.2236  -12.2494  -42.6949 H         1 UNK         0.0600 
    176 H176        2.9382  -12.7626  -45.6375 H         1 UNK         0.0600 
    177 H177        3.8566  -11.7645  -44.5126 H         1 UNK         0.0600 
    178 H178        3.7364  -13.4965  -44.2510 H         1 UNK         0.0600 
    179 H179        0.4607  -11.4177  -44.8939 H         1 UNK         0.3000 
    180 H180        0.0564   -8.3171  -43.7628 H         1 UNK         0.0600 
    181 H181        2.2424   -8.3034  -45.9123 H         1 UNK         0.0600 
    182 H182        2.2640   -7.3915  -44.4076 H         1 UNK         0.0600 
    183 H183        1.0711   -7.0136  -45.6376 H         1 UNK         0.0600 
    184 H184        0.1554   -9.4890  -46.4838 H         1 UNK         0.3000 
    185 H185       -3.0970  -10.8106  -46.2942 H         1 UNK         0.0600 
    186 H186       -3.5259   -9.4086  -48.2930 H         1 UNK         0.0600 
    187 H187       -3.5960   -8.4211  -46.8419 H         1 UNK         0.0600 
    188 H188       -2.1757   -8.3524  -47.8791 H         1 UNK         0.0600 
    189 H189       -1.3037  -10.6179  -48.4894 H         1 UNK         0.3000 
    190 H190       -2.5780  -22.1934  -46.4064 H         1 UNK         0.3000 
    191 H191       -4.6686  -23.6859  -47.5711 H         1 UNK         0.0600 
    192 H192       -4.5550  -22.6015  -44.7097 H         1 UNK         0.0600 
    193 H193       -5.9924  -22.9644  -45.6474 H         1 UNK         0.0600 
    194 H194       -4.9551  -21.6280  -46.1175 H         1 UNK         0.0600 
    195 H195       -2.5458  -24.4492  -44.7867 H         1 UNK         0.3000 
    196 H196       -3.8144  -26.9548  -44.1470 H         1 UNK         0.0600 
    197 H197       -1.7880  -27.3020  -42.7457 H         1 UNK         0.0600 
    198 H198       -2.4557  -25.6943  -42.5019 H         1 UNK         0.0600 
    199 H199       -1.0110  -25.9083  -43.4860 H         1 UNK         0.0600 
    200 H200       -0.9464  -26.0728  -46.1174 H         1 UNK         0.3000 
    201 H201       -0.1671  -28.7603  -46.6483 H         1 UNK         0.0600 
    202 H202        1.4281  -26.8786  -46.6295 H         1 UNK         0.0600 
    203 H203        0.6374  -26.1488  -48.0248 H         1 UNK         0.0600 
    204 H204        1.4713  -27.6888  -48.1876 H         1 UNK         0.0600 
    205 H205       -1.8274  -26.3420  -48.7614 H         1 UNK         0.3000 
    206 H206       -2.2944  -28.4952  -50.8057 H         1 UNK         0.0600 
    207 H207       -0.4396  -27.0072  -51.4562 H         1 UNK         0.0600 
    208 H208       -1.8317  -26.6805  -52.4764 H         1 UNK         0.0600 
    209 H209       -1.4297  -25.5830  -51.1590 H         1 UNK         0.0600 
    210 H210       -3.7706  -26.0278  -48.9103 H         1 UNK         0.3000 
    211 H211       -5.8429  -25.3255  -48.6144 H         1 UNK         0.0600 
    212 H212       -6.8134  -27.4382  -50.5937 H         1 UNK         0.0600 
    213 H213       -7.8005  -26.5166  -49.4729 H         1 UNK         0.0600 
    214 H214       -6.6136  -27.6543  -48.8559 H         1 UNK         0.0600 
    215 H215       -5.6023  -25.9324  -52.1315 H         1 UNK         0.3000 
    216 H216       -7.2138  -23.6785  -52.8792 H         1 UNK         0.0600 
    217 H217       -6.4678  -24.2930  -55.1880 H         1 UNK         0.0600 
    218 H218       -6.9848  -25.7091  -54.2867 H         1 UNK         0.0600 
    219 H219       -5.2656  -25.3898  -54.5171 H         1 UNK         0.0600 
    220 H220       -3.8286  -23.9549  -52.1365 H         1 UNK         0.3000 
    221 H221       -2.9495  -21.6079  -53.6099 H         1 UNK         0.0600 
    222 H222       -1.5393  -23.3018  -51.4835 H         1 UNK         0.0600 
    223 H223       -1.4767  -23.5913  -53.2241 H         1 UNK         0.0600 
    224 H224       -0.7711  -22.1343  -52.5487 H         1 UNK         0.0600 
    225 H225       -4.6990  -21.8765  -50.7511 H         1 UNK         0.3000 
    226 H226       -3.5018  -20.2151  -48.8721 H         1 UNK         0.0600 
    227 H227       -5.4550  -21.6789  -48.4459 H         1 UNK         0.0600 
    228 H228       -5.8058  -20.0312  -47.9466 H         1 UNK         0.0600 
    229 H229       -6.4778  -20.6633  -49.4474 H         1 UNK         0.0600 
    230 H230       -2.6250  -18.3300  -49.5075 H         1 UNK         0.3000 
    231 H231       -2.3166  -16.2248  -50.0734 H         1 UNK         0.0600 
    232 H232       -4.0787  -14.5397  -49.8321 H         1 UNK         0.0600 
    233 H233       -4.2068  -15.6958  -48.5195 H         1 UNK         0.0600 
    234 H234       -5.3319  -15.7703  -49.8732 H         1 UNK         0.0600 
    235 H235       -2.7738  -18.2978  -52.1177 H         1 UNK         0.3000 
    236 H236       -3.2585  -16.5386  -54.4934 H         1 UNK         0.0600 
    237 H237       -5.2400  -17.9979  -54.0982 H         1 UNK         0.0600 
    238 H238       -4.3876  -18.4843  -55.5565 H         1 UNK         0.0600 
    239 H239       -4.2069  -19.4246  -54.0809 H         1 UNK         0.0600 
    240 H240       -1.3408  -19.0905  -52.9826 H         1 UNK         0.3000 
    241 H241        0.5728  -20.0033  -53.4398 H         1 UNK         0.0600 
    242 H242        0.7393  -22.1719  -56.4664 H         1 UNK         0.3800 
    243 H243        1.8671  -21.1070  -55.6636 H         1 UNK         0.3800 
    244 H244        1.1348  -18.3704  -55.9571 H         1 UNK         0.0800 
    245 H245        1.1953  -17.5998  -54.4041 H         1 UNK         0.0800 
    246 H246        4.6366  -18.3197  -53.1204 H         1 UNK         0.0800 
    247 H247        3.5450  -17.0611  -53.6395 H         1 UNK         0.0800 
@<TRIPOS>BOND
     1    1    2 1    
     2    1  127 1    
     3    1  128 1    
     4    1  129 1    
     5    2    3 2    
     6    2    4 am   BACKBONE|DICT|INTERRES
     7    4    5 1    
     8    4  130 1    
     9    5    6 1    
    10    5   65 1    
    11    5  131 1    
    12    6    7 1    
    13    6  132 1    
    14    6  133 1    
    15    7    8 1    
    16    8    9 1    
    17    8  134 1    
    18    8  135 1    
    19    9   10 ar   
    20    9   14 ar   
    21   10   11 ar   
    22   10  136 1    
    23   11   12 ar   
    24   11  126 1    
    25   12   13 ar   
    26   12  137 1    
    27   13   14 ar   
    28   13   15 1    
    29   14  138 1    
    30   15   16 1    
    31   15  139 1    
    32   15  140 1    
    33   16   17 1    
    34   17   18 1    
    35   17  141 1    
    36   17  142 1    
    37   18   19 1    
    38   18   67 1    
    39   18  143 1    
    40   19   20 am   BACKBONE|DICT|INTERRES
    41   19  144 1    
    42   20   21 2    
    43   20   22 1    
    44   22   23 1    
    45   22   24 1    
    46   22  145 1    
    47   23  146 1    
    48   23  147 1    
    49   23  148 1    
    50   24   25 am   BACKBONE|DICT|INTERRES
    51   24  149 1    
    52   25   26 2    
    53   25   27 1    
    54   27   28 1    
    55   27   29 1    
    56   27  150 1    
    57   28  151 1    
    58   28  152 1    
    59   28  153 1    
    60   29   30 am   BACKBONE|DICT|INTERRES
    61   29  154 1    
    62   30   31 2    
    63   30   32 1    
    64   32   33 1    
    65   32   34 1    
    66   32  155 1    
    67   33  156 1    
    68   33  157 1    
    69   33  158 1    
    70   34   35 am   BACKBONE|DICT|INTERRES
    71   34  159 1    
    72   35   36 2    
    73   35   37 1    
    74   37   38 1    
    75   37   39 1    
    76   37  160 1    
    77   38  161 1    
    78   38  162 1    
    79   38  163 1    
    80   39   40 am   BACKBONE|DICT|INTERRES
    81   39  164 1    
    82   40   41 2    
    83   40   42 1    
    84   42   43 1    
    85   42   44 1    
    86   42  165 1    
    87   43  166 1    
    88   43  167 1    
    89   43  168 1    
    90   44   45 am   BACKBONE|DICT|INTERRES
    91   44  169 1    
    92   45   46 2    
    93   45   47 1    
    94   47   48 1    
    95   47   49 1    
    96   47  170 1    
    97   48  171 1    
    98   48  172 1    
    99   48  173 1    
   100   49   50 am   BACKBONE|DICT|INTERRES
   101   49  174 1    
   102   50   51 2    
   103   50   52 1    
   104   52   53 1    
   105   52   54 1    
   106   52  175 1    
   107   53  176 1    
   108   53  177 1    
   109   53  178 1    
   110   54   55 am   BACKBONE|DICT|INTERRES
   111   54  179 1    
   112   55   56 2    
   113   55   57 1    
   114   57   58 1    
   115   57   59 1    
   116   57  180 1    
   117   58  181 1    
   118   58  182 1    
   119   58  183 1    
   120   59   60 am   BACKBONE|DICT|INTERRES
   121   59  184 1    
   122   60   61 2    
   123   60   62 1    
   124   62   63 1    
   125   62   64 1    
   126   62  185 1    
   127   63  186 1    
   128   63  187 1    
   129   63  188 1    
   130   64   65 am   BACKBONE|DICT|INTERRES
   131   64  189 1    
   132   65   66 2    
   133   67   68 2    
   134   67   69 am   BACKBONE|DICT|INTERRES
   135   69   70 1    
   136   69  190 1    
   137   70   71 1    
   138   70   72 1    
   139   70  191 1    
   140   71  192 1    
   141   71  193 1    
   142   71  194 1    
   143   72   73 2    
   144   72   74 am   BACKBONE|DICT|INTERRES
   145   74   75 1    
   146   74  195 1    
   147   75   76 1    
   148   75   77 1    
   149   75  196 1    
   150   76  197 1    
   151   76  198 1    
   152   76  199 1    
   153   77   78 2    
   154   77   79 am   BACKBONE|DICT|INTERRES
   155   79   80 1    
   156   79  200 1    
   157   80   81 1    
   158   80   82 1    
   159   80  201 1    
   160   81  202 1    
   161   81  203 1    
   162   81  204 1    
   163   82   83 2    
   164   82   84 am   BACKBONE|DICT|INTERRES
   165   84   85 1    
   166   84  205 1    
   167   85   86 1    
   168   85   87 1    
   169   85  206 1    
   170   86  207 1    
   171   86  208 1    
   172   86  209 1    
   173   87   88 2    
   174   87   89 am   BACKBONE|DICT|INTERRES
   175   89   90 1    
   176   89  210 1    
   177   90   91 1    
   178   90   92 1    
   179   90  211 1    
   180   91  212 1    
   181   91  213 1    
   182   91  214 1    
   183   92   93 2    
   184   92   94 am   BACKBONE|DICT|INTERRES
   185   94   95 1    
   186   94  215 1    
   187   95   96 1    
   188   95   97 1    
   189   95  216 1    
   190   96  217 1    
   191   96  218 1    
   192   96  219 1    
   193   97   98 2    
   194   97   99 am   BACKBONE|DICT|INTERRES
   195   99  100 1    
   196   99  220 1    
   197  100  101 1    
   198  100  102 1    
   199  100  221 1    
   200  101  222 1    
   201  101  223 1    
   202  101  224 1    
   203  102  103 2    
   204  102  104 am   BACKBONE|DICT|INTERRES
   205  104  105 1    
   206  104  225 1    
   207  105  106 1    
   208  105  107 1    
   209  105  226 1    
   210  106  227 1    
   211  106  228 1    
   212  106  229 1    
   213  107  108 2    
   214  107  109 am   BACKBONE|DICT|INTERRES
   215  109  110 1    
   216  109  230 1    
   217  110  111 1    
   218  110  112 1    
   219  110  231 1    
   220  111  232 1    
   221  111  233 1    
   222  111  234 1    
   223  112  113 2    
   224  112  114 am   BACKBONE|DICT|INTERRES
   225  114  115 1    
   226  114  235 1    
   227  115  116 1    
   228  115  117 1    
   229  115  236 1    
   230  116  237 1    
   231  116  238 1    
   232  116  239 1    
   233  117  118 2    
   234  117  119 am   BACKBONE|DICT|INTERRES
   235  119  120 1    
   236  119  240 1    
   237  120  121 1    
   238  120  124 1    
   239  120  241 1    
   240  121  122 am   BACKBONE|DICT|INTERRES
   241  121  123 2    
   242  122  242 1    
   243  122  243 1    
   244  124  125 1    
   245  124  244 1    
   246  124  245 1    
   247  125  126 1    
   248  126  246 1    
   249  126  247 1    
@<TRIPOS>SUBSTRUCTURE
     1 UNK         1 GROUP             0       ****    0 ROOT    
