@<TRIPOS>MOLECULE
3R540
247   249    1
SMALL
USER_CHARGES


@<TRIPOS>ATOM
      1 CA          4.3609  -10.4884  -47.7986 C.3       0 UNK        -0.1800 
      2 C           5.7460  -11.1264  -47.8968 C.2       0 UNK         0.5000 
      3 O           6.7361  -10.4010  -47.8302 O.2       0 UNK        -0.5000 
      4 N           5.8955  -12.4528  -48.0439 N.am      1 UNK        -0.5000 
      5 CA          4.8791  -13.5147  -48.1559 C.3       1 UNK         0.1400 
      6 C6          3.9216  -13.3704  -49.3709 C.3       23 UNK        -0.0398 
      7 S7          4.8040  -13.3422  -50.9728 S.3       23 UNK        -0.2404 
      8 C8          5.1807  -15.1068  -51.2612 C.3       23 UNK        -0.0205 
      9 C9          3.9346  -15.9763  -51.2068 C.ar      23 UNK        -0.0193 
     10 C10         3.0223  -15.9660  -52.2649 C.ar      23 UNK        -0.1150 
     11 C11         1.8310  -16.6908  -52.1788 C.ar      23 UNK        -0.0193 
     12 C12         1.5622  -17.4371  -51.0282 C.ar      23 UNK        -0.1150 
     13 C13         2.4752  -17.4691  -49.9708 C.ar      23 UNK        -0.0193 
     14 C14         3.6667  -16.7479  -50.0723 C.ar      23 UNK        -0.1150 
     15 C15         2.1534  -18.2216  -48.6897 C.3       23 UNK        -0.0205 
     16 S16         2.6846  -19.9584  -48.7608 S.3       23 UNK        -0.2404 
     17 C17         1.2048  -20.7677  -49.4603 C.3       23 UNK        -0.0398 
     18 CA          0.3680  -21.4802  -48.3720 C.3       11 UNK         0.1400 
     19 N          -0.1377  -20.5560  -47.3532 N.am      11 UNK        -0.5000 
     20 C          -0.6616  -20.9304  -46.1784 C.2       10 UNK         0.5000 
     21 O          -0.7692  -22.1006  -45.8155 O.2       10 UNK        -0.5000 
     22 CA         -1.2108  -19.8009  -45.2917 C.3       10 UNK         0.1400 
     23 CB         -0.0650  -19.1292  -44.5204 C.3       10 UNK        -0.1800 
     24 N          -1.9427  -18.8024  -46.0771 N.am      10 UNK        -0.5000 
     25 C          -3.0912  -19.0603  -46.7246 C.2       9 UNK         0.5000 
     26 O          -3.6488  -20.1569  -46.6941 O.2       9 UNK        -0.5000 
     27 CA         -3.7113  -17.9458  -47.5866 C.3       9 UNK         0.1400 
     28 CB         -4.9783  -17.3719  -46.9359 C.3       9 UNK        -0.1800 
     29 N          -2.7817  -16.8606  -47.8861 N.am      9 UNK        -0.5000 
     30 C          -1.8204  -16.9348  -48.8165 C.2       8 UNK         0.5000 
     31 O          -1.6314  -17.9272  -49.5226 O.2       8 UNK        -0.5000 
     32 CA         -0.8879  -15.7146  -48.9536 C.3       8 UNK         0.1400 
     33 CB         -1.4003  -14.7659  -50.0464 C.3       8 UNK        -0.1800 
     34 N          -0.6882  -14.9677  -47.7094 N.am      8 UNK        -0.5000 
     35 C          -0.1675  -15.4770  -46.5836 C.2       7 UNK         0.5000 
     36 O           0.1776  -16.6529  -46.4689 O.2       7 UNK        -0.5000 
     37 CA         -0.0526  -14.5471  -45.3598 C.3       7 UNK         0.1400 
     38 CB         -0.3091  -13.0562  -45.6676 C.3       7 UNK        -0.1800 
     39 N          -0.9033  -14.9923  -44.2515 N.am      7 UNK        -0.5000 
     40 C          -2.2248  -15.2341  -44.2788 C.2       6 UNK         0.5000 
     41 O          -2.9147  -15.1186  -45.2929 O.2       6 UNK        -0.5000 
     42 CA         -2.9017  -15.6887  -42.9650 C.3       6 UNK         0.1400 
     43 CB         -3.3758  -17.1481  -43.0634 C.3       6 UNK        -0.1800 
     44 N          -2.0422  -15.5663  -41.7868 N.am      6 UNK        -0.5000 
     45 C          -1.7559  -14.4239  -41.1471 C.2       5 UNK         0.5000 
     46 O          -2.2575  -13.3364  -41.4324 O.2       5 UNK        -0.5000 
     47 CA         -0.7056  -14.5084  -40.0168 C.3       5 UNK         0.1400 
     48 CB         -1.3968  -14.5963  -38.6476 C.3       5 UNK        -0.1800 
     49 N           0.2336  -15.6314  -40.1515 N.am      5 UNK        -0.5000 
     50 C           1.0666  -15.8098  -41.1853 C.2       4 UNK         0.5000 
     51 O           1.1345  -15.0290  -42.1413 O.2       4 UNK        -0.5000 
     52 CA          1.9233  -17.0877  -41.1851 C.3       4 UNK         0.1400 
     53 CB          1.0691  -18.3618  -41.0351 C.3       4 UNK        -0.1800 
     54 N           2.6469  -17.0996  -42.4479 N.am      4 UNK        -0.5000 
     55 C           3.7700  -17.7571  -42.7445 C.2       3 UNK         0.5000 
     56 O           4.2891  -18.6034  -42.0161 O.2       3 UNK        -0.5000 
     57 CA          4.4473  -17.3598  -44.0730 C.3       3 UNK         0.1400 
     58 CB          4.0017  -18.2881  -45.2126 C.3       3 UNK        -0.1800 
     59 N           4.1795  -15.9692  -44.4607 N.am      3 UNK        -0.5000 
     60 C           4.6071  -14.8869  -43.7951 C.2       2 UNK         0.5000 
     61 O           5.3355  -14.9431  -42.8028 O.2       2 UNK        -0.5000 
     62 CA          4.1593  -13.5218  -44.3562 C.3       2 UNK         0.1400 
     63 CB          4.5981  -12.3387  -43.4753 C.3       2 UNK        -0.1800 
     64 N           4.6759  -13.3160  -45.7083 N.am      2 UNK        -0.5000 
     65 C           4.1369  -13.8078  -46.8312 C.2       1 UNK         0.5000 
     66 O           3.1152  -14.4958  -46.8345 O.2       1 UNK        -0.5000 
     67 C          -0.7788  -22.2918  -49.0042 C.2       11 UNK         0.5000 
     68 O          -0.6100  -23.4851  -49.2494 O.2       11 UNK        -0.5000 
     69 N          -1.9367  -21.6464  -49.2110 N.am      12 UNK        -0.5000 
     70 CA         -3.1553  -22.2761  -49.7227 C.3       12 UNK         0.1400 
     71 CB         -4.2009  -21.1934  -50.0224 C.3       12 UNK        -0.1800 
     72 C          -3.7298  -23.3195  -48.7487 C.2       12 UNK         0.5000 
     73 O          -4.1880  -24.3757  -49.1886 O.2       12 UNK        -0.5000 
     74 N          -3.6845  -23.0063  -47.4470 N.am      13 UNK        -0.5000 
     75 CA         -4.0672  -23.9046  -46.3612 C.3       13 UNK         0.1400 
     76 CB         -4.1899  -23.1088  -45.0532 C.3       13 UNK        -0.1800 
     77 C          -3.0824  -25.0766  -46.2073 C.2       13 UNK         0.5000 
     78 O          -3.5238  -26.2192  -46.0913 O.2       13 UNK        -0.5000 
     79 N          -1.7731  -24.7859  -46.2522 N.am      14 UNK        -0.5000 
     80 CA         -0.6923  -25.7744  -46.1687 C.3       14 UNK         0.1400 
     81 CB          0.6604  -25.0536  -46.0724 C.3       14 UNK        -0.1800 
     82 C          -0.6891  -26.7744  -47.3403 C.2       14 UNK         0.5000 
     83 O          -0.4275  -27.9589  -47.1287 O.2       14 UNK        -0.5000 
     84 N          -1.0194  -26.2889  -48.5445 N.am      15 UNK        -0.5000 
     85 CA         -1.2078  -27.0952  -49.7524 C.3       15 UNK         0.1400 
     86 CB         -1.1689  -26.1640  -50.9752 C.3       15 UNK        -0.1800 
     87 C          -2.5179  -27.9104  -49.7525 C.2       15 UNK         0.5000 
     88 O          -2.6835  -28.7711  -50.6176 O.2       15 UNK        -0.5000 
     89 N          -3.4309  -27.6058  -48.8161 N.am      16 UNK        -0.5000 
     90 CA         -4.7917  -28.1378  -48.6801 C.3       16 UNK         0.1400 
     91 CB         -4.7717  -29.6499  -48.3748 C.3       16 UNK        -0.1800 
     92 C          -5.7061  -27.7716  -49.8693 C.2       16 UNK         0.5000 
     93 O          -6.6799  -28.4765  -50.1404 O.2       16 UNK        -0.5000 
     94 N          -5.3808  -26.6662  -50.5516 N.am      17 UNK        -0.5000 
     95 CA         -6.1483  -26.1112  -51.6620 C.3       17 UNK         0.1400 
     96 CB         -5.2070  -25.2967  -52.5644 C.3       17 UNK        -0.1800 
     97 C          -7.2992  -25.2310  -51.1521 C.2       17 UNK         0.5000 
     98 O          -8.3861  -25.2602  -51.7290 O.2       17 UNK        -0.5000 
     99 N          -7.0255  -24.4614  -50.0846 N.am      18 UNK        -0.5000 
    100 CA        -7.9316  -23.5267  -49.4016 C.3       18 UNK         0.1400 
    101 CB        -9.0628  -24.2950  -48.6887 C.3       18 UNK        -0.1800 
    102 C         -8.4618  -22.3885  -50.3061 C.2       18 UNK         0.5000 
    103 O         -9.5152  -21.8149  -50.0269 O.2       18 UNK        -0.5000 
    104 N         -7.7101  -22.0692  -51.3688 N.am      19 UNK        -0.5000 
    105 CA        -8.0477  -21.0721  -52.3887 C.3       19 UNK         0.1400 
    106 CB        -7.2347  -21.3918  -53.6542 C.3       19 UNK        -0.1800 
    107 C         -7.8048  -19.6137  -51.9469 C.2       19 UNK         0.5000 
    108 O         -8.1617  -18.6960  -52.6857 O.2       19 UNK        -0.5000 
    109 N         -7.1759  -19.4305  -50.7759 N.am      20 UNK        -0.5000 
    110 CA        -6.7609  -18.1631  -50.1595 C.3       20 UNK         0.1400 
    111 CB        -7.9703  -17.2477  -49.8791 C.3       20 UNK        -0.1800 
    112 C         -5.6242  -17.4332  -50.9112 C.2       20 UNK         0.5000 
    113 O         -5.3456  -16.2707  -50.6158 O.2       20 UNK        -0.5000 
    114 N         -4.9625  -18.1346  -51.8365 N.am      21 UNK        -0.5000 
    115 CA        -3.8148  -17.6871  -52.6120 C.3       21 UNK         0.1400 
    116 CB        -4.2739  -16.7695  -53.7597 C.3       21 UNK        -0.1800 
    117 C         -3.0865  -18.9272  -53.1492 C.2       21 UNK         0.5000 
    118 O         -3.6660  -20.0160  -53.1838 O.2       21 UNK        -0.5000 
    119 N         -1.8321  -18.7337  -53.5626 N.am      22 UNK        -0.5000 
    120 CA        -0.9363  -19.7762  -54.0877 C.3       22 UNK         0.1400 
    121 C         -1.2048  -20.2060  -55.5619 C.2       22 UNK         0.5000 
    122 N         -2.1055  -19.5609  -56.2934 N.am      22 UNK        -0.7600 
    123 O         -0.5937  -21.1545  -56.0464 O.2       22 UNK        -0.5000 
    124 C124        0.5518  -19.4112  -53.8376 C.3       23 UNK        -0.0398 
    125 S125        1.0874  -17.8401  -54.6118 S.3       23 UNK        -0.2404 
    126 C126        0.8055  -16.6076  -53.2977 C.3       23 UNK        -0.0205 
    127 H127        4.4143   -9.5726  -47.2096 H         1 UNK         0.0600 
    128 H128        3.6254  -11.1316  -47.3205 H         1 UNK         0.0600 
    129 H129        4.0007  -10.2222  -48.7921 H         1 UNK         0.0600 
    130 H130        6.8436  -12.7969  -48.1060 H         1 UNK         0.3000 
    131 H131        5.4554  -14.4247  -48.3261 H         1 UNK         0.0600 
    132 H132        3.1833  -14.1713  -49.3898 H         1 UNK         0.0800 
    133 H133        3.3289  -12.4604  -49.2989 H         1 UNK         0.0800 
    134 H134        5.6530  -15.2120  -52.2390 H         1 UNK         0.0800 
    135 H135        5.9182  -15.4437  -50.5315 H         1 UNK         0.0800 
    136 H136        3.2235  -15.3630  -53.1394 H         1 UNK         0.1150 
    137 H137        0.6245  -17.9656  -50.9429 H         1 UNK         0.1150 
    138 H138        4.3646  -16.7520  -49.2468 H         1 UNK         0.1150 
    139 H139        2.6458  -17.7350  -47.8471 H         1 UNK         0.0800 
    140 H140        1.0865  -18.1666  -48.4777 H         1 UNK         0.0800 
    141 H141        1.5518  -21.4884  -50.2032 H         1 UNK         0.0800 
    142 H142        0.5972  -20.0436  -50.0033 H         1 UNK         0.0800 
    143 H143        1.0222  -22.1949  -47.8682 H         1 UNK         0.0600 
    144 H144       -0.0977  -19.5714  -47.5691 H         1 UNK         0.3000 
    145 H145       -1.9048  -20.2359  -44.5693 H         1 UNK         0.0600 
    146 H146       -0.3987  -18.2342  -43.9978 H         1 UNK         0.0600 
    147 H147        0.3551  -19.8112  -43.7805 H         1 UNK         0.0600 
    148 H148        0.7474  -18.8359  -45.1837 H         1 UNK         0.0600 
    149 H149       -1.4988  -17.8981  -46.1885 H         1 UNK         0.3000 
    150 H150       -4.0053  -18.4113  -48.5285 H         1 UNK         0.0600 
    151 H151       -5.6961  -18.1607  -46.7070 H         1 UNK         0.0600 
    152 H152       -5.4731  -16.6633  -47.6003 H         1 UNK         0.0600 
    153 H153       -4.7586  -16.8498  -46.0071 H         1 UNK         0.0600 
    154 H154       -2.8432  -16.0344  -47.3015 H         1 UNK         0.3000 
    155 H155        0.0906  -16.0792  -49.2580 H         1 UNK         0.0600 
    156 H156       -2.3688  -14.3374  -49.7852 H         1 UNK         0.0600 
    157 H157       -1.5192  -15.2914  -50.9948 H         1 UNK         0.0600 
    158 H158       -0.7021  -13.9463  -50.2172 H         1 UNK         0.0600 
    159 H159       -0.9789  -14.0012  -47.7091 H         1 UNK         0.3000 
    160 H160        0.9764  -14.6393  -45.0116 H         1 UNK         0.0600 
    161 H161       -1.3351  -12.8709  -45.9875 H         1 UNK         0.0600 
    162 H162        0.3607  -12.6948  -46.4492 H         1 UNK         0.0600 
    163 H163       -0.1262  -12.4443  -44.7842 H         1 UNK         0.0600 
    164 H164       -0.4138  -15.1099  -43.3712 H         1 UNK         0.3000 
    165 H165       -3.7803  -15.0565  -42.8217 H         1 UNK         0.0600 
    166 H166       -3.9140  -17.4468  -42.1637 H         1 UNK         0.0600 
    167 H167       -4.0560  -17.2894  -43.9016 H         1 UNK         0.0600 
    168 H168       -2.5438  -17.8380  -43.1971 H         1 UNK         0.0600 
    169 H169       -1.5941  -16.4116  -41.4667 H         1 UNK         0.3000 
    170 H170       -0.1236  -13.5849  -40.0476 H         1 UNK         0.0600 
    171 H171       -2.0828  -13.7608  -38.5012 H         1 UNK         0.0600 
    172 H172       -1.9738  -15.5164  -38.5467 H         1 UNK         0.0600 
    173 H173       -0.6703  -14.5634  -37.8354 H         1 UNK         0.0600 
    174 H174        0.2281  -16.3102  -39.4038 H         1 UNK         0.3000 
    175 H175        2.6408  -17.0214  -40.3651 H         1 UNK         0.0600 
    176 H176        0.2374  -18.3759  -41.7380 H         1 UNK         0.0600 
    177 H177        1.6602  -19.2629  -41.1985 H         1 UNK         0.0600 
    178 H178        0.6484  -18.4359  -40.0321 H         1 UNK         0.0600 
    179 H179        2.3302  -16.3794  -43.0852 H         1 UNK         0.3000 
    180 H180        5.5250  -17.4737  -43.9390 H         1 UNK         0.0600 
    181 H181        4.5630  -18.0889  -46.1258 H         1 UNK         0.0600 
    182 H182        2.9430  -18.1638  -45.4377 H         1 UNK         0.0600 
    183 H183        4.1633  -19.3355  -44.9545 H         1 UNK         0.0600 
    184 H184        3.6191  -15.8217  -45.2927 H         1 UNK         0.3000 
    185 H185        3.0677  -13.5220  -44.3823 H         1 UNK         0.0600 
    186 H186        4.2079  -12.4411  -42.4618 H         1 UNK         0.0600 
    187 H187        5.6842  -12.2666  -43.4055 H         1 UNK         0.0600 
    188 H188        4.2245  -11.3941  -43.8713 H         1 UNK         0.0600 
    189 H189        5.5436  -12.8045  -45.7830 H         1 UNK         0.3000 
    190 H190       -1.9945  -20.6675  -48.9717 H         1 UNK         0.3000 
    191 H191       -2.9024  -22.7817  -50.6572 H         1 UNK         0.0600 
    192 H192       -3.7535  -20.3536  -50.5507 H         1 UNK         0.0600 
    193 H193       -4.9939  -21.5931  -50.6531 H         1 UNK         0.0600 
    194 H194       -4.6623  -20.8038  -49.1148 H         1 UNK         0.0600 
    195 H195       -3.3658  -22.0813  -47.1772 H         1 UNK         0.3000 
    196 H196       -5.0490  -24.3215  -46.5964 H         1 UNK         0.0600 
    197 H197       -4.4960  -23.7552  -44.2298 H         1 UNK         0.0600 
    198 H198       -4.9362  -22.3192  -45.1429 H         1 UNK         0.0600 
    199 H199       -3.2454  -22.6424  -44.7723 H         1 UNK         0.0600 
    200 H200       -1.4890  -23.8109  -46.2966 H         1 UNK         0.3000 
    201 H201       -0.8381  -26.3451  -45.2493 H         1 UNK         0.0600 
    202 H202        0.6992  -24.4014  -45.1999 H         1 UNK         0.0600 
    203 H203        0.8540  -24.4450  -46.9556 H         1 UNK         0.0600 
    204 H204        1.4789  -25.7685  -45.9801 H         1 UNK         0.0600 
    205 H205       -1.1382  -25.2855  -48.6506 H         1 UNK         0.3000 
    206 H206       -0.3799  -27.8026  -49.8317 H         1 UNK         0.0600 
    207 H207       -0.2210  -25.6287  -51.0327 H         1 UNK         0.0600 
    208 H208       -1.2796  -26.7260  -51.9034 H         1 UNK         0.0600 
    209 H209       -1.9699  -25.4242  -50.9413 H         1 UNK         0.0600 
    210 H210       -3.1862  -26.8962  -48.1367 H         1 UNK         0.3000 
    211 H211       -5.2217  -27.6364  -47.8122 H         1 UNK         0.0600 
    212 H212       -4.4333  -30.2339  -49.2309 H         1 UNK         0.0600 
    213 H213       -5.7671  -30.0081  -48.1100 H         1 UNK         0.0600 
    214 H214       -4.1143  -29.8727  -47.5344 H         1 UNK         0.0600 
    215 H215       -4.6073  -26.1071  -50.2101 H         1 UNK         0.3000 
    216 H216       -6.5733  -26.9247  -52.2539 H         1 UNK         0.0600 
    217 H217       -4.4120  -25.9239  -52.9683 H         1 UNK         0.0600 
    218 H218       -4.7384  -24.4721  -52.0256 H         1 UNK         0.0600 
    219 H219       -5.7478  -24.8718  -53.4110 H         1 UNK         0.0600 
    220 H220       -6.0877  -24.5209  -49.6993 H         1 UNK         0.3000 
    221 H221       -7.3325  -23.0390  -48.6312 H         1 UNK         0.0600 
    222 H222       -9.7457  -24.7612  -49.3995 H         1 UNK         0.0600 
    223 H223       -8.6618  -25.0788  -48.0459 H         1 UNK         0.0600 
    224 H224       -9.6526  -23.6301  -48.0567 H         1 UNK         0.0600 
    225 H225       -6.8746  -22.6099  -51.5325 H         1 UNK         0.3000 
    226 H226       -9.1086  -21.1659  -52.6299 H         1 UNK         0.0600 
    227 H227       -7.4464  -22.3987  -54.0149 H         1 UNK         0.0600 
    228 H228       -7.4775  -20.7021  -54.4636 H         1 UNK         0.0600 
    229 H229       -6.1615  -21.3191  -53.4731 H         1 UNK         0.0600 
    230 H230       -6.9476  -20.2624  -50.2531 H         1 UNK         0.3000 
    231 H231       -6.3442  -18.4439  -49.1933 H         1 UNK         0.0600 
    232 H232       -7.6813  -16.3979  -49.2595 H         1 UNK         0.0600 
    233 H233       -8.7557  -17.7833  -49.3459 H         1 UNK         0.0600 
    234 H234       -8.3993  -16.8472  -50.7977 H         1 UNK         0.0600 
    235 H235       -5.2203  -19.0969  -52.0135 H         1 UNK         0.3000 
    236 H236       -3.1317  -17.1455  -51.9542 H         1 UNK         0.0600 
    237 H237       -4.7730  -15.8782  -53.3792 H         1 UNK         0.0600 
    238 H238       -3.4280  -16.4319  -54.3593 H         1 UNK         0.0600 
    239 H239       -4.9692  -17.2813  -54.4263 H         1 UNK         0.0600 
    240 H240       -1.4473  -17.8022  -53.5514 H         1 UNK         0.3000 
    241 H241       -1.1291  -20.6779  -53.5026 H         1 UNK         0.0600 
    242 H242       -2.2738  -19.8531  -57.2432 H         1 UNK         0.3800 
    243 H243       -2.6198  -18.7861  -55.9085 H         1 UNK         0.3800 
    244 H244        1.2021  -20.2055  -54.2078 H         1 UNK         0.0800 
    245 H245        0.7422  -19.3748  -52.7669 H         1 UNK         0.0800 
    246 H246        0.8454  -15.6143  -53.7475 H         1 UNK         0.0800 
    247 H247       -0.1994  -16.7026  -52.8886 H         1 UNK         0.0800 
@<TRIPOS>BOND
     1    1    2 1    
     2    1  127 1    
     3    1  128 1    
     4    1  129 1    
     5    2    3 2    
     6    2    4 am   BACKBONE|DICT|INTERRES
     7    4    5 1    
     8    4  130 1    
     9    5    6 1    
    10    5   65 1    
    11    5  131 1    
    12    6    7 1    
    13    6  132 1    
    14    6  133 1    
    15    7    8 1    
    16    8    9 1    
    17    8  134 1    
    18    8  135 1    
    19    9   10 ar   
    20    9   14 ar   
    21   10   11 ar   
    22   10  136 1    
    23   11   12 ar   
    24   11  126 1    
    25   12   13 ar   
    26   12  137 1    
    27   13   14 ar   
    28   13   15 1    
    29   14  138 1    
    30   15   16 1    
    31   15  139 1    
    32   15  140 1    
    33   16   17 1    
    34   17   18 1    
    35   17  141 1    
    36   17  142 1    
    37   18   19 1    
    38   18   67 1    
    39   18  143 1    
    40   19   20 am   BACKBONE|DICT|INTERRES
    41   19  144 1    
    42   20   21 2    
    43   20   22 1    
    44   22   23 1    
    45   22   24 1    
    46   22  145 1    
    47   23  146 1    
    48   23  147 1    
    49   23  148 1    
    50   24   25 am   BACKBONE|DICT|INTERRES
    51   24  149 1    
    52   25   26 2    
    53   25   27 1    
    54   27   28 1    
    55   27   29 1    
    56   27  150 1    
    57   28  151 1    
    58   28  152 1    
    59   28  153 1    
    60   29   30 am   BACKBONE|DICT|INTERRES
    61   29  154 1    
    62   30   31 2    
    63   30   32 1    
    64   32   33 1    
    65   32   34 1    
    66   32  155 1    
    67   33  156 1    
    68   33  157 1    
    69   33  158 1    
    70   34   35 am   BACKBONE|DICT|INTERRES
    71   34  159 1    
    72   35   36 2    
    73   35   37 1    
    74   37   38 1    
    75   37   39 1    
    76   37  160 1    
    77   38  161 1    
    78   38  162 1    
    79   38  163 1    
    80   39   40 am   BACKBONE|DICT|INTERRES
    81   39  164 1    
    82   40   41 2    
    83   40   42 1    
    84   42   43 1    
    85   42   44 1    
    86   42  165 1    
    87   43  166 1    
    88   43  167 1    
    89   43  168 1    
    90   44   45 am   BACKBONE|DICT|INTERRES
    91   44  169 1    
    92   45   46 2    
    93   45   47 1    
    94   47   48 1    
    95   47   49 1    
    96   47  170 1    
    97   48  171 1    
    98   48  172 1    
    99   48  173 1    
   100   49   50 am   BACKBONE|DICT|INTERRES
   101   49  174 1    
   102   50   51 2    
   103   50   52 1    
   104   52   53 1    
   105   52   54 1    
   106   52  175 1    
   107   53  176 1    
   108   53  177 1    
   109   53  178 1    
   110   54   55 am   BACKBONE|DICT|INTERRES
   111   54  179 1    
   112   55   56 2    
   113   55   57 1    
   114   57   58 1    
   115   57   59 1    
   116   57  180 1    
   117   58  181 1    
   118   58  182 1    
   119   58  183 1    
   120   59   60 am   BACKBONE|DICT|INTERRES
   121   59  184 1    
   122   60   61 2    
   123   60   62 1    
   124   62   63 1    
   125   62   64 1    
   126   62  185 1    
   127   63  186 1    
   128   63  187 1    
   129   63  188 1    
   130   64   65 am   BACKBONE|DICT|INTERRES
   131   64  189 1    
   132   65   66 2    
   133   67   68 2    
   134   67   69 am   BACKBONE|DICT|INTERRES
   135   69   70 1    
   136   69  190 1    
   137   70   71 1    
   138   70   72 1    
   139   70  191 1    
   140   71  192 1    
   141   71  193 1    
   142   71  194 1    
   143   72   73 2    
   144   72   74 am   BACKBONE|DICT|INTERRES
   145   74   75 1    
   146   74  195 1    
   147   75   76 1    
   148   75   77 1    
   149   75  196 1    
   150   76  197 1    
   151   76  198 1    
   152   76  199 1    
   153   77   78 2    
   154   77   79 am   BACKBONE|DICT|INTERRES
   155   79   80 1    
   156   79  200 1    
   157   80   81 1    
   158   80   82 1    
   159   80  201 1    
   160   81  202 1    
   161   81  203 1    
   162   81  204 1    
   163   82   83 2    
   164   82   84 am   BACKBONE|DICT|INTERRES
   165   84   85 1    
   166   84  205 1    
   167   85   86 1    
   168   85   87 1    
   169   85  206 1    
   170   86  207 1    
   171   86  208 1    
   172   86  209 1    
   173   87   88 2    
   174   87   89 am   BACKBONE|DICT|INTERRES
   175   89   90 1    
   176   89  210 1    
   177   90   91 1    
   178   90   92 1    
   179   90  211 1    
   180   91  212 1    
   181   91  213 1    
   182   91  214 1    
   183   92   93 2    
   184   92   94 am   BACKBONE|DICT|INTERRES
   185   94   95 1    
   186   94  215 1    
   187   95   96 1    
   188   95   97 1    
   189   95  216 1    
   190   96  217 1    
   191   96  218 1    
   192   96  219 1    
   193   97   98 2    
   194   97   99 am   BACKBONE|DICT|INTERRES
   195   99  100 1    
   196   99  220 1    
   197  100  101 1    
   198  100  102 1    
   199  100  221 1    
   200  101  222 1    
   201  101  223 1    
   202  101  224 1    
   203  102  103 2    
   204  102  104 am   BACKBONE|DICT|INTERRES
   205  104  105 1    
   206  104  225 1    
   207  105  106 1    
   208  105  107 1    
   209  105  226 1    
   210  106  227 1    
   211  106  228 1    
   212  106  229 1    
   213  107  108 2    
   214  107  109 am   BACKBONE|DICT|INTERRES
   215  109  110 1    
   216  109  230 1    
   217  110  111 1    
   218  110  112 1    
   219  110  231 1    
   220  111  232 1    
   221  111  233 1    
   222  111  234 1    
   223  112  113 2    
   224  112  114 am   BACKBONE|DICT|INTERRES
   225  114  115 1    
   226  114  235 1    
   227  115  116 1    
   228  115  117 1    
   229  115  236 1    
   230  116  237 1    
   231  116  238 1    
   232  116  239 1    
   233  117  118 2    
   234  117  119 am   BACKBONE|DICT|INTERRES
   235  119  120 1    
   236  119  240 1    
   237  120  121 1    
   238  120  124 1    
   239  120  241 1    
   240  121  122 am   BACKBONE|DICT|INTERRES
   241  121  123 2    
   242  122  242 1    
   243  122  243 1    
   244  124  125 1    
   245  124  244 1    
   246  124  245 1    
   247  125  126 1    
   248  126  246 1    
   249  126  247 1    
@<TRIPOS>SUBSTRUCTURE
     1 UNK         1 GROUP             0       ****    0 ROOT    
