@<TRIPOS>MOLECULE
3R540
247   249    1
SMALL
USER_CHARGES


@<TRIPOS>ATOM
      1 CA         -2.0641  -12.1541  -49.5282 C.3       0 UNK        -0.1800 
      2 C          -1.2488  -12.1868  -48.2428 C.2       0 UNK         0.5000 
      3 O          -0.0233  -12.0866  -48.2913 O.2       0 UNK        -0.5000 
      4 N          -1.9248  -12.3401  -47.0990 N.am      1 UNK        -0.5000 
      5 CA         -1.3138  -12.4078  -45.7680 C.3       1 UNK         0.1400 
      6 C6         -2.2251  -13.1379  -44.7501 C.3       23 UNK        -0.0398 
      7 S7         -2.5152  -14.8754  -45.2331 S.3       23 UNK        -0.2404 
      8 C8         -4.1968  -14.7768  -45.9212 C.3       23 UNK        -0.0205 
      9 C9         -4.4554  -15.9020  -46.9097 C.ar      23 UNK        -0.0193 
     10 C10        -4.0129  -15.7827  -48.2301 C.ar      23 UNK        -0.1150 
     11 C11        -4.2560  -16.8006  -49.1559 C.ar      23 UNK        -0.0193 
     12 C12        -4.9472  -17.9445  -48.7497 C.ar      23 UNK        -0.1150 
     13 C13        -5.3825  -18.0874  -47.4289 C.ar      23 UNK        -0.0193 
     14 C14        -5.1442  -17.0529  -46.5156 C.ar      23 UNK        -0.1150 
     15 C15        -6.1129  -19.3637  -47.0171 C.3       23 UNK        -0.0205 
     16 S16        -5.5982  -20.0459  -45.4022 S.3       23 UNK        -0.2404 
     17 C17        -3.7927  -20.2228  -45.6005 C.3       23 UNK        -0.0398 
     18 CA         -3.3531  -21.6087  -46.1268 C.3       11 UNK         0.1400 
     19 N          -1.9950  -21.5598  -46.6682 N.am      11 UNK        -0.5000 
     20 C          -1.3975  -22.5314  -47.3679 C.2       10 UNK         0.5000 
     21 O          -1.9702  -23.5541  -47.7403 O.2       10 UNK        -0.5000 
     22 CA          0.0997  -22.3456  -47.6762 C.3       10 UNK         0.1400 
     23 CB          0.3034  -21.5712  -48.9862 C.3       10 UNK        -0.1800 
     24 N           0.8113  -21.6751  -46.5865 N.am      10 UNK        -0.5000 
     25 C           1.0042  -22.2130  -45.3731 C.2       9 UNK         0.5000 
     26 O           0.6541  -23.3522  -45.0675 O.2       9 UNK        -0.5000 
     27 CA          1.6360  -21.3039  -44.3064 C.3       9 UNK         0.1400 
     28 CB          3.1662  -21.2830  -44.4346 C.3       9 UNK        -0.1800 
     29 N           1.1070  -19.9413  -44.3785 N.am      9 UNK        -0.5000 
     30 C          -0.1378  -19.6063  -44.0063 C.2       8 UNK         0.5000 
     31 O          -0.9436  -20.4078  -43.5347 O.2       8 UNK        -0.5000 
     32 CA         -0.5763  -18.1476  -44.2354 C.3       8 UNK         0.1400 
     33 CB         -0.2308  -17.2852  -43.0130 C.3       8 UNK        -0.1800 
     34 N           0.0121  -17.5495  -45.4332 N.am      8 UNK        -0.5000 
     35 C          -0.2039  -17.9742  -46.6863 C.2       7 UNK         0.5000 
     36 O          -0.9306  -18.9256  -46.9655 O.2       7 UNK        -0.5000 
     37 CA          0.5664  -17.2507  -47.8063 C.3       7 UNK         0.1400 
     38 CB         -0.2380  -16.0383  -48.2976 C.3       7 UNK        -0.1800 
     39 N           1.8942  -16.7863  -47.4011 N.am      7 UNK        -0.5000 
     40 C           2.8881  -17.5124  -46.8736 C.2       6 UNK         0.5000 
     41 O           2.8242  -18.7306  -46.7088 O.2       6 UNK        -0.5000 
     42 CA          4.1256  -16.7353  -46.3689 C.3       6 UNK         0.1400 
     43 CB          5.0857  -16.3911  -47.5228 C.3       6 UNK        -0.1800 
     44 N           3.7823  -15.5494  -45.5626 N.am      6 UNK        -0.5000 
     45 C           3.1485  -14.4328  -45.9540 C.2       5 UNK         0.5000 
     46 O           2.8732  -14.1655  -47.1232 O.2       5 UNK        -0.5000 
     47 CA          2.6374  -13.5138  -44.8343 C.3       5 UNK         0.1400 
     48 CB          1.5192  -14.2299  -44.0528 C.3       5 UNK        -0.1800 
     49 N           3.6584  -13.0495  -43.8957 N.am      5 UNK        -0.5000 
     50 C           4.7678  -12.3670  -44.2113 C.2       4 UNK         0.5000 
     51 O           5.1240  -12.1166  -45.3634 O.2       4 UNK        -0.5000 
     52 CA          5.5353  -11.7786  -43.0169 C.3       4 UNK         0.1400 
     53 CB          6.8984  -11.1775  -43.4050 C.3       4 UNK        -0.1800 
     54 N           4.6896  -10.7329  -42.4505 N.am      4 UNK        -0.5000 
     55 C           4.2951  -10.6390  -41.1756 C.2       3 UNK         0.5000 
     56 O           4.7144  -11.3615  -40.2709 O.2       3 UNK        -0.5000 
     57 CA          3.2175   -9.5756  -40.8689 C.3       3 UNK         0.1400 
     58 CB          3.8721   -8.2604  -40.4195 C.3       3 UNK        -0.1800 
     59 N           2.3215   -9.3051  -42.0023 N.am      3 UNK        -0.5000 
     60 C           1.4868  -10.2041  -42.5430 C.2       2 UNK         0.5000 
     61 O           1.3462  -11.3466  -42.0988 O.2       2 UNK        -0.5000 
     62 CA          0.7097   -9.7782  -43.8029 C.3       2 UNK         0.1400 
     63 CB          1.6311   -9.1262  -44.8565 C.3       2 UNK        -0.1800 
     64 N           0.0788  -10.9679  -44.3681 N.am      2 UNK        -0.5000 
     65 C          -0.9092  -11.0038  -45.2675 C.2       1 UNK         0.5000 
     66 O          -1.4875   -9.9991  -45.6900 O.2       1 UNK        -0.5000 
     67 C          -3.4936  -22.7167  -45.0625 C.2       11 UNK         0.5000 
     68 O          -4.3952  -23.5479  -45.1723 O.2       11 UNK        -0.5000 
     69 N          -2.5705  -22.7474  -44.0889 N.am      12 UNK        -0.5000 
     70 CA         -2.5133  -23.7487  -43.0193 C.3       12 UNK         0.1400 
     71 CB         -1.4242  -23.3565  -42.0098 C.3       12 UNK        -0.1800 
     72 C          -2.2854  -25.1832  -43.5340 C.2       12 UNK         0.5000 
     73 O          -2.8820  -26.1215  -43.0049 O.2       12 UNK        -0.5000 
     74 N          -1.4567  -25.3223  -44.5771 N.am      13 UNK        -0.5000 
     75 CA         -1.1960  -26.5802  -45.2805 C.3       13 UNK         0.1400 
     76 CB          0.0975  -26.4234  -46.0967 C.3       13 UNK        -0.1800 
     77 C          -2.3501  -27.0288  -46.2021 C.2       13 UNK         0.5000 
     78 O          -2.3160  -28.1583  -46.6908 O.2       13 UNK        -0.5000 
     79 N          -3.3166  -26.1330  -46.4582 N.am      14 UNK        -0.5000 
     80 CA         -4.4382  -26.2481  -47.3996 C.3       14 UNK         0.1400 
     81 CB         -5.3613  -27.4314  -47.0470 C.3       14 UNK        -0.1800 
     82 C          -4.0103  -26.2574  -48.8827 C.2       14 UNK         0.5000 
     83 O          -4.8449  -26.4867  -49.7587 O.2       14 UNK        -0.5000 
     84 N          -2.7389  -25.9405  -49.1577 N.am      15 UNK        -0.5000 
     85 CA         -2.1738  -25.7867  -50.4958 C.3       15 UNK         0.1400 
     86 CB         -0.6510  -25.6153  -50.3890 C.3       15 UNK        -0.1800 
     87 C          -2.8016  -24.6041  -51.2493 C.2       15 UNK         0.5000 
     88 O          -3.0639  -24.7235  -52.4434 O.2       15 UNK        -0.5000 
     89 N          -3.0801  -23.5112  -50.5231 N.am      16 UNK        -0.5000 
     90 CA         -3.7533  -22.3177  -51.0430 C.3       16 UNK         0.1400 
     91 CB         -3.4460  -21.1221  -50.1325 C.3       16 UNK        -0.1800 
     92 C          -5.2749  -22.4929  -51.2269 C.2       16 UNK         0.5000 
     93 O          -5.9064  -21.6342  -51.8436 O.2       16 UNK        -0.5000 
     94 N          -5.8413  -23.5833  -50.6924 N.am      17 UNK        -0.5000 
     95 CA         -7.2181  -23.9999  -50.9520 C.3       17 UNK         0.1400 
     96 CB         -7.8072  -24.6563  -49.6929 C.3       17 UNK        -0.1800 
     97 C          -7.2704  -24.9575  -52.1555 C.2       17 UNK         0.5000 
     98 O          -8.1656  -24.8331  -52.9918 O.2       17 UNK        -0.5000 
     99 N          -6.3088  -25.8897  -52.2248 N.am      18 UNK        -0.5000 
    100 CA        -6.1857  -26.8920  -53.2830 C.3       18 UNK         0.1400 
    101 CB        -5.1819  -27.9657  -52.8350 C.3       18 UNK        -0.1800 
    102 C         -5.7722  -26.3115  -54.6491 C.2       18 UNK         0.5000 
    103 O         -6.2282  -26.8130  -55.6780 O.2       18 UNK        -0.5000 
    104 N         -4.9157  -25.2849  -54.6429 N.am      19 UNK        -0.5000 
    105 CA        -4.3633  -24.6347  -55.8276 C.3       19 UNK         0.1400 
    106 CB        -3.0713  -25.3642  -56.2408 C.3       19 UNK        -0.1800 
    107 C         -4.0946  -23.1516  -55.5312 C.2       19 UNK         0.5000 
    108 O         -4.2259  -22.7107  -54.3891 O.2       19 UNK        -0.5000 
    109 N         -3.6863  -22.3958  -56.5567 N.am      20 UNK        -0.5000 
    110 CA        -3.3287  -20.9767  -56.4668 C.3       20 UNK         0.1400 
    111 CB        -3.5053  -20.3359  -57.8555 C.3       20 UNK        -0.1800 
    112 C         -1.9105  -20.7615  -55.8885 C.2       20 UNK         0.5000 
    113 O         -1.1006  -20.0471  -56.4834 O.2       20 UNK        -0.5000 
    114 N         -1.6258  -21.3819  -54.7341 N.am      21 UNK        -0.5000 
    115 CA        -0.3207  -21.3708  -54.0600 C.3       21 UNK         0.1400 
    116 CB        -0.3471  -22.3534  -52.8806 C.3       21 UNK        -0.1800 
    117 C          0.1400  -19.9752  -53.5919 C.2       21 UNK         0.5000 
    118 O          1.3427  -19.7553  -53.4445 O.2       21 UNK        -0.5000 
    119 N         -0.8141  -19.0557  -53.3986 N.am      22 UNK        -0.5000 
    120 CA        -0.5652  -17.6267  -53.1511 C.3       22 UNK         0.1400 
    121 C         -0.0621  -16.8381  -54.3995 C.2       22 UNK         0.5000 
    122 N         -0.0855  -17.3909  -55.6078 N.am      22 UNK        -0.7600 
    123 O          0.3669  -15.6953  -54.2669 O.2       22 UNK        -0.5000 
    124 C124       -1.8026  -16.9275  -52.5329 C.3       23 UNK        -0.0398 
    125 S125       -2.2802  -17.6219  -50.9173 S.3       23 UNK        -0.2404 
    126 C126       -3.7888  -16.6566  -50.5964 C.3       23 UNK        -0.0205 
    127 H127       -1.8847  -11.2218  -50.0636 H         1 UNK         0.0600 
    128 H128       -3.1338  -12.2343  -49.3328 H         1 UNK         0.0600 
    129 H129       -1.7746  -12.9825  -50.1751 H         1 UNK         0.0600 
    130 H130       -2.9326  -12.3631  -47.1194 H         1 UNK         0.3000 
    131 H131       -0.3942  -12.9868  -45.8659 H         1 UNK         0.0600 
    132 H132       -1.7611  -13.1532  -43.7624 H         1 UNK         0.0800 
    133 H133       -3.1759  -12.6161  -44.6285 H         1 UNK         0.0800 
    134 H134       -4.3433  -13.8215  -46.4258 H         1 UNK         0.0800 
    135 H135       -4.9207  -14.8061  -45.1055 H         1 UNK         0.0800 
    136 H136       -3.4767  -14.8952  -48.5353 H         1 UNK         0.1150 
    137 H137       -5.1445  -18.7268  -49.4675 H         1 UNK         0.1150 
    138 H138       -5.4861  -17.1473  -45.4947 H         1 UNK         0.1150 
    139 H139       -7.1826  -19.1548  -46.9827 H         1 UNK         0.0800 
    140 H140       -5.9758  -20.1405  -47.7712 H         1 UNK         0.0800 
    141 H141       -3.3257  -20.0035  -44.6402 H         1 UNK         0.0800 
    142 H142       -3.4377  -19.4438  -46.2745 H         1 UNK         0.0800 
    143 H143       -4.0117  -21.8774  -46.9541 H         1 UNK         0.0600 
    144 H144       -1.4760  -20.7009  -46.5089 H         1 UNK         0.3000 
    145 H145        0.5360  -23.3387  -47.8008 H         1 UNK         0.0600 
    146 H146       -0.1231  -20.5689  -48.9384 H         1 UNK         0.0600 
    147 H147        1.3621  -21.4732  -49.2267 H         1 UNK         0.0600 
    148 H148       -0.1702  -22.0913  -49.8187 H         1 UNK         0.0600 
    149 H149        1.1151  -20.7251  -46.7501 H         1 UNK         0.3000 
    150 H150        1.3882  -21.7157  -43.3256 H         1 UNK         0.0600 
    151 H151        3.5784  -22.2842  -44.3036 H         1 UNK         0.0600 
    152 H152        3.6178  -20.6437  -43.6760 H         1 UNK         0.0600 
    153 H153        3.4889  -20.9247  -45.4121 H         1 UNK         0.0600 
    154 H154        1.6937  -19.2489  -44.8249 H         1 UNK         0.3000 
    155 H155       -1.6609  -18.1411  -44.3613 H         1 UNK         0.0600 
    156 H156       -0.6046  -16.2678  -43.1279 H         1 UNK         0.0600 
    157 H157       -0.6833  -17.6938  -42.1086 H         1 UNK         0.0600 
    158 H158        0.8457  -17.2345  -42.8464 H         1 UNK         0.0600 
    159 H159        0.6304  -16.7665  -45.2956 H         1 UNK         0.3000 
    160 H160        0.6883  -17.9526  -48.6334 H         1 UNK         0.0600 
    161 H161       -1.2622  -16.3205  -48.5355 H         1 UNK         0.0600 
    162 H162        0.2002  -15.6094  -49.1989 H         1 UNK         0.0600 
    163 H163       -0.2881  -15.2532  -47.5420 H         1 UNK         0.0600 
    164 H164        2.0690  -15.7888  -47.4964 H         1 UNK         0.3000 
    165 H165        4.6592  -17.4061  -45.6935 H         1 UNK         0.0600 
    166 H166        5.9710  -15.8717  -47.1560 H         1 UNK         0.0600 
    167 H167        5.4249  -17.2973  -48.0260 H         1 UNK         0.0600 
    168 H168        4.6155  -15.7600  -48.2771 H         1 UNK         0.0600 
    169 H169        3.9511  -15.6523  -44.5716 H         1 UNK         0.3000 
    170 H170        2.2124  -12.6305  -45.3147 H         1 UNK         0.0600 
    171 H171        0.7708  -14.6512  -44.7244 H         1 UNK         0.0600 
    172 H172        1.9126  -15.0501  -43.4517 H         1 UNK         0.0600 
    173 H173        0.9986  -13.5562  -43.3759 H         1 UNK         0.0600 
    174 H174        3.4378  -13.1592  -42.9158 H         1 UNK         0.3000 
    175 H175        5.7014  -12.5843  -42.2986 H         1 UNK         0.0600 
    176 H176        6.7928  -10.3574  -44.1163 H         1 UNK         0.0600 
    177 H177        7.4195  -10.7926  -42.5283 H         1 UNK         0.0600 
    178 H178        7.5413  -11.9310  -43.8616 H         1 UNK         0.0600 
    179 H179        4.2707  -10.1036  -43.1202 H         1 UNK         0.3000 
    180 H180        2.6099   -9.9541  -40.0442 H         1 UNK         0.0600 
    181 H181        4.4764   -7.8194  -41.2132 H         1 UNK         0.0600 
    182 H182        4.5256   -8.4229  -39.5613 H         1 UNK         0.0600 
    183 H183        3.1221   -7.5280  -40.1205 H         1 UNK         0.0600 
    184 H184        2.3786   -8.3823  -42.4085 H         1 UNK         0.3000 
    185 H185       -0.0643   -9.0711  -43.4986 H         1 UNK         0.0600 
    186 H186        1.0816   -8.8688  -45.7620 H         1 UNK         0.0600 
    187 H187        2.0733   -8.2009  -44.4867 H         1 UNK         0.0600 
    188 H188        2.4456   -9.7930  -45.1432 H         1 UNK         0.0600 
    189 H189        0.4366  -11.8254  -43.9677 H         1 UNK         0.3000 
    190 H190       -1.8763  -22.0062  -44.0451 H         1 UNK         0.3000 
    191 H191       -3.4754  -23.7339  -42.5032 H         1 UNK         0.0600 
    192 H192       -0.4387  -23.3212  -42.4749 H         1 UNK         0.0600 
    193 H193       -1.3752  -24.0727  -41.1886 H         1 UNK         0.0600 
    194 H194       -1.6239  -22.3769  -41.5751 H         1 UNK         0.0600 
    195 H195       -0.9395  -24.5091  -44.8984 H         1 UNK         0.3000 
    196 H196       -1.0416  -27.3677  -44.5402 H         1 UNK         0.0600 
    197 H197        0.0024  -25.6430  -46.8526 H         1 UNK         0.0600 
    198 H198        0.3544  -27.3500  -46.6115 H         1 UNK         0.0600 
    199 H199        0.9400  -26.1661  -45.4546 H         1 UNK         0.0600 
    200 H200       -3.2497  -25.2332  -45.9978 H         1 UNK         0.3000 
    201 H201       -5.0206  -25.3349  -47.2706 H         1 UNK         0.0600 
    202 H202       -5.6541  -27.4037  -45.9975 H         1 UNK         0.0600 
    203 H203       -4.8847  -28.3927  -47.2395 H         1 UNK         0.0600 
    204 H204       -6.2766  -27.4009  -47.6392 H         1 UNK         0.0600 
    205 H205       -2.1560  -25.6488  -48.3847 H         1 UNK         0.3000 
    206 H206       -2.3821  -26.6976  -51.0604 H         1 UNK         0.0600 
    207 H207       -0.1913  -26.4746  -49.9005 H         1 UNK         0.0600 
    208 H208       -0.1993  -25.5219  -51.3775 H         1 UNK         0.0600 
    209 H209       -0.3830  -24.7243  -49.8208 H         1 UNK         0.0600 
    210 H210       -2.8281  -23.5113  -49.5397 H         1 UNK         0.3000 
    211 H211       -3.3409  -22.0936  -52.0270 H         1 UNK         0.0600 
    212 H212       -3.8941  -21.2356  -49.1469 H         1 UNK         0.0600 
    213 H213       -3.8386  -20.2053  -50.5702 H         1 UNK         0.0600 
    214 H214       -2.3743  -20.9770  -50.0066 H         1 UNK         0.0600 
    215 H215       -5.2489  -24.2473  -50.2157 H         1 UNK         0.3000 
    216 H216       -7.8336  -23.1290  -51.1876 H         1 UNK         0.0600 
    217 H217       -8.8519  -24.9263  -49.8511 H         1 UNK         0.0600 
    218 H218       -7.7729  -23.9760  -48.8418 H         1 UNK         0.0600 
    219 H219       -7.2757  -25.5661  -49.4154 H         1 UNK         0.0600 
    220 H220       -5.6505  -25.9717  -51.4569 H         1 UNK         0.3000 
    221 H221       -7.1596  -27.3699  -53.4080 H         1 UNK         0.0600 
    222 H222       -4.1899  -27.5427  -52.6721 H         1 UNK         0.0600 
    223 H223       -5.4995  -28.4401  -51.9061 H         1 UNK         0.0600 
    224 H224       -5.0862  -28.7508  -53.5860 H         1 UNK         0.0600 
    225 H225       -4.5702  -24.9158  -53.7604 H         1 UNK         0.3000 
    226 H226       -5.0864  -24.6793  -56.6445 H         1 UNK         0.0600 
    227 H227       -3.2625  -26.4162  -56.4528 H         1 UNK         0.0600 
    228 H228       -2.6362  -24.9298  -57.1413 H         1 UNK         0.0600 
    229 H229       -2.3180  -25.3146  -55.4530 H         1 UNK         0.0600 
    230 H230       -3.5661  -22.8266  -57.4621 H         1 UNK         0.3000 
    231 H231       -4.0253  -20.4807  -55.7876 H         1 UNK         0.0600 
    232 H232       -3.3054  -19.2640  -57.8218 H         1 UNK         0.0600 
    233 H233       -4.5248  -20.4610  -58.2207 H         1 UNK         0.0600 
    234 H234       -2.8290  -20.7743  -58.5904 H         1 UNK         0.0600 
    235 H235       -2.3593  -21.9441  -54.3147 H         1 UNK         0.3000 
    236 H236        0.4177  -21.7288  -54.7802 H         1 UNK         0.0600 
    237 H237        0.6418  -22.4490  -52.4305 H         1 UNK         0.0600 
    238 H238       -0.6565  -23.3489  -53.1991 H         1 UNK         0.0600 
    239 H239       -1.0270  -22.0189  -52.0989 H         1 UNK         0.0600 
    240 H240       -1.7765  -19.3273  -53.5281 H         1 UNK         0.3000 
    241 H241        0.2424  -17.5605  -52.4193 H         1 UNK         0.0600 
    242 H242        0.2500  -16.8591  -56.3952 H         1 UNK         0.3800 
    243 H243       -0.4261  -18.3350  -55.7578 H         1 UNK         0.3800 
    244 H244       -2.6542  -16.9905  -53.2125 H         1 UNK         0.0800 
    245 H245       -1.6054  -15.8643  -52.3830 H         1 UNK         0.0800 
    246 H246       -4.5780  -16.9844  -51.2746 H         1 UNK         0.0800 
    247 H247       -3.6026  -15.6058  -50.8244 H         1 UNK         0.0800 
@<TRIPOS>BOND
     1    1    2 1    
     2    1  127 1    
     3    1  128 1    
     4    1  129 1    
     5    2    3 2    
     6    2    4 am   BACKBONE|DICT|INTERRES
     7    4    5 1    
     8    4  130 1    
     9    5    6 1    
    10    5   65 1    
    11    5  131 1    
    12    6    7 1    
    13    6  132 1    
    14    6  133 1    
    15    7    8 1    
    16    8    9 1    
    17    8  134 1    
    18    8  135 1    
    19    9   10 ar   
    20    9   14 ar   
    21   10   11 ar   
    22   10  136 1    
    23   11   12 ar   
    24   11  126 1    
    25   12   13 ar   
    26   12  137 1    
    27   13   14 ar   
    28   13   15 1    
    29   14  138 1    
    30   15   16 1    
    31   15  139 1    
    32   15  140 1    
    33   16   17 1    
    34   17   18 1    
    35   17  141 1    
    36   17  142 1    
    37   18   19 1    
    38   18   67 1    
    39   18  143 1    
    40   19   20 am   BACKBONE|DICT|INTERRES
    41   19  144 1    
    42   20   21 2    
    43   20   22 1    
    44   22   23 1    
    45   22   24 1    
    46   22  145 1    
    47   23  146 1    
    48   23  147 1    
    49   23  148 1    
    50   24   25 am   BACKBONE|DICT|INTERRES
    51   24  149 1    
    52   25   26 2    
    53   25   27 1    
    54   27   28 1    
    55   27   29 1    
    56   27  150 1    
    57   28  151 1    
    58   28  152 1    
    59   28  153 1    
    60   29   30 am   BACKBONE|DICT|INTERRES
    61   29  154 1    
    62   30   31 2    
    63   30   32 1    
    64   32   33 1    
    65   32   34 1    
    66   32  155 1    
    67   33  156 1    
    68   33  157 1    
    69   33  158 1    
    70   34   35 am   BACKBONE|DICT|INTERRES
    71   34  159 1    
    72   35   36 2    
    73   35   37 1    
    74   37   38 1    
    75   37   39 1    
    76   37  160 1    
    77   38  161 1    
    78   38  162 1    
    79   38  163 1    
    80   39   40 am   BACKBONE|DICT|INTERRES
    81   39  164 1    
    82   40   41 2    
    83   40   42 1    
    84   42   43 1    
    85   42   44 1    
    86   42  165 1    
    87   43  166 1    
    88   43  167 1    
    89   43  168 1    
    90   44   45 am   BACKBONE|DICT|INTERRES
    91   44  169 1    
    92   45   46 2    
    93   45   47 1    
    94   47   48 1    
    95   47   49 1    
    96   47  170 1    
    97   48  171 1    
    98   48  172 1    
    99   48  173 1    
   100   49   50 am   BACKBONE|DICT|INTERRES
   101   49  174 1    
   102   50   51 2    
   103   50   52 1    
   104   52   53 1    
   105   52   54 1    
   106   52  175 1    
   107   53  176 1    
   108   53  177 1    
   109   53  178 1    
   110   54   55 am   BACKBONE|DICT|INTERRES
   111   54  179 1    
   112   55   56 2    
   113   55   57 1    
   114   57   58 1    
   115   57   59 1    
   116   57  180 1    
   117   58  181 1    
   118   58  182 1    
   119   58  183 1    
   120   59   60 am   BACKBONE|DICT|INTERRES
   121   59  184 1    
   122   60   61 2    
   123   60   62 1    
   124   62   63 1    
   125   62   64 1    
   126   62  185 1    
   127   63  186 1    
   128   63  187 1    
   129   63  188 1    
   130   64   65 am   BACKBONE|DICT|INTERRES
   131   64  189 1    
   132   65   66 2    
   133   67   68 2    
   134   67   69 am   BACKBONE|DICT|INTERRES
   135   69   70 1    
   136   69  190 1    
   137   70   71 1    
   138   70   72 1    
   139   70  191 1    
   140   71  192 1    
   141   71  193 1    
   142   71  194 1    
   143   72   73 2    
   144   72   74 am   BACKBONE|DICT|INTERRES
   145   74   75 1    
   146   74  195 1    
   147   75   76 1    
   148   75   77 1    
   149   75  196 1    
   150   76  197 1    
   151   76  198 1    
   152   76  199 1    
   153   77   78 2    
   154   77   79 am   BACKBONE|DICT|INTERRES
   155   79   80 1    
   156   79  200 1    
   157   80   81 1    
   158   80   82 1    
   159   80  201 1    
   160   81  202 1    
   161   81  203 1    
   162   81  204 1    
   163   82   83 2    
   164   82   84 am   BACKBONE|DICT|INTERRES
   165   84   85 1    
   166   84  205 1    
   167   85   86 1    
   168   85   87 1    
   169   85  206 1    
   170   86  207 1    
   171   86  208 1    
   172   86  209 1    
   173   87   88 2    
   174   87   89 am   BACKBONE|DICT|INTERRES
   175   89   90 1    
   176   89  210 1    
   177   90   91 1    
   178   90   92 1    
   179   90  211 1    
   180   91  212 1    
   181   91  213 1    
   182   91  214 1    
   183   92   93 2    
   184   92   94 am   BACKBONE|DICT|INTERRES
   185   94   95 1    
   186   94  215 1    
   187   95   96 1    
   188   95   97 1    
   189   95  216 1    
   190   96  217 1    
   191   96  218 1    
   192   96  219 1    
   193   97   98 2    
   194   97   99 am   BACKBONE|DICT|INTERRES
   195   99  100 1    
   196   99  220 1    
   197  100  101 1    
   198  100  102 1    
   199  100  221 1    
   200  101  222 1    
   201  101  223 1    
   202  101  224 1    
   203  102  103 2    
   204  102  104 am   BACKBONE|DICT|INTERRES
   205  104  105 1    
   206  104  225 1    
   207  105  106 1    
   208  105  107 1    
   209  105  226 1    
   210  106  227 1    
   211  106  228 1    
   212  106  229 1    
   213  107  108 2    
   214  107  109 am   BACKBONE|DICT|INTERRES
   215  109  110 1    
   216  109  230 1    
   217  110  111 1    
   218  110  112 1    
   219  110  231 1    
   220  111  232 1    
   221  111  233 1    
   222  111  234 1    
   223  112  113 2    
   224  112  114 am   BACKBONE|DICT|INTERRES
   225  114  115 1    
   226  114  235 1    
   227  115  116 1    
   228  115  117 1    
   229  115  236 1    
   230  116  237 1    
   231  116  238 1    
   232  116  239 1    
   233  117  118 2    
   234  117  119 am   BACKBONE|DICT|INTERRES
   235  119  120 1    
   236  119  240 1    
   237  120  121 1    
   238  120  124 1    
   239  120  241 1    
   240  121  122 am   BACKBONE|DICT|INTERRES
   241  121  123 2    
   242  122  242 1    
   243  122  243 1    
   244  124  125 1    
   245  124  244 1    
   246  124  245 1    
   247  125  126 1    
   248  126  246 1    
   249  126  247 1    
@<TRIPOS>SUBSTRUCTURE
     1 UNK         1 GROUP             0       ****    0 ROOT    
