@<TRIPOS>MOLECULE
3R540
247   249    1
SMALL
USER_CHARGES


@<TRIPOS>ATOM
      1 CA          2.8935  -12.1470  -45.7349 C.3       0 UNK        -0.1800 
      2 C           1.8974  -13.1450  -46.3048 C.2       0 UNK         0.5000 
      3 O           0.6981  -13.0100  -46.0573 O.2       0 UNK        -0.5000 
      4 N           2.3880  -14.1355  -47.0654 N.am      1 UNK        -0.5000 
      5 CA          1.6025  -15.1941  -47.7121 C.3       1 UNK         0.1400 
      6 C6          2.4718  -16.1626  -48.5410 C.3       23 UNK        -0.0398 
      7 S7          3.6588  -17.1204  -47.5396 S.3       23 UNK        -0.2404 
      8 C8          4.7374  -17.8026  -48.8429 C.3       23 UNK        -0.0205 
      9 C9          3.9778  -18.7246  -49.7875 C.ar      23 UNK        -0.0193 
     10 C10         3.3461  -18.2014  -50.9177 C.ar      23 UNK        -0.1150 
     11 C11         2.5998  -19.0251  -51.7606 C.ar      23 UNK        -0.0193 
     12 C12         2.5176  -20.3934  -51.4901 C.ar      23 UNK        -0.1150 
     13 C13         3.1714  -20.9428  -50.3822 C.ar      23 UNK        -0.0193 
     14 C14         3.8998  -20.0964  -49.5329 C.ar      23 UNK        -0.1150 
     15 C15         3.1057  -22.4550  -50.1681 C.3       23 UNK        -0.0205 
     16 S16         3.3220  -22.9989  -48.4414 S.3       23 UNK        -0.2404 
     17 C17         1.7024  -22.5884  -47.7055 C.3       23 UNK        -0.0398 
     18 CA          0.9816  -23.8549  -47.1867 C.3       11 UNK         0.1400 
     19 N           1.8043  -24.5866  -46.2210 N.am      11 UNK        -0.5000 
     20 C           1.6344  -25.8631  -45.8646 C.2       10 UNK         0.5000 
     21 O           0.7347  -26.5794  -46.3016 O.2       10 UNK        -0.5000 
     22 CA          2.6281  -26.4189  -44.8273 C.3       10 UNK         0.1400 
     23 CB          3.8862  -26.9570  -45.5248 C.3       10 UNK        -0.1800 
     24 N           3.0197  -25.4213  -43.8271 N.am      10 UNK        -0.5000 
     25 C           2.1978  -24.9568  -42.8767 C.2       9 UNK         0.5000 
     26 O           1.0325  -25.3326  -42.7421 O.2       9 UNK        -0.5000 
     27 CA          2.7550  -23.8546  -41.9514 C.3       9 UNK         0.1400 
     28 CB          3.6711  -24.4626  -40.8783 C.3       9 UNK        -0.1800 
     29 N           3.4596  -22.7546  -42.6283 N.am      9 UNK        -0.5000 
     30 C           2.9668  -22.0358  -43.6457 C.2       8 UNK         0.5000 
     31 O           1.9384  -22.3366  -44.2488 O.2       8 UNK        -0.5000 
     32 CA          3.7416  -20.7775  -44.0845 C.3       8 UNK         0.1400 
     33 CB          4.8601  -21.1503  -45.0691 C.3       8 UNK        -0.1800 
     34 N           2.8403  -19.8214  -44.7369 N.am      8 UNK        -0.5000 
     35 C           1.8558  -19.1647  -44.1095 C.2       7 UNK         0.5000 
     36 O           1.7282  -19.1255  -42.8817 O.2       7 UNK        -0.5000 
     37 CA          0.8226  -18.4620  -45.0025 C.3       7 UNK         0.1400 
     38 CB         -0.1717  -19.4741  -45.6062 C.3       7 UNK        -0.1800 
     39 N           0.1204  -17.4681  -44.1978 N.am      7 UNK        -0.5000 
     40 C          -0.6715  -16.4984  -44.6595 C.2       6 UNK         0.5000 
     41 O          -0.9860  -16.3796  -45.8483 O.2       6 UNK        -0.5000 
     42 CA         -1.1801  -15.4728  -43.6329 C.3       6 UNK         0.1400 
     43 CB         -0.0251  -14.8406  -42.8286 C.3       6 UNK        -0.1800 
     44 N          -1.9000  -14.4432  -44.3704 N.am      6 UNK        -0.5000 
     45 C          -2.7668  -13.5562  -43.8837 C.2       5 UNK         0.5000 
     46 O          -3.0879  -13.4764  -42.6960 O.2       5 UNK        -0.5000 
     47 CA         -3.3912  -12.6121  -44.9225 C.3       5 UNK         0.1400 
     48 CB         -4.7224  -13.1889  -45.4275 C.3       5 UNK        -0.1800 
     49 N          -3.6388  -11.2843  -44.3614 N.am      5 UNK        -0.5000 
     50 C          -2.7757  -10.2941  -44.0756 C.2       4 UNK         0.5000 
     51 O          -3.1527   -9.3258  -43.4167 O.2       4 UNK        -0.5000 
     52 CA         -1.3102  -10.2851  -44.5836 C.3       4 UNK         0.1400 
     53 CB         -0.3493  -11.0310  -43.6446 C.3       4 UNK        -0.1800 
     54 N          -1.1005  -10.7012  -45.9724 N.am      4 UNK        -0.5000 
     55 C          -1.5769  -10.0417  -47.0387 C.2       3 UNK         0.5000 
     56 O          -2.2745   -9.0297  -46.9613 O.2       3 UNK        -0.5000 
     57 CA         -1.1884  -10.5759  -48.4284 C.3       3 UNK         0.1400 
     58 CB          0.1974  -10.0495  -48.8329 C.3       3 UNK        -0.1800 
     59 N          -1.1785  -12.0339  -48.5114 N.am      3 UNK        -0.5000 
     60 C          -2.2564  -12.8172  -48.6259 C.2       2 UNK         0.5000 
     61 O          -3.4071  -12.3807  -48.6203 O.2       2 UNK        -0.5000 
     62 CA         -2.0379  -14.3438  -48.7512 C.3       2 UNK         0.1400 
     63 CB         -2.2313  -14.8182  -50.2044 C.3       2 UNK        -0.1800 
     64 N          -0.7742  -14.8535  -48.1986 N.am      2 UNK        -0.5000 
     65 C           0.4820  -14.6055  -48.5930 C.2       1 UNK         0.5000 
     66 O           0.7808  -13.8973  -49.5559 O.2       1 UNK        -0.5000 
     67 C          -0.4009  -23.5214  -46.5915 C.2       11 UNK         0.5000 
     68 O          -1.4046  -23.6013  -47.2986 O.2       11 UNK        -0.5000 
     69 N          -0.4316  -23.2040  -45.2906 N.am      12 UNK        -0.5000 
     70 CA         -1.6305  -23.0156  -44.4793 C.3       12 UNK         0.1400 
     71 CB         -1.2361  -22.4512  -43.1050 C.3       12 UNK        -0.1800 
     72 C          -2.4240  -24.3228  -44.3202 C.2       12 UNK         0.5000 
     73 O          -3.6462  -24.3034  -44.4590 O.2       12 UNK        -0.5000 
     74 N          -1.7181  -25.4400  -44.0857 N.am      13 UNK        -0.5000 
     75 CA         -2.2940  -26.7869  -44.0208 C.3       13 UNK         0.1400 
     76 CB         -1.2358  -27.7787  -43.5152 C.3       13 UNK        -0.1800 
     77 C          -2.8840  -27.2491  -45.3680 C.2       13 UNK         0.5000 
     78 O          -3.9370  -27.8869  -45.3846 O.2       13 UNK        -0.5000 
     79 N          -2.2213  -26.8782  -46.4724 N.am      14 UNK        -0.5000 
     80 CA         -2.6966  -27.0718  -47.8450 C.3       14 UNK         0.1400 
     81 CB         -1.5043  -26.9319  -48.8049 C.3       14 UNK        -0.1800 
     82 C          -3.8271  -26.1002  -48.2500 C.2       14 UNK         0.5000 
     83 O          -4.4516  -26.3123  -49.2899 O.2       14 UNK        -0.5000 
     84 N          -4.0574  -25.0571  -47.4375 N.am      15 UNK        -0.5000 
     85 CA         -5.0206  -23.9664  -47.6125 C.3       15 UNK         0.1400 
     86 CB         -6.4665  -24.5025  -47.5658 C.3       15 UNK        -0.1800 
     87 C          -4.7349  -23.1010  -48.8577 C.2       15 UNK         0.5000 
     88 O          -5.6693  -22.5968  -49.4811 O.2       15 UNK        -0.5000 
     89 N          -3.4475  -22.9300  -49.1933 N.am      16 UNK        -0.5000 
     90 CA         -2.9663  -22.2563  -50.4025 C.3       16 UNK         0.1400 
     91 CB         -1.4342  -22.3591  -50.4640 C.3       16 UNK        -0.1800 
     92 C          -3.4119  -20.7879  -50.5120 C.2       16 UNK         0.5000 
     93 O          -3.8401  -20.3595  -51.5842 O.2       16 UNK        -0.5000 
     94 N          -3.3347  -20.0547  -49.3935 N.am      17 UNK        -0.5000 
     95 CA         -3.7505  -18.6545  -49.3027 C.3       17 UNK         0.1400 
     96 CB         -3.1926  -18.0364  -48.0120 C.3       17 UNK        -0.1800 
     97 C          -5.2778  -18.4767  -49.3821 C.2       17 UNK         0.5000 
     98 O          -5.7412  -17.5014  -49.9723 O.2       17 UNK        -0.5000 
     99 N          -6.0299  -19.4297  -48.8132 N.am      18 UNK        -0.5000 
    100 CA        -7.4945  -19.4514  -48.8343 C.3       18 UNK         0.1400 
    101 CB        -8.0082  -20.4137  -47.7536 C.3       18 UNK        -0.1800 
    102 C         -8.0478  -19.8340  -50.2186 C.2       18 UNK         0.5000 
    103 O         -9.0347  -19.2487  -50.6652 O.2       18 UNK        -0.5000 
    104 N         -7.3777  -20.7834  -50.8857 N.am      19 UNK        -0.5000 
    105 CA        -7.6543  -21.2055  -52.2600 C.3       19 UNK         0.1400 
    106 CB        -6.9392  -22.5423  -52.5140 C.3       19 UNK        -0.1800 
    107 C         -7.2255  -20.1673  -53.3169 C.2       19 UNK         0.5000 
    108 O         -7.6488  -20.2758  -54.4684 O.2       19 UNK        -0.5000 
    109 N         -6.3831  -19.2041  -52.9123 N.am      20 UNK        -0.5000 
    110 CA        -5.7337  -18.1765  -53.7305 C.3       20 UNK         0.1400 
    111 CB        -6.7677  -17.2033  -54.3332 C.3       20 UNK        -0.1800 
    112 C         -4.7814  -18.7858  -54.7800 C.2       20 UNK         0.5000 
    113 O         -4.6806  -18.2837  -55.9018 O.2       20 UNK        -0.5000 
    114 N         -4.0737  -19.8532  -54.3809 N.am      21 UNK        -0.5000 
    115 CA        -3.1209  -20.6050  -55.2031 C.3       21 UNK         0.1400 
    116 CB        -2.6811  -21.8590  -54.4325 C.3       21 UNK        -0.1800 
    117 C         -1.8952  -19.7759  -55.6334 C.2       21 UNK         0.5000 
    118 O         -1.2616  -20.1007  -56.6383 O.2       21 UNK        -0.5000 
    119 N         -1.6055  -18.7095  -54.8788 N.am      22 UNK        -0.5000 
    120 CA        -0.5957  -17.6906  -55.1924 C.3       22 UNK         0.1400 
    121 C         -0.9713  -16.7560  -56.3823 C.2       22 UNK         0.5000 
    122 N         -2.2055  -16.7532  -56.8757 N.am      22 UNK        -0.7600 
    123 O         -0.1200  -16.0189  -56.8717 O.2       22 UNK        -0.5000 
    124 C124       -0.2205  -16.8499  -53.9435 C.3       23 UNK        -0.0398 
    125 S125        0.2214  -17.8472  -52.4798 S.3       23 UNK        -0.2404 
    126 C126        1.8789  -18.4245  -52.9540 C.3       23 UNK        -0.0205 
    127 H127        3.9128  -12.3603  -46.0574 H         1 UNK         0.0600 
    128 H128        2.8664  -12.1747  -44.6456 H         1 UNK         0.0600 
    129 H129        2.6370  -11.1379  -46.0572 H         1 UNK         0.0600 
    130 H130        3.3830  -14.1796  -47.2306 H         1 UNK         0.3000 
    131 H131        1.1523  -15.7727  -46.9096 H         1 UNK         0.0600 
    132 H132        1.8306  -16.8804  -49.0562 H         1 UNK         0.0800 
    133 H133        3.0152  -15.6149  -49.3131 H         1 UNK         0.0800 
    134 H134        5.5576  -18.3469  -48.3723 H         1 UNK         0.0800 
    135 H135        5.1969  -16.9854  -49.4011 H         1 UNK         0.0800 
    136 H136        3.4101  -17.1435  -51.1293 H         1 UNK         0.1150 
    137 H137        1.9478  -21.0325  -52.1502 H         1 UNK         0.1150 
    138 H138        4.4144  -20.4966  -48.6716 H         1 UNK         0.1150 
    139 H139        3.8923  -22.9128  -50.7690 H         1 UNK         0.0800 
    140 H140        2.1616  -22.8519  -50.5452 H         1 UNK         0.0800 
    141 H141        1.0882  -22.0648  -48.4389 H         1 UNK         0.0800 
    142 H142        1.8777  -21.8823  -46.8941 H         1 UNK         0.0800 
    143 H143        0.8099  -24.5109  -48.0427 H         1 UNK         0.0600 
    144 H144        2.5305  -24.0527  -45.7664 H         1 UNK         0.3000 
    145 H145        2.1418  -27.2505  -44.3130 H         1 UNK         0.0600 
    146 H146        3.6276  -27.7186  -46.2618 H         1 UNK         0.0600 
    147 H147        4.5679  -27.4169  -44.8091 H         1 UNK         0.0600 
    148 H148        4.4280  -26.1666  -46.0461 H         1 UNK         0.0600 
    149 H149        3.9588  -25.0549  -43.8807 H         1 UNK         0.3000 
    150 H150        1.8974  -23.4096  -41.4426 H         1 UNK         0.0600 
    151 H151        4.5857  -24.8687  -41.3120 H         1 UNK         0.0600 
    152 H152        3.1697  -25.2743  -40.3492 H         1 UNK         0.0600 
    153 H153        3.9542  -23.7188  -40.1333 H         1 UNK         0.0600 
    154 H154        4.3268  -22.4584  -42.2040 H         1 UNK         0.3000 
    155 H155        4.1799  -20.3049  -43.2032 H         1 UNK         0.0600 
    156 H156        4.4657  -21.6345  -45.9628 H         1 UNK         0.0600 
    157 H157        5.5733  -21.8371  -44.6118 H         1 UNK         0.0600 
    158 H158        5.4168  -20.2680  -45.3856 H         1 UNK         0.0600 
    159 H159        2.8731  -19.7999  -45.7449 H         1 UNK         0.3000 
    160 H160        1.3571  -17.9537  -45.8059 H         1 UNK         0.0600 
    161 H161       -0.8266  -19.8946  -44.8442 H         1 UNK         0.0600 
    162 H162        0.3443  -20.3025  -46.0894 H         1 UNK         0.0600 
    163 H163       -0.8017  -19.0092  -46.3624 H         1 UNK         0.0600 
    164 H164        0.3485  -17.5178  -43.2119 H         1 UNK         0.3000 
    165 H165       -1.8708  -15.9806  -42.9570 H         1 UNK         0.0600 
    166 H166        0.4981  -15.5849  -42.2280 H         1 UNK         0.0600 
    167 H167        0.7086  -14.3715  -43.4854 H         1 UNK         0.0600 
    168 H168       -0.3893  -14.0792  -42.1389 H         1 UNK         0.0600 
    169 H169       -1.7173  -14.4810  -45.3646 H         1 UNK         0.3000 
    170 H170       -2.7297  -12.5468  -45.7806 H         1 UNK         0.0600 
    171 H171       -5.4499  -13.2955  -44.6217 H         1 UNK         0.0600 
    172 H172       -4.5783  -14.1742  -45.8731 H         1 UNK         0.0600 
    173 H173       -5.1610  -12.5504  -46.1950 H         1 UNK         0.0600 
    174 H174       -4.5711  -11.1747  -43.9929 H         1 UNK         0.3000 
    175 H175       -1.0028   -9.2377  -44.5420 H         1 UNK         0.0600 
    176 H176       -0.5661  -10.8126  -42.5982 H         1 UNK         0.0600 
    177 H177       -0.4002  -12.1085  -43.7744 H         1 UNK         0.0600 
    178 H178        0.6824  -10.7325  -43.8305 H         1 UNK         0.0600 
    179 H179       -0.5204  -11.5238  -46.1168 H         1 UNK         0.3000 
    180 H180       -1.9175  -10.1953  -49.1471 H         1 UNK         0.0600 
    181 H181        0.9784  -10.4185  -48.1667 H         1 UNK         0.0600 
    182 H182        0.2266   -8.9595  -48.8029 H         1 UNK         0.0600 
    183 H183        0.4530  -10.3536  -49.8481 H         1 UNK         0.0600 
    184 H184       -0.2721  -12.4828  -48.5688 H         1 UNK         0.3000 
    185 H185       -2.8219  -14.8040  -48.1492 H         1 UNK         0.0600 
    186 H186       -3.2285  -14.5655  -50.5668 H         1 UNK         0.0600 
    187 H187       -1.5122  -14.3575  -50.8821 H         1 UNK         0.0600 
    188 H188       -2.1205  -15.8994  -50.2851 H         1 UNK         0.0600 
    189 H189       -0.8837  -15.4396  -47.3715 H         1 UNK         0.3000 
    190 H190        0.4591  -23.0803  -44.8101 H         1 UNK         0.3000 
    191 H191       -2.2680  -22.2869  -44.9840 H         1 UNK         0.0600 
    192 H192       -0.6705  -21.5248  -43.1988 H         1 UNK         0.0600 
    193 H193       -2.1203  -22.2351  -42.5044 H         1 UNK         0.0600 
    194 H194       -0.6206  -23.1533  -42.5422 H         1 UNK         0.0600 
    195 H195       -0.7191  -25.3635  -43.9293 H         1 UNK         0.3000 
    196 H196       -3.1091  -26.7645  -43.2945 H         1 UNK         0.0600 
    197 H197       -1.6540  -28.7817  -43.4231 H         1 UNK         0.0600 
    198 H198       -0.8631  -27.4902  -42.5322 H         1 UNK         0.0600 
    199 H199       -0.3831  -27.8402  -44.1909 H         1 UNK         0.0600 
    200 H200       -1.3164  -26.4319  -46.3672 H         1 UNK         0.3000 
    201 H201       -3.0892  -28.0866  -47.9346 H         1 UNK         0.0600 
    202 H202       -1.8045  -27.1290  -49.8347 H         1 UNK         0.0600 
    203 H203       -0.7121  -27.6387  -48.5571 H         1 UNK         0.0600 
    204 H204       -1.0800  -25.9284  -48.7745 H         1 UNK         0.0600 
    205 H205       -3.4736  -24.9768  -46.6156 H         1 UNK         0.3000 
    206 H206       -4.8881  -23.3067  -46.7544 H         1 UNK         0.0600 
    207 H207       -6.6284  -25.1200  -46.6823 H         1 UNK         0.0600 
    208 H208       -7.1879  -23.6871  -47.5244 H         1 UNK         0.0600 
    209 H209       -6.7055  -25.1028  -48.4440 H         1 UNK         0.0600 
    210 H210       -2.7372  -23.3294  -48.5835 H         1 UNK         0.3000 
    211 H211       -3.3800  -22.7896  -51.2608 H         1 UNK         0.0600 
    212 H212       -1.0418  -21.8931  -51.3686 H         1 UNK         0.0600 
    213 H213       -1.1072  -23.3991  -50.4641 H         1 UNK         0.0600 
    214 H214       -0.9679  -21.8618  -49.6135 H         1 UNK         0.0600 
    215 H215       -2.9765  -20.4873  -48.5551 H         1 UNK         0.3000 
    216 H216       -3.3176  -18.1150  -50.1481 H         1 UNK         0.0600 
    217 H217       -2.1055  -17.9689  -48.0509 H         1 UNK         0.0600 
    218 H218       -3.4654  -18.6177  -47.1306 H         1 UNK         0.0600 
    219 H219       -3.5715  -17.0252  -47.8638 H         1 UNK         0.0600 
    220 H220       -5.5695  -20.2222  -48.3914 H         1 UNK         0.3000 
    221 H221       -7.8575  -18.4496  -48.5944 H         1 UNK         0.0600 
    222 H222       -7.6800  -21.4359  -47.9379 H         1 UNK         0.0600 
    223 H223       -7.6578  -20.1206  -46.7639 H         1 UNK         0.0600 
    224 H224       -9.0985  -20.4201  -47.7243 H         1 UNK         0.0600 
    225 H225       -6.6232  -21.2737  -50.4107 H         1 UNK         0.3000 
    226 H226       -8.7296  -21.3622  -52.3653 H         1 UNK         0.0600 
    227 H227       -7.2683  -23.3061  -51.8091 H         1 UNK         0.0600 
    228 H228       -7.1463  -22.9152  -53.5179 H         1 UNK         0.0600 
    229 H229       -5.8572  -22.4421  -52.4167 H         1 UNK         0.0600 
    230 H230       -6.0814  -19.2403  -51.9484 H         1 UNK         0.3000 
    231 H231       -5.1042  -17.6035  -53.0482 H         1 UNK         0.0600 
    232 H232       -7.3929  -17.6862  -55.0845 H         1 UNK         0.0600 
    233 H233       -6.2730  -16.3594  -54.8153 H         1 UNK         0.0600 
    234 H234       -7.4220  -16.7975  -53.5615 H         1 UNK         0.0600 
    235 H235       -4.1630  -20.1510  -53.4119 H         1 UNK         0.3000 
    236 H236       -3.6404  -20.9206  -56.1100 H         1 UNK         0.0600 
    237 H237       -2.1397  -21.5980  -53.5232 H         1 UNK         0.0600 
    238 H238       -3.5377  -22.4713  -54.1497 H         1 UNK         0.0600 
    239 H239       -2.0220  -22.4803  -55.0400 H         1 UNK         0.0600 
    240 H240       -2.1662  -18.5425  -54.0572 H         1 UNK         0.3000 
    241 H241        0.3030  -18.2217  -55.5103 H         1 UNK         0.0600 
    242 H242       -2.4242  -16.1435  -57.6477 H         1 UNK         0.3800 
    243 H243       -2.9298  -17.3521  -56.4958 H         1 UNK         0.3800 
    244 H244        0.6094  -16.1774  -54.1677 H         1 UNK         0.0800 
    245 H245       -1.0566  -16.2084  -53.6595 H         1 UNK         0.0800 
    246 H246        1.7935  -19.1613  -53.7541 H         1 UNK         0.0800 
    247 H247        2.4604  -17.5935  -53.3564 H         1 UNK         0.0800 
@<TRIPOS>BOND
     1    1    2 1    
     2    1  127 1    
     3    1  128 1    
     4    1  129 1    
     5    2    3 2    
     6    2    4 am   BACKBONE|DICT|INTERRES
     7    4    5 1    
     8    4  130 1    
     9    5    6 1    
    10    5   65 1    
    11    5  131 1    
    12    6    7 1    
    13    6  132 1    
    14    6  133 1    
    15    7    8 1    
    16    8    9 1    
    17    8  134 1    
    18    8  135 1    
    19    9   10 ar   
    20    9   14 ar   
    21   10   11 ar   
    22   10  136 1    
    23   11   12 ar   
    24   11  126 1    
    25   12   13 ar   
    26   12  137 1    
    27   13   14 ar   
    28   13   15 1    
    29   14  138 1    
    30   15   16 1    
    31   15  139 1    
    32   15  140 1    
    33   16   17 1    
    34   17   18 1    
    35   17  141 1    
    36   17  142 1    
    37   18   19 1    
    38   18   67 1    
    39   18  143 1    
    40   19   20 am   BACKBONE|DICT|INTERRES
    41   19  144 1    
    42   20   21 2    
    43   20   22 1    
    44   22   23 1    
    45   22   24 1    
    46   22  145 1    
    47   23  146 1    
    48   23  147 1    
    49   23  148 1    
    50   24   25 am   BACKBONE|DICT|INTERRES
    51   24  149 1    
    52   25   26 2    
    53   25   27 1    
    54   27   28 1    
    55   27   29 1    
    56   27  150 1    
    57   28  151 1    
    58   28  152 1    
    59   28  153 1    
    60   29   30 am   BACKBONE|DICT|INTERRES
    61   29  154 1    
    62   30   31 2    
    63   30   32 1    
    64   32   33 1    
    65   32   34 1    
    66   32  155 1    
    67   33  156 1    
    68   33  157 1    
    69   33  158 1    
    70   34   35 am   BACKBONE|DICT|INTERRES
    71   34  159 1    
    72   35   36 2    
    73   35   37 1    
    74   37   38 1    
    75   37   39 1    
    76   37  160 1    
    77   38  161 1    
    78   38  162 1    
    79   38  163 1    
    80   39   40 am   BACKBONE|DICT|INTERRES
    81   39  164 1    
    82   40   41 2    
    83   40   42 1    
    84   42   43 1    
    85   42   44 1    
    86   42  165 1    
    87   43  166 1    
    88   43  167 1    
    89   43  168 1    
    90   44   45 am   BACKBONE|DICT|INTERRES
    91   44  169 1    
    92   45   46 2    
    93   45   47 1    
    94   47   48 1    
    95   47   49 1    
    96   47  170 1    
    97   48  171 1    
    98   48  172 1    
    99   48  173 1    
   100   49   50 am   BACKBONE|DICT|INTERRES
   101   49  174 1    
   102   50   51 2    
   103   50   52 1    
   104   52   53 1    
   105   52   54 1    
   106   52  175 1    
   107   53  176 1    
   108   53  177 1    
   109   53  178 1    
   110   54   55 am   BACKBONE|DICT|INTERRES
   111   54  179 1    
   112   55   56 2    
   113   55   57 1    
   114   57   58 1    
   115   57   59 1    
   116   57  180 1    
   117   58  181 1    
   118   58  182 1    
   119   58  183 1    
   120   59   60 am   BACKBONE|DICT|INTERRES
   121   59  184 1    
   122   60   61 2    
   123   60   62 1    
   124   62   63 1    
   125   62   64 1    
   126   62  185 1    
   127   63  186 1    
   128   63  187 1    
   129   63  188 1    
   130   64   65 am   BACKBONE|DICT|INTERRES
   131   64  189 1    
   132   65   66 2    
   133   67   68 2    
   134   67   69 am   BACKBONE|DICT|INTERRES
   135   69   70 1    
   136   69  190 1    
   137   70   71 1    
   138   70   72 1    
   139   70  191 1    
   140   71  192 1    
   141   71  193 1    
   142   71  194 1    
   143   72   73 2    
   144   72   74 am   BACKBONE|DICT|INTERRES
   145   74   75 1    
   146   74  195 1    
   147   75   76 1    
   148   75   77 1    
   149   75  196 1    
   150   76  197 1    
   151   76  198 1    
   152   76  199 1    
   153   77   78 2    
   154   77   79 am   BACKBONE|DICT|INTERRES
   155   79   80 1    
   156   79  200 1    
   157   80   81 1    
   158   80   82 1    
   159   80  201 1    
   160   81  202 1    
   161   81  203 1    
   162   81  204 1    
   163   82   83 2    
   164   82   84 am   BACKBONE|DICT|INTERRES
   165   84   85 1    
   166   84  205 1    
   167   85   86 1    
   168   85   87 1    
   169   85  206 1    
   170   86  207 1    
   171   86  208 1    
   172   86  209 1    
   173   87   88 2    
   174   87   89 am   BACKBONE|DICT|INTERRES
   175   89   90 1    
   176   89  210 1    
   177   90   91 1    
   178   90   92 1    
   179   90  211 1    
   180   91  212 1    
   181   91  213 1    
   182   91  214 1    
   183   92   93 2    
   184   92   94 am   BACKBONE|DICT|INTERRES
   185   94   95 1    
   186   94  215 1    
   187   95   96 1    
   188   95   97 1    
   189   95  216 1    
   190   96  217 1    
   191   96  218 1    
   192   96  219 1    
   193   97   98 2    
   194   97   99 am   BACKBONE|DICT|INTERRES
   195   99  100 1    
   196   99  220 1    
   197  100  101 1    
   198  100  102 1    
   199  100  221 1    
   200  101  222 1    
   201  101  223 1    
   202  101  224 1    
   203  102  103 2    
   204  102  104 am   BACKBONE|DICT|INTERRES
   205  104  105 1    
   206  104  225 1    
   207  105  106 1    
   208  105  107 1    
   209  105  226 1    
   210  106  227 1    
   211  106  228 1    
   212  106  229 1    
   213  107  108 2    
   214  107  109 am   BACKBONE|DICT|INTERRES
   215  109  110 1    
   216  109  230 1    
   217  110  111 1    
   218  110  112 1    
   219  110  231 1    
   220  111  232 1    
   221  111  233 1    
   222  111  234 1    
   223  112  113 2    
   224  112  114 am   BACKBONE|DICT|INTERRES
   225  114  115 1    
   226  114  235 1    
   227  115  116 1    
   228  115  117 1    
   229  115  236 1    
   230  116  237 1    
   231  116  238 1    
   232  116  239 1    
   233  117  118 2    
   234  117  119 am   BACKBONE|DICT|INTERRES
   235  119  120 1    
   236  119  240 1    
   237  120  121 1    
   238  120  124 1    
   239  120  241 1    
   240  121  122 am   BACKBONE|DICT|INTERRES
   241  121  123 2    
   242  122  242 1    
   243  122  243 1    
   244  124  125 1    
   245  124  244 1    
   246  124  245 1    
   247  125  126 1    
   248  126  246 1    
   249  126  247 1    
@<TRIPOS>SUBSTRUCTURE
     1 UNK         1 GROUP             0       ****    0 ROOT    
