@<TRIPOS>MOLECULE
3R540
247   249    1
SMALL
USER_CHARGES


@<TRIPOS>ATOM
      1 CA          1.6844   -9.2911  -49.5843 C.3       0 UNK        -0.1800 
      2 C           1.8798  -10.3397  -48.4985 C.2       0 UNK         0.5000 
      3 O           2.6659  -10.1267  -47.5746 O.2       0 UNK        -0.5000 
      4 N           1.1593  -11.4660  -48.5983 N.am      1 UNK        -0.5000 
      5 CA          1.2354  -12.6064  -47.6729 C.3       1 UNK         0.1400 
      6 C6          0.4207  -13.8250  -48.1680 C.3       23 UNK        -0.0398 
      7 S7          0.9278  -14.4539  -49.8007 S.3       23 UNK        -0.2404 
      8 C8         -0.6344  -15.2157  -50.3415 C.3       23 UNK        -0.0205 
      9 C9         -0.3911  -16.3717  -51.2975 C.ar      23 UNK        -0.0193 
     10 C10        -0.2576  -16.1402  -52.6694 C.ar      23 UNK        -0.1150 
     11 C11        -0.0487  -17.2028  -53.5540 C.ar      23 UNK        -0.0193 
     12 C12         0.0385  -18.5034  -53.0448 C.ar      23 UNK        -0.1150 
     13 C13        -0.1241  -18.7541  -51.6804 C.ar      23 UNK        -0.0193 
     14 C14        -0.3308  -17.6803  -50.8098 C.ar      23 UNK        -0.1150 
     15 C15        -0.1730  -20.1914  -51.1803 C.3       23 UNK        -0.0205 
     16 S16         1.2020  -20.6389  -50.0732 S.3       23 UNK        -0.2404 
     17 C17         0.4495  -20.4459  -48.4214 C.3       23 UNK        -0.0398 
     18 CA         -0.2251  -21.7380  -47.8863 C.3       11 UNK         0.1400 
     19 N          -0.2600  -21.7566  -46.4219 N.am      11 UNK        -0.5000 
     20 C          -0.6808  -22.7859  -45.6758 C.2       10 UNK         0.5000 
     21 O          -1.0412  -23.8647  -46.1437 O.2       10 UNK        -0.5000 
     22 CA         -0.7744  -22.5514  -44.1564 C.3       10 UNK         0.1400 
     23 CB          0.6041  -22.6694  -43.4909 C.3       10 UNK        -0.1800 
     24 N          -1.3826  -21.2611  -43.8257 N.am      10 UNK        -0.5000 
     25 C          -2.6421  -20.9242  -44.1408 C.2       9 UNK         0.5000 
     26 O          -3.4313  -21.6850  -44.7008 O.2       9 UNK        -0.5000 
     27 CA         -3.0807  -19.4834  -43.8281 C.3       9 UNK         0.1400 
     28 CB         -3.4535  -19.3342  -42.3460 C.3       9 UNK        -0.1800 
     29 N          -2.0632  -18.4945  -44.1818 N.am      9 UNK        -0.5000 
     30 C          -1.6065  -18.2766  -45.4238 C.2       8 UNK         0.5000 
     31 O          -2.0182  -18.8647  -46.4224 O.2       8 UNK        -0.5000 
     32 CA         -0.4511  -17.2715  -45.5633 C.3       8 UNK         0.1400 
     33 CB         -0.9739  -15.8331  -45.4313 C.3       8 UNK        -0.1800 
     34 N           0.6065  -17.5123  -44.5797 N.am      8 UNK        -0.5000 
     35 C           1.3086  -18.6505  -44.4722 C.2       7 UNK         0.5000 
     36 O           1.1861  -19.6045  -45.2383 O.2       7 UNK        -0.5000 
     37 CA          2.2656  -18.7689  -43.2755 C.3       7 UNK         0.1400 
     38 CB          3.6386  -18.1631  -43.6034 C.3       7 UNK        -0.1800 
     39 N           1.7086  -18.1342  -42.0819 N.am      7 UNK        -0.5000 
     40 C           0.6989  -18.6425  -41.3615 C.2       6 UNK         0.5000 
     41 O           0.1718  -19.7302  -41.5987 O.2       6 UNK        -0.5000 
     42 CA          0.1635  -17.7681  -40.2109 C.3       6 UNK         0.1400 
     43 CB          1.0260  -17.9408  -38.9519 C.3       6 UNK        -0.1800 
     44 N           0.0986  -16.3478  -40.5649 N.am      6 UNK        -0.5000 
     45 C          -0.7379  -15.8405  -41.4809 C.2       5 UNK         0.5000 
     46 O          -1.5789  -16.5145  -42.0753 O.2       5 UNK        -0.5000 
     47 CA         -0.5873  -14.3441  -41.8275 C.3       5 UNK         0.1400 
     48 CB         -1.5078  -13.4911  -40.9431 C.3       5 UNK        -0.1800 
     49 N           0.7798  -13.8162  -41.7482 N.am      5 UNK        -0.5000 
     50 C           1.8457  -14.3106  -42.3931 C.2       4 UNK         0.5000 
     51 O           1.8161  -15.3430  -43.0628 O.2       4 UNK        -0.5000 
     52 CA          3.1353  -13.4827  -42.2989 C.3       4 UNK         0.1400 
     53 CB          4.3467  -14.1735  -42.9516 C.3       4 UNK        -0.1800 
     54 N           2.8904  -12.2076  -42.9605 N.am      4 UNK        -0.5000 
     55 C           3.2566  -11.0028  -42.5061 C.2       3 UNK         0.5000 
     56 O           3.9138  -10.8338  -41.4782 O.2       3 UNK        -0.5000 
     57 CA          2.8072   -9.7712  -43.3239 C.3       3 UNK         0.1400 
     58 CB          3.9626   -9.2554  -44.1951 C.3       3 UNK        -0.1800 
     59 N           1.6497  -10.0275  -44.1838 N.am      3 UNK        -0.5000 
     60 C           0.4167  -10.3259  -43.7492 C.2       2 UNK         0.5000 
     61 O           0.0907  -10.3037  -42.5620 O.2       2 UNK        -0.5000 
     62 CA         -0.6202  -10.7612  -44.8066 C.3       2 UNK         0.1400 
     63 CB         -1.6020   -9.6162  -45.0977 C.3       2 UNK        -0.1800 
     64 N          -0.0545  -11.2319  -46.0770 N.am      2 UNK        -0.5000 
     65 C           0.7990  -12.2559  -46.2331 C.2       1 UNK         0.5000 
     66 O           1.2541  -12.9057  -45.2936 O.2       1 UNK        -0.5000 
     67 C          -1.6332  -21.9285  -48.4931 C.2       11 UNK         0.5000 
     68 O          -1.7972  -22.7047  -49.4327 O.2       11 UNK        -0.5000 
     69 N          -2.6193  -21.1982  -47.9572 N.am      12 UNK        -0.5000 
     70 CA         -3.9852  -21.1782  -48.4630 C.3       12 UNK         0.1400 
     71 CB         -4.7149  -19.9385  -47.9253 C.3       12 UNK        -0.1800 
     72 C          -4.7847  -22.4536  -48.1536 C.2       12 UNK         0.5000 
     73 O          -5.4616  -22.9546  -49.0528 O.2       12 UNK        -0.5000 
     74 N          -4.7457  -22.9151  -46.8971 N.am      13 UNK        -0.5000 
     75 CA         -5.6471  -23.9517  -46.3944 C.3       13 UNK         0.1400 
     76 CB         -6.2431  -23.4932  -45.0533 C.3       13 UNK        -0.1800 
     77 C          -4.9729  -25.3213  -46.2323 C.2       13 UNK         0.5000 
     78 O          -5.5901  -26.3298  -46.5786 O.2       13 UNK        -0.5000 
     79 N          -3.7558  -25.3555  -45.6709 N.am      14 UNK        -0.5000 
     80 CA         -3.0746  -26.6068  -45.3260 C.3       14 UNK         0.1400 
     81 CB         -2.0947  -26.3813  -44.1623 C.3       14 UNK        -0.1800 
     82 C          -2.3748  -27.2377  -46.5401 C.2       14 UNK         0.5000 
     83 O          -2.5297  -28.4372  -46.7754 O.2       14 UNK        -0.5000 
     84 N          -1.6256  -26.4233  -47.2921 N.am      15 UNK        -0.5000 
     85 CA         -0.9615  -26.8261  -48.5284 C.3       15 UNK         0.1400 
     86 CB          0.1530  -25.8212  -48.8565 C.3       15 UNK        -0.1800 
     87 C          -1.9661  -26.9220  -49.6900 C.2       15 UNK         0.5000 
     88 O          -2.8282  -26.0529  -49.8316 O.2       15 UNK        -0.5000 
     89 N          -1.8208  -27.9666  -50.5144 N.am      16 UNK        -0.5000 
     90 CA         -2.6050  -28.1562  -51.7371 C.3       16 UNK         0.1400 
     91 CB         -2.6332  -29.6508  -52.0917 C.3       16 UNK        -0.1800 
     92 C          -2.0464  -27.3343  -52.9138 C.2       16 UNK         0.5000 
     93 O          -2.8120  -26.9131  -53.7821 O.2       16 UNK        -0.5000 
     94 N          -0.7225  -27.1238  -52.9239 N.am      17 UNK        -0.5000 
     95 CA         -0.0057  -26.3352  -53.9217 C.3       17 UNK         0.1400 
     96 CB          1.5041  -26.5848  -53.7734 C.3       17 UNK        -0.1800 
     97 C          -0.3433  -24.8421  -53.7752 C.2       17 UNK         0.5000 
     98 O           0.0059  -24.2414  -52.7578 O.2       17 UNK        -0.5000 
     99 N          -1.0277  -24.2915  -54.7881 N.am      18 UNK        -0.5000 
    100 CA        -1.5147  -22.9096  -54.8716 C.3       18 UNK         0.1400 
    101 CB        -0.3381  -21.9237  -55.0035 C.3       18 UNK        -0.1800 
    102 C         -2.5011  -22.5418  -53.7411 C.2       18 UNK         0.5000 
    103 O         -2.4660  -21.4228  -53.2214 O.2       18 UNK        -0.5000 
    104 N         -3.3769  -23.4999  -53.4012 N.am      19 UNK        -0.5000 
    105 CA        -4.4299  -23.3858  -52.3905 C.3       19 UNK         0.1400 
    106 CB        -5.2152  -24.7049  -52.3396 C.3       19 UNK        -0.1800 
    107 C         -5.3869  -22.2003  -52.6292 C.2       19 UNK         0.5000 
    108 O         -5.5187  -21.7159  -53.7570 O.2       19 UNK        -0.5000 
    109 N         -6.0202  -21.7447  -51.5408 N.am      20 UNK        -0.5000 
    110 CA        -6.8732  -20.5529  -51.4475 C.3       20 UNK         0.1400 
    111 CB        -8.1514  -20.7182  -52.2961 C.3       20 UNK        -0.1800 
    112 C         -6.1188  -19.2363  -51.7468 C.2       20 UNK         0.5000 
    113 O         -6.7474  -18.2463  -52.1218 O.2       20 UNK        -0.5000 
    114 N         -4.7894  -19.2595  -51.5565 N.am      21 UNK        -0.5000 
    115 CA        -3.8193  -18.1971  -51.8270 C.3       21 UNK         0.1400 
    116 CB        -4.0580  -16.9737  -50.9166 C.3       21 UNK        -0.1800 
    117 C         -3.7685  -17.8491  -53.3260 C.2       21 UNK         0.5000 
    118 O         -4.1501  -16.7445  -53.7187 O.2       21 UNK        -0.5000 
    119 N         -3.3297  -18.8260  -54.1329 N.am      22 UNK        -0.5000 
    120 CA        -3.3380  -18.7896  -55.6049 C.3       22 UNK         0.1400 
    121 C         -4.7843  -18.7569  -56.1902 C.2       22 UNK         0.5000 
    122 N         -5.7090  -19.5533  -55.6664 N.am      22 UNK        -0.7600 
    123 O         -5.0820  -18.0236  -57.1299 O.2       22 UNK        -0.5000 
    124 C124       -2.3886  -17.7057  -56.2066 C.3       23 UNK        -0.0398 
    125 S125       -0.6276  -18.1815  -56.1401 S.3       23 UNK        -0.2404 
    126 C126        0.1181  -16.9226  -55.0454 C.3       23 UNK        -0.0205 
    127 H127        2.6300   -9.0949  -50.0899 H         1 UNK         0.0600 
    128 H128        1.3311   -8.3581  -49.1452 H         1 UNK         0.0600 
    129 H129        0.9586   -9.6119  -50.3322 H         1 UNK         0.0600 
    130 H130        0.5434  -11.5895  -49.3897 H         1 UNK         0.3000 
    131 H131        2.2846  -12.9050  -47.6177 H         1 UNK         0.0600 
    132 H132        0.5370  -14.6587  -47.4754 H         1 UNK         0.0800 
    133 H133       -0.6438  -13.5821  -48.1897 H         1 UNK         0.0800 
    134 H134       -1.2608  -14.4584  -50.8154 H         1 UNK         0.0800 
    135 H135       -1.1925  -15.5759  -49.4754 H         1 UNK         0.0800 
    136 H136       -0.3126  -15.1284  -53.0461 H         1 UNK         0.1150 
    137 H137        0.2048  -19.3307  -53.7177 H         1 UNK         0.1150 
    138 H138       -0.4669  -17.8586  -49.7542 H         1 UNK         0.1150 
    139 H139       -1.1356  -20.3569  -50.7004 H         1 UNK         0.0800 
    140 H140       -0.1476  -20.8844  -52.0210 H         1 UNK         0.0800 
    141 H141       -0.2346  -19.5981  -48.4006 H         1 UNK         0.0800 
    142 H142        1.2736  -20.1669  -47.7649 H         1 UNK         0.0800 
    143 H143        0.3831  -22.5930  -48.1884 H         1 UNK         0.0600 
    144 H144        0.0629  -20.9147  -45.9509 H         1 UNK         0.3000 
    145 H145       -1.4151  -23.3310  -43.7398 H         1 UNK         0.0600 
    146 H146        0.5317  -22.5491  -42.4098 H         1 UNK         0.0600 
    147 H147        1.0443  -23.6490  -43.6813 H         1 UNK         0.0600 
    148 H148        1.3007  -21.9196  -43.8647 H         1 UNK         0.0600 
    149 H149       -0.8024  -20.5909  -43.3347 H         1 UNK         0.3000 
    150 H150       -3.9700  -19.2717  -44.4251 H         1 UNK         0.0600 
    151 H151       -4.2224  -20.0537  -42.0618 H         1 UNK         0.0600 
    152 H152       -3.8461  -18.3387  -42.1379 H         1 UNK         0.0600 
    153 H153       -2.5938  -19.4957  -41.6951 H         1 UNK         0.0600 
    154 H154       -1.6999  -17.9261  -43.4221 H         1 UNK         0.3000 
    155 H155       -0.0082  -17.3892  -46.5544 H         1 UNK         0.0600 
    156 H156       -1.6377  -15.7140  -44.5762 H         1 UNK         0.0600 
    157 H157       -1.5409  -15.5462  -46.3173 H         1 UNK         0.0600 
    158 H158       -0.1574  -15.1234  -45.3116 H         1 UNK         0.0600 
    159 H159        0.8268  -16.7545  -43.9398 H         1 UNK         0.3000 
    160 H160        2.4101  -19.8303  -43.0637 H         1 UNK         0.0600 
    161 H161        3.5663  -17.1109  -43.8779 H         1 UNK         0.0600 
    162 H162        4.1002  -18.6855  -44.4422 H         1 UNK         0.0600 
    163 H163        4.3191  -18.2436  -42.7558 H         1 UNK         0.0600 
    164 H164        2.0196  -17.1914  -41.8903 H         1 UNK         0.3000 
    165 H165       -0.8483  -18.1081  -39.9795 H         1 UNK         0.0600 
    166 H166        0.6100  -17.3869  -38.1102 H         1 UNK         0.0600 
    167 H167        1.0777  -18.9895  -38.6558 H         1 UNK         0.0600 
    168 H168        2.0477  -17.5937  -39.1109 H         1 UNK         0.0600 
    169 H169        0.7608  -15.7297  -40.1199 H         1 UNK         0.3000 
    170 H170       -0.9106  -14.2196  -42.8621 H         1 UNK         0.0600 
    171 H171       -2.5400  -13.8392  -41.0019 H         1 UNK         0.0600 
    172 H172       -1.2068  -13.5292  -39.8955 H         1 UNK         0.0600 
    173 H173       -1.5005  -12.4472  -41.2578 H         1 UNK         0.0600 
    174 H174        0.8905  -12.9476  -41.2448 H         1 UNK         0.3000 
    175 H175        3.3478  -13.3333  -41.2384 H         1 UNK         0.0600 
    176 H176        4.1823  -14.3520  -44.0152 H         1 UNK         0.0600 
    177 H177        5.2467  -13.5671  -42.8497 H         1 UNK         0.0600 
    178 H178        4.5475  -15.1366  -42.4812 H         1 UNK         0.0600 
    179 H179        2.3232  -12.2691  -43.8029 H         1 UNK         0.3000 
    180 H180        2.5343   -8.9876  -42.6141 H         1 UNK         0.0600 
    181 H181        4.2620   -9.9929  -44.9412 H         1 UNK         0.0600 
    182 H182        4.8394   -9.0256  -43.5883 H         1 UNK         0.0600 
    183 H183        3.6834   -8.3421  -44.7210 H         1 UNK         0.0600 
    184 H184        1.8302  -10.0752  -45.1779 H         1 UNK         0.3000 
    185 H185       -1.1817  -11.5924  -44.3749 H         1 UNK         0.0600 
    186 H186       -2.0699   -9.2577  -44.1797 H         1 UNK         0.0600 
    187 H187       -1.1007   -8.7672  -45.5641 H         1 UNK         0.0600 
    188 H188       -2.4030   -9.9412  -45.7619 H         1 UNK         0.0600 
    189 H189       -0.3549  -10.7421  -46.9072 H         1 UNK         0.3000 
    190 H190       -2.3987  -20.5368  -47.2165 H         1 UNK         0.3000 
    191 H191       -3.9298  -21.0838  -49.5483 H         1 UNK         0.0600 
    192 H192       -4.7698  -19.9457  -46.8360 H         1 UNK         0.0600 
    193 H193       -5.7351  -19.8847  -48.3067 H         1 UNK         0.0600 
    194 H194       -4.2069  -19.0226  -48.2258 H         1 UNK         0.0600 
    195 H195       -4.1709  -22.4377  -46.2054 H         1 UNK         0.3000 
    196 H196       -6.4846  -24.0851  -47.0828 H         1 UNK         0.0600 
    197 H197       -6.9658  -24.2195  -44.6793 H         1 UNK         0.0600 
    198 H198       -6.7638  -22.5413  -45.1585 H         1 UNK         0.0600 
    199 H199       -5.4765  -23.3720  -44.2874 H         1 UNK         0.0600 
    200 H200       -3.2729  -24.4916  -45.4681 H         1 UNK         0.3000 
    201 H201       -3.8225  -27.3201  -44.9720 H         1 UNK         0.0600 
    202 H202       -2.5901  -25.9112  -43.3127 H         1 UNK         0.0600 
    203 H203       -1.2487  -25.7579  -44.4462 H         1 UNK         0.0600 
    204 H204       -1.6881  -27.3318  -43.8151 H         1 UNK         0.0600 
    205 H205       -1.5421  -25.4460  -47.0225 H         1 UNK         0.3000 
    206 H206       -0.5004  -27.8036  -48.3714 H         1 UNK         0.0600 
    207 H207       -0.2498  -24.8260  -49.0417 H         1 UNK         0.0600 
    208 H208        0.8713  -25.7448  -48.0401 H         1 UNK         0.0600 
    209 H209        0.7013  -26.1216  -49.7501 H         1 UNK         0.0600 
    210 H210       -1.1106  -28.6575  -50.3186 H         1 UNK         0.3000 
    211 H211       -3.6331  -27.8332  -51.5598 H         1 UNK         0.0600 
    212 H212       -1.6323  -30.0415  -52.2799 H         1 UNK         0.0600 
    213 H213       -3.2283  -29.8271  -52.9887 H         1 UNK         0.0600 
    214 H214       -3.0776  -30.2380  -51.2878 H         1 UNK         0.0600 
    215 H215       -0.1757  -27.4739  -52.1526 H         1 UNK         0.3000 
    216 H216       -0.3076  -26.6779  -54.9138 H         1 UNK         0.0600 
    217 H217        2.0674  -26.0081  -54.5080 H         1 UNK         0.0600 
    218 H218        1.7473  -27.6359  -53.9298 H         1 UNK         0.0600 
    219 H219        1.8666  -26.3000  -52.7847 H         1 UNK         0.0600 
    220 H220       -1.2862  -24.8869  -55.5629 H         1 UNK         0.3000 
    221 H221       -2.0917  -22.8457  -55.7952 H         1 UNK         0.0600 
    222 H222        0.2846  -21.9075  -54.1096 H         1 UNK         0.0600 
    223 H223        0.2983  -22.1795  -55.8503 H         1 UNK         0.0600 
    224 H224       -0.7042  -20.9125  -55.1701 H         1 UNK         0.0600 
    225 H225       -3.3153  -24.3891  -53.8766 H         1 UNK         0.3000 
    226 H226       -3.9347  -23.2375  -51.4284 H         1 UNK         0.0600 
    227 H227       -5.6849  -24.9315  -53.2975 H         1 UNK         0.0600 
    228 H228       -4.5646  -25.5380  -52.0762 H         1 UNK         0.0600 
    229 H229       -6.0025  -24.6655  -51.5856 H         1 UNK         0.0600 
    230 H230       -5.8740  -22.2422  -50.6626 H         1 UNK         0.3000 
    231 H231       -7.1821  -20.4891  -50.4034 H         1 UNK         0.0600 
    232 H232       -8.6538  -21.6595  -52.0735 H         1 UNK         0.0600 
    233 H233       -7.9365  -20.6962  -53.3647 H         1 UNK         0.0600 
    234 H234       -8.8621  -19.9167  -52.0919 H         1 UNK         0.0600 
    235 H235       -4.3856  -20.1502  -51.3107 H         1 UNK         0.3000 
    236 H236       -2.8466  -18.6102  -51.5695 H         1 UNK         0.0600 
    237 H237       -5.0373  -16.5237  -51.0787 H         1 UNK         0.0600 
    238 H238       -3.9817  -17.2437  -49.8640 H         1 UNK         0.0600 
    239 H239       -3.3153  -16.1996  -51.1075 H         1 UNK         0.0600 
    240 H240       -3.0449  -19.7127  -53.7229 H         1 UNK         0.3000 
    241 H241       -2.9542  -19.7592  -55.9237 H         1 UNK         0.0600 
    242 H242       -5.4947  -20.2119  -54.9213 H         1 UNK         0.3800 
    243 H243       -6.6413  -19.5314  -56.0464 H         1 UNK         0.3800 
    244 H244       -2.6016  -17.5516  -57.2652 H         1 UNK         0.0800 
    245 H245       -2.5389  -16.7344  -55.7363 H         1 UNK         0.0800 
    246 H246        1.1868  -16.8778  -55.2580 H         1 UNK         0.0800 
    247 H247       -0.2850  -15.9422  -55.3035 H         1 UNK         0.0800 
@<TRIPOS>BOND
     1    1    2 1    
     2    1  127 1    
     3    1  128 1    
     4    1  129 1    
     5    2    3 2    
     6    2    4 am   BACKBONE|DICT|INTERRES
     7    4    5 1    
     8    4  130 1    
     9    5    6 1    
    10    5   65 1    
    11    5  131 1    
    12    6    7 1    
    13    6  132 1    
    14    6  133 1    
    15    7    8 1    
    16    8    9 1    
    17    8  134 1    
    18    8  135 1    
    19    9   10 ar   
    20    9   14 ar   
    21   10   11 ar   
    22   10  136 1    
    23   11   12 ar   
    24   11  126 1    
    25   12   13 ar   
    26   12  137 1    
    27   13   14 ar   
    28   13   15 1    
    29   14  138 1    
    30   15   16 1    
    31   15  139 1    
    32   15  140 1    
    33   16   17 1    
    34   17   18 1    
    35   17  141 1    
    36   17  142 1    
    37   18   19 1    
    38   18   67 1    
    39   18  143 1    
    40   19   20 am   BACKBONE|DICT|INTERRES
    41   19  144 1    
    42   20   21 2    
    43   20   22 1    
    44   22   23 1    
    45   22   24 1    
    46   22  145 1    
    47   23  146 1    
    48   23  147 1    
    49   23  148 1    
    50   24   25 am   BACKBONE|DICT|INTERRES
    51   24  149 1    
    52   25   26 2    
    53   25   27 1    
    54   27   28 1    
    55   27   29 1    
    56   27  150 1    
    57   28  151 1    
    58   28  152 1    
    59   28  153 1    
    60   29   30 am   BACKBONE|DICT|INTERRES
    61   29  154 1    
    62   30   31 2    
    63   30   32 1    
    64   32   33 1    
    65   32   34 1    
    66   32  155 1    
    67   33  156 1    
    68   33  157 1    
    69   33  158 1    
    70   34   35 am   BACKBONE|DICT|INTERRES
    71   34  159 1    
    72   35   36 2    
    73   35   37 1    
    74   37   38 1    
    75   37   39 1    
    76   37  160 1    
    77   38  161 1    
    78   38  162 1    
    79   38  163 1    
    80   39   40 am   BACKBONE|DICT|INTERRES
    81   39  164 1    
    82   40   41 2    
    83   40   42 1    
    84   42   43 1    
    85   42   44 1    
    86   42  165 1    
    87   43  166 1    
    88   43  167 1    
    89   43  168 1    
    90   44   45 am   BACKBONE|DICT|INTERRES
    91   44  169 1    
    92   45   46 2    
    93   45   47 1    
    94   47   48 1    
    95   47   49 1    
    96   47  170 1    
    97   48  171 1    
    98   48  172 1    
    99   48  173 1    
   100   49   50 am   BACKBONE|DICT|INTERRES
   101   49  174 1    
   102   50   51 2    
   103   50   52 1    
   104   52   53 1    
   105   52   54 1    
   106   52  175 1    
   107   53  176 1    
   108   53  177 1    
   109   53  178 1    
   110   54   55 am   BACKBONE|DICT|INTERRES
   111   54  179 1    
   112   55   56 2    
   113   55   57 1    
   114   57   58 1    
   115   57   59 1    
   116   57  180 1    
   117   58  181 1    
   118   58  182 1    
   119   58  183 1    
   120   59   60 am   BACKBONE|DICT|INTERRES
   121   59  184 1    
   122   60   61 2    
   123   60   62 1    
   124   62   63 1    
   125   62   64 1    
   126   62  185 1    
   127   63  186 1    
   128   63  187 1    
   129   63  188 1    
   130   64   65 am   BACKBONE|DICT|INTERRES
   131   64  189 1    
   132   65   66 2    
   133   67   68 2    
   134   67   69 am   BACKBONE|DICT|INTERRES
   135   69   70 1    
   136   69  190 1    
   137   70   71 1    
   138   70   72 1    
   139   70  191 1    
   140   71  192 1    
   141   71  193 1    
   142   71  194 1    
   143   72   73 2    
   144   72   74 am   BACKBONE|DICT|INTERRES
   145   74   75 1    
   146   74  195 1    
   147   75   76 1    
   148   75   77 1    
   149   75  196 1    
   150   76  197 1    
   151   76  198 1    
   152   76  199 1    
   153   77   78 2    
   154   77   79 am   BACKBONE|DICT|INTERRES
   155   79   80 1    
   156   79  200 1    
   157   80   81 1    
   158   80   82 1    
   159   80  201 1    
   160   81  202 1    
   161   81  203 1    
   162   81  204 1    
   163   82   83 2    
   164   82   84 am   BACKBONE|DICT|INTERRES
   165   84   85 1    
   166   84  205 1    
   167   85   86 1    
   168   85   87 1    
   169   85  206 1    
   170   86  207 1    
   171   86  208 1    
   172   86  209 1    
   173   87   88 2    
   174   87   89 am   BACKBONE|DICT|INTERRES
   175   89   90 1    
   176   89  210 1    
   177   90   91 1    
   178   90   92 1    
   179   90  211 1    
   180   91  212 1    
   181   91  213 1    
   182   91  214 1    
   183   92   93 2    
   184   92   94 am   BACKBONE|DICT|INTERRES
   185   94   95 1    
   186   94  215 1    
   187   95   96 1    
   188   95   97 1    
   189   95  216 1    
   190   96  217 1    
   191   96  218 1    
   192   96  219 1    
   193   97   98 2    
   194   97   99 am   BACKBONE|DICT|INTERRES
   195   99  100 1    
   196   99  220 1    
   197  100  101 1    
   198  100  102 1    
   199  100  221 1    
   200  101  222 1    
   201  101  223 1    
   202  101  224 1    
   203  102  103 2    
   204  102  104 am   BACKBONE|DICT|INTERRES
   205  104  105 1    
   206  104  225 1    
   207  105  106 1    
   208  105  107 1    
   209  105  226 1    
   210  106  227 1    
   211  106  228 1    
   212  106  229 1    
   213  107  108 2    
   214  107  109 am   BACKBONE|DICT|INTERRES
   215  109  110 1    
   216  109  230 1    
   217  110  111 1    
   218  110  112 1    
   219  110  231 1    
   220  111  232 1    
   221  111  233 1    
   222  111  234 1    
   223  112  113 2    
   224  112  114 am   BACKBONE|DICT|INTERRES
   225  114  115 1    
   226  114  235 1    
   227  115  116 1    
   228  115  117 1    
   229  115  236 1    
   230  116  237 1    
   231  116  238 1    
   232  116  239 1    
   233  117  118 2    
   234  117  119 am   BACKBONE|DICT|INTERRES
   235  119  120 1    
   236  119  240 1    
   237  120  121 1    
   238  120  124 1    
   239  120  241 1    
   240  121  122 am   BACKBONE|DICT|INTERRES
   241  121  123 2    
   242  122  242 1    
   243  122  243 1    
   244  124  125 1    
   245  124  244 1    
   246  124  245 1    
   247  125  126 1    
   248  126  246 1    
   249  126  247 1    
@<TRIPOS>SUBSTRUCTURE
     1 UNK         1 GROUP             0       ****    0 ROOT    
