@<TRIPOS>MOLECULE
3R540
247   249    1
SMALL
USER_CHARGES


@<TRIPOS>ATOM
      1 CA          3.3628  -15.5530  -43.2564 C.3       0 UNK        -0.1800 
      2 C           2.8279  -15.2469  -44.6472 C.2       0 UNK         0.5000 
      3 O           1.8838  -14.4715  -44.7867 O.2       0 UNK        -0.5000 
      4 N           3.4428  -15.8308  -45.6838 N.am      1 UNK        -0.5000 
      5 CA          3.0460  -15.7107  -47.0946 C.3       1 UNK         0.1400 
      6 C6          3.6579  -16.8263  -47.9736 C.3       23 UNK        -0.0398 
      7 S7          5.4704  -17.0146  -47.8230 S.3       23 UNK        -0.2404 
      8 C8          5.8973  -17.7691  -49.4281 C.3       23 UNK        -0.0205 
      9 C9          5.0730  -19.0181  -49.7061 C.ar      23 UNK        -0.0193 
     10 C10         3.9390  -18.9363  -50.5184 C.ar      23 UNK        -0.1150 
     11 C11         3.1232  -20.0516  -50.7138 C.ar      23 UNK        -0.0193 
     12 C12         3.4788  -21.2726  -50.1356 C.ar      23 UNK        -0.1150 
     13 C13         4.6244  -21.3755  -49.3404 C.ar      23 UNK        -0.0193 
     14 C14         5.4171  -20.2430  -49.1266 C.ar      23 UNK        -0.1150 
     15 C15         5.0000  -22.7065  -48.7048 C.3       23 UNK        -0.0205 
     16 S16         4.4615  -22.8055  -46.9682 S.3       23 UNK        -0.2404 
     17 C17         2.6438  -22.8683  -47.1365 C.3       23 UNK        -0.0398 
     18 CA          2.0007  -23.9923  -46.2899 C.3       11 UNK         0.1400 
     19 N           2.2965  -23.8347  -44.8643 N.am      11 UNK        -0.5000 
     20 C           2.5106  -24.8378  -44.0051 C.2       10 UNK         0.5000 
     21 O           2.4321  -26.0282  -44.3104 O.2       10 UNK        -0.5000 
     22 CA          2.8957  -24.4501  -42.5631 C.3       10 UNK         0.1400 
     23 CB          4.4225  -24.4840  -42.3939 C.3       10 UNK        -0.1800 
     24 N           2.4078  -23.1252  -42.1741 N.am      10 UNK        -0.5000 
     25 C           1.1356  -22.8532  -41.8559 C.2       9 UNK         0.5000 
     26 O           0.2458  -23.7028  -41.8096 O.2       9 UNK        -0.5000 
     27 CA          0.7915  -21.3778  -41.5689 C.3       9 UNK         0.1400 
     28 CB          0.9640  -21.0683  -40.0741 C.3       9 UNK        -0.1800 
     29 N           1.5527  -20.3965  -42.3545 N.am      9 UNK        -0.5000 
     30 C           1.5762  -20.3403  -43.6921 C.2       8 UNK         0.5000 
     31 O           1.0879  -21.2068  -44.4192 O.2       8 UNK        -0.5000 
     32 CA          2.2719  -19.1296  -44.3387 C.3       8 UNK         0.1400 
     33 CB          3.7195  -19.4761  -44.7163 C.3       8 UNK        -0.1800 
     34 N           1.5468  -18.7285  -45.5443 N.am      8 UNK        -0.5000 
     35 C           0.3418  -18.1455  -45.5254 C.2       7 UNK         0.5000 
     36 O          -0.1906  -17.7051  -44.5019 O.2       7 UNK        -0.5000 
     37 CA         -0.4141  -18.1022  -46.8624 C.3       7 UNK         0.1400 
     38 CB         -0.7388  -19.5316  -47.3340 C.3       7 UNK        -0.1800 
     39 N          -1.6509  -17.3580  -46.6591 N.am      7 UNK        -0.5000 
     40 C          -2.3948  -16.7720  -47.6012 C.2       6 UNK         0.5000 
     41 O          -2.1235  -16.8099  -48.8033 O.2       6 UNK        -0.5000 
     42 CA         -3.6664  -16.0376  -47.1341 C.3       6 UNK         0.1400 
     43 CB         -3.7950  -15.8808  -45.6042 C.3       6 UNK        -0.1800 
     44 N          -3.7093  -14.7223  -47.7596 N.am      6 UNK        -0.5000 
     45 C          -4.8054  -14.1260  -48.2468 C.2       5 UNK         0.5000 
     46 O          -5.9359  -14.6056  -48.1579 O.2       5 UNK        -0.5000 
     47 CA         -4.6315  -12.7596  -48.9475 C.3       5 UNK         0.1400 
     48 CB         -5.2703  -11.6389  -48.1114 C.3       5 UNK        -0.1800 
     49 N          -3.2369  -12.4035  -49.2093 N.am      5 UNK        -0.5000 
     50 C          -2.4426  -12.9874  -50.1163 C.2       4 UNK         0.5000 
     51 O          -2.8379  -13.8224  -50.9289 O.2       4 UNK        -0.5000 
     52 CA         -0.9495  -12.5974  -50.0924 C.3       4 UNK         0.1400 
     53 CB         -0.6194  -11.6580  -51.2618 C.3       4 UNK        -0.1800 
     54 N          -0.5020  -11.9690  -48.8428 N.am      4 UNK        -0.5000 
     55 C          -0.5159  -12.5428  -47.6324 C.2       3 UNK         0.5000 
     56 O          -0.9438  -13.6786  -47.4215 O.2       3 UNK        -0.5000 
     57 CA          0.0682  -11.7073  -46.4799 C.3       3 UNK         0.1400 
     58 CB         -0.5686  -12.0609  -45.1246 C.3       3 UNK        -0.1800 
     59 N           1.5058  -11.9440  -46.4176 N.am      3 UNK        -0.5000 
     60 C           2.4114  -11.3397  -47.2026 C.2       2 UNK         0.5000 
     61 O           2.1497  -10.3778  -47.9263 O.2       2 UNK        -0.5000 
     62 CA          3.8346  -11.9383  -47.2234 C.3       2 UNK         0.1400 
     63 CB          4.7366  -11.2264  -46.2043 C.3       2 UNK        -0.1800 
     64 N           3.8420  -13.3762  -46.9481 N.am      2 UNK        -0.5000 
     65 C           3.2416  -14.3050  -47.7071 C.2       1 UNK         0.5000 
     66 O           2.7956  -14.0730  -48.8315 O.2       1 UNK        -0.5000 
     67 C           0.4834  -24.0200  -46.5503 C.2       11 UNK         0.5000 
     68 O           0.0583  -24.6209  -47.5356 O.2       11 UNK        -0.5000 
     69 N          -0.2970  -23.3532  -45.6880 N.am      12 UNK        -0.5000 
     70 CA         -1.7175  -23.0279  -45.8394 C.3       12 UNK         0.1400 
     71 CB         -2.2083  -22.3552  -44.5479 C.3       12 UNK        -0.1800 
     72 C          -2.6532  -24.1834  -46.2309 C.2       12 UNK         0.5000 
     73 O          -3.5966  -23.9557  -46.9908 O.2       12 UNK        -0.5000 
     74 N          -2.3680  -25.3909  -45.7286 N.am      13 UNK        -0.5000 
     75 CA         -3.1192  -26.6107  -46.0276 C.3       13 UNK         0.1400 
     76 CB         -2.7363  -27.6955  -45.0095 C.3       13 UNK        -0.1800 
     77 C          -2.9045  -27.1218  -47.4658 C.2       13 UNK         0.5000 
     78 O          -3.8249  -27.7014  -48.0429 O.2       13 UNK        -0.5000 
     79 N          -1.7044  -26.8986  -48.0168 N.am      14 UNK        -0.5000 
     80 CA         -1.3334  -27.2705  -49.3823 C.3       14 UNK         0.1400 
     81 CB          0.1584  -27.6386  -49.4178 C.3       14 UNK        -0.1800 
     82 C          -1.6321  -26.1302  -50.3689 C.2       14 UNK         0.5000 
     83 O          -2.0840  -26.3903  -51.4843 O.2       14 UNK        -0.5000 
     84 N          -1.3862  -24.8873  -49.9328 N.am      15 UNK        -0.5000 
     85 CA         -1.6231  -23.6607  -50.6936 C.3       15 UNK         0.1400 
     86 CB         -0.8852  -22.5027  -50.0050 C.3       15 UNK        -0.1800 
     87 C          -3.1147  -23.3133  -50.8571 C.2       15 UNK         0.5000 
     88 O          -3.4507  -22.5508  -51.7629 O.2       15 UNK        -0.5000 
     89 N          -3.9657  -23.8603  -49.9742 N.am      16 UNK        -0.5000 
     90 CA         -5.4045  -23.6137  -49.8508 C.3       16 UNK         0.1400 
     91 CB         -6.1658  -24.1244  -51.0912 C.3       16 UNK        -0.1800 
     92 C          -5.6751  -22.1320  -49.5336 C.2       16 UNK         0.5000 
     93 O          -6.3308  -21.4332  -50.3099 O.2       16 UNK        -0.5000 
     94 N          -5.1157  -21.6750  -48.4043 N.am      17 UNK        -0.5000 
     95 CA         -5.0679  -20.2734  -47.9705 C.3       17 UNK         0.1400 
     96 CB         -4.3895  -20.1947  -46.5974 C.3       17 UNK        -0.1800 
     97 C          -6.4273  -19.5531  -47.9163 C.2       17 UNK         0.5000 
     98 O          -6.4945  -18.3630  -48.2169 O.2       17 UNK        -0.5000 
     99 N          -7.4775  -20.2888  -47.5348 N.am      18 UNK        -0.5000 
    100 CA        -8.8396  -19.7751  -47.3989 C.3       18 UNK         0.1400 
    101 CB        -9.5888  -20.6539  -46.3839 C.3       18 UNK        -0.1800 
    102 C         -9.6173  -19.7137  -48.7288 C.2       18 UNK         0.5000 
    103 O        -10.6718  -19.0774  -48.7638 O.2       18 UNK        -0.5000 
    104 N         -9.1249  -20.3903  -49.7761 N.am      19 UNK        -0.5000 
    105 CA        -9.8279  -20.5623  -51.0481 C.3       19 UNK         0.1400 
    106 CB       -10.0365  -22.0635  -51.3086 C.3       19 UNK        -0.1800 
    107 C         -9.0763  -19.9089  -52.2159 C.2       19 UNK         0.5000 
    108 O         -9.6783  -19.1363  -52.9630 O.2       19 UNK        -0.5000 
    109 N         -7.7899  -20.2426  -52.3674 N.am      20 UNK        -0.5000 
    110 CA        -6.9447  -19.8000  -53.4734 C.3       20 UNK         0.1400 
    111 CB        -6.1155  -20.9905  -53.9824 C.3       20 UNK        -0.1800 
    112 C         -6.0343  -18.6418  -53.0443 C.2       20 UNK         0.5000 
    113 O         -6.0186  -17.6122  -53.7205 O.2       20 UNK        -0.5000 
    114 N         -5.3131  -18.8391  -51.9288 N.am      21 UNK        -0.5000 
    115 CA        -4.2797  -17.9633  -51.3575 C.3       21 UNK         0.1400 
    116 CB        -4.8632  -16.5841  -50.9988 C.3       21 UNK        -0.1800 
    117 C         -3.0087  -17.8400  -52.2294 C.2       21 UNK         0.5000 
    118 O         -3.0084  -18.2019  -53.4088 O.2       21 UNK        -0.5000 
    119 N         -1.9222  -17.3621  -51.6128 N.am      22 UNK        -0.5000 
    120 CA        -0.5965  -17.2404  -52.2454 C.3       22 UNK         0.1400 
    121 C         -0.3939  -15.9614  -53.1058 C.2       22 UNK         0.5000 
    122 N         -1.2532  -14.9543  -53.0370 N.am      22 UNK        -0.7600 
    123 O          0.5605  -15.8896  -53.8751 O.2       22 UNK        -0.5000 
    124 C124        0.5473  -17.4174  -51.2163 C.3       23 UNK        -0.0398 
    125 S125        0.5461  -19.1069  -50.5289 S.3       23 UNK        -0.2404 
    126 C126        1.8385  -19.9276  -51.5146 C.3       23 UNK        -0.0205 
    127 H127        2.5614  -15.9354  -42.6243 H         1 UNK         0.0600 
    128 H128        3.7561  -14.6458  -42.7980 H         1 UNK         0.0600 
    129 H129        4.1598  -16.2966  -43.2832 H         1 UNK         0.0600 
    130 H130        4.2487  -16.4176  -45.5191 H         1 UNK         0.3000 
    131 H131        1.9648  -15.8632  -47.1178 H         1 UNK         0.0600 
    132 H132        3.2108  -17.7836  -47.7059 H         1 UNK         0.0800 
    133 H133        3.3919  -16.6654  -49.0190 H         1 UNK         0.0800 
    134 H134        5.7544  -17.0324  -50.2202 H         1 UNK         0.0800 
    135 H135        6.9588  -18.0203  -49.4327 H         1 UNK         0.0800 
    136 H136        3.6662  -17.9919  -50.9664 H         1 UNK         0.1150 
    137 H137        2.8539  -22.1397  -50.2946 H         1 UNK         0.1150 
    138 H138        6.2908  -20.3106  -48.4934 H         1 UNK         0.1150 
    139 H139        4.5765  -23.5388  -49.2691 H         1 UNK         0.0800 
    140 H140        6.0828  -22.8337  -48.7445 H         1 UNK         0.0800 
    141 H141        2.2437  -21.8911  -46.8600 H         1 UNK         0.0800 
    142 H142        2.3887  -23.0146  -48.1863 H         1 UNK         0.0800 
    143 H143        2.4038  -24.9451  -46.6401 H         1 UNK         0.0600 
    144 H144        2.3200  -22.8832  -44.5212 H         1 UNK         0.3000 
    145 H145        2.4618  -25.1947  -41.8921 H         1 UNK         0.0600 
    146 H146        4.7106  -24.2719  -41.3641 H         1 UNK         0.0600 
    147 H147        4.8216  -25.4674  -42.6459 H         1 UNK         0.0600 
    148 H148        4.9152  -23.7551  -43.0389 H         1 UNK         0.0600 
    149 H149        3.0758  -22.3685  -42.1832 H         1 UNK         0.3000 
    150 H150       -0.2622  -21.2426  -41.8223 H         1 UNK         0.0600 
    151 H151        0.3912  -21.7656  -39.4611 H         1 UNK         0.0600 
    152 H152        0.6119  -20.0647  -39.8350 H         1 UNK         0.0600 
    153 H153        2.0078  -21.1414  -39.7662 H         1 UNK         0.0600 
    154 H154        1.9974  -19.6583  -41.8282 H         1 UNK         0.3000 
    155 H155        2.2770  -18.2985  -43.6315 H         1 UNK         0.0600 
    156 H156        4.2271  -18.6251  -45.1690 H         1 UNK         0.0600 
    157 H157        3.7642  -20.3028  -45.4254 H         1 UNK         0.0600 
    158 H158        4.2953  -19.7668  -43.8369 H         1 UNK         0.0600 
    159 H159        1.8801  -19.1248  -46.4095 H         1 UNK         0.3000 
    160 H160        0.2001  -17.5895  -47.6053 H         1 UNK         0.0600 
    161 H161       -1.1971  -20.1048  -46.5307 H         1 UNK         0.0600 
    162 H162        0.1634  -20.0649  -47.6349 H         1 UNK         0.0600 
    163 H163       -1.4176  -19.5370  -48.1869 H         1 UNK         0.0600 
    164 H164       -1.8835  -17.2291  -45.6817 H         1 UNK         0.3000 
    165 H165       -4.5050  -16.6385  -47.4904 H         1 UNK         0.0600 
    166 H166       -2.9626  -15.3126  -45.1862 H         1 UNK         0.0600 
    167 H167       -4.7150  -15.3572  -45.3433 H         1 UNK         0.0600 
    168 H168       -3.8307  -16.8493  -45.1040 H         1 UNK         0.0600 
    169 H169       -2.8032  -14.2797  -47.8822 H         1 UNK         0.3000 
    170 H170       -5.1553  -12.8170  -49.9040 H         1 UNK         0.0600 
    171 H171       -6.3263  -11.8404  -47.9272 H         1 UNK         0.0600 
    172 H172       -4.7824  -11.5337  -47.1415 H         1 UNK         0.0600 
    173 H173       -5.2101  -10.6791  -48.6250 H         1 UNK         0.0600 
    174 H174       -2.8233  -11.7224  -48.5907 H         1 UNK         0.3000 
    175 H175       -0.3772  -13.5188  -50.2207 H         1 UNK         0.0600 
    176 H176       -1.1362  -10.7023  -51.1675 H         1 UNK         0.0600 
    177 H177        0.4511  -11.4586  -51.3169 H         1 UNK         0.0600 
    178 H178       -0.9149  -12.0977  -52.2150 H         1 UNK         0.0600 
    179 H179       -0.0879  -11.0506  -48.9295 H         1 UNK         0.3000 
    180 H180       -0.1267  -10.6505  -46.6744 H         1 UNK         0.0600 
    181 H181       -0.4179  -13.1085  -44.8622 H         1 UNK         0.0600 
    182 H182       -1.6442  -11.8811  -45.1428 H         1 UNK         0.0600 
    183 H183       -0.1494  -11.4532  -44.3227 H         1 UNK         0.0600 
    184 H184        1.7888  -12.7564  -45.8782 H         1 UNK         0.3000 
    185 H185        4.2480  -11.7818  -48.2218 H         1 UNK         0.0600 
    186 H186        5.7603  -11.5978  -46.2559 H         1 UNK         0.0600 
    187 H187        4.7709  -10.1533  -46.3968 H         1 UNK         0.0600 
    188 H188        4.3787  -11.3658  -45.1833 H         1 UNK         0.0600 
    189 H189        4.1841  -13.6612  -46.0424 H         1 UNK         0.3000 
    190 H190        0.1795  -22.8368  -44.9556 H         1 UNK         0.3000 
    191 H191       -1.7805  -22.3043  -46.6507 H         1 UNK         0.0600 
    192 H192       -3.2761  -22.1387  -44.5909 H         1 UNK         0.0600 
    193 H193       -1.6930  -21.4103  -44.3742 H         1 UNK         0.0600 
    194 H194       -2.0395  -22.9915  -43.6782 H         1 UNK         0.0600 
    195 H195       -1.5683  -25.4802  -45.1187 H         1 UNK         0.3000 
    196 H196       -4.1831  -26.3935  -45.9098 H         1 UNK         0.0600 
    197 H197       -3.2964  -28.6143  -45.1883 H         1 UNK         0.0600 
    198 H198       -2.9560  -27.3755  -43.9907 H         1 UNK         0.0600 
    199 H199       -1.6751  -27.9418  -45.0633 H         1 UNK         0.0600 
    200 H200       -1.0270  -26.3468  -47.5033 H         1 UNK         0.3000 
    201 H201       -1.9040  -28.1475  -49.6952 H         1 UNK         0.0600 
    202 H202        0.3722  -28.4756  -48.7531 H         1 UNK         0.0600 
    203 H203        0.7904  -26.8023  -49.1165 H         1 UNK         0.0600 
    204 H204        0.4628  -27.9350  -50.4224 H         1 UNK         0.0600 
    205 H205       -0.9568  -24.7747  -49.0170 H         1 UNK         0.3000 
    206 H206       -1.2032  -23.7901  -51.6932 H         1 UNK         0.0600 
    207 H207        0.1878  -22.6877  -49.9527 H         1 UNK         0.0600 
    208 H208       -1.0298  -21.5733  -50.5558 H         1 UNK         0.0600 
    209 H209       -1.2482  -22.3397  -48.9904 H         1 UNK         0.0600 
    210 H210       -3.5639  -24.4206  -49.2342 H         1 UNK         0.3000 
    211 H211       -5.7482  -24.1906  -48.9909 H         1 UNK         0.0600 
    212 H212       -5.9234  -23.5544  -51.9882 H         1 UNK         0.0600 
    213 H213       -7.2426  -24.0531  -50.9397 H         1 UNK         0.0600 
    214 H214       -5.9354  -25.1712  -51.2890 H         1 UNK         0.0600 
    215 H215       -4.5987  -22.3411  -47.8397 H         1 UNK         0.3000 
    216 H216       -4.4403  -19.7407  -48.6838 H         1 UNK         0.0600 
    217 H217       -4.2861  -19.1609  -46.2660 H         1 UNK         0.0600 
    218 H218       -3.3926  -20.6236  -46.6341 H         1 UNK         0.0600 
    219 H219       -4.9580  -20.7304  -45.8364 H         1 UNK         0.0600 
    220 H220       -7.3306  -21.2620  -47.3107 H         1 UNK         0.3000 
    221 H221       -8.7977  -18.7595  -46.9991 H         1 UNK         0.0600 
    222 H222       -9.6682  -21.6863  -46.7269 H         1 UNK         0.0600 
    223 H223       -9.0845  -20.6580  -45.4174 H         1 UNK         0.0600 
    224 H224      -10.6017  -20.2848  -46.2174 H         1 UNK         0.0600 
    225 H225       -8.2134  -20.8247  -49.6945 H         1 UNK         0.3000 
    226 H226      -10.8169  -20.1010  -51.0086 H         1 UNK         0.0600 
    227 H227      -10.6413  -22.5174  -50.5235 H         1 UNK         0.0600 
    228 H228      -10.5544  -22.2282  -52.2543 H         1 UNK         0.0600 
    229 H229       -9.0901  -22.6021  -51.3542 H         1 UNK         0.0600 
    230 H230       -7.3424  -20.8298  -51.6675 H         1 UNK         0.3000 
    231 H231       -7.5611  -19.4516  -54.3050 H         1 UNK         0.0600 
    232 H232       -5.4661  -20.6901  -54.8055 H         1 UNK         0.0600 
    233 H233       -6.7594  -21.7900  -54.3490 H         1 UNK         0.0600 
    234 H234       -5.4808  -21.4068  -53.1998 H         1 UNK         0.0600 
    235 H235       -5.4204  -19.7337  -51.4676 H         1 UNK         0.3000 
    236 H236       -3.9681  -18.4397  -50.4295 H         1 UNK         0.0600 
    237 H237       -5.7753  -16.6787  -50.4093 H         1 UNK         0.0600 
    238 H238       -4.1543  -16.0154  -50.4010 H         1 UNK         0.0600 
    239 H239       -5.0889  -15.9875  -51.8826 H         1 UNK         0.0600 
    240 H240       -1.9785  -17.0971  -50.6307 H         1 UNK         0.3000 
    241 H241       -0.4968  -18.0622  -52.9576 H         1 UNK         0.0600 
    242 H242       -2.0062  -14.9413  -52.3575 H         1 UNK         0.3800 
    243 H243       -1.1096  -14.1522  -53.6280 H         1 UNK         0.3800 
    244 H244        1.5209  -17.2135  -51.6638 H         1 UNK         0.0800 
    245 H245        0.4350  -16.7057  -50.3965 H         1 UNK         0.0800 
    246 H246        2.0221  -19.3884  -52.4449 H         1 UNK         0.0800 
    247 H247        1.4768  -20.9152  -51.8045 H         1 UNK         0.0800 
@<TRIPOS>BOND
     1    1    2 1    
     2    1  127 1    
     3    1  128 1    
     4    1  129 1    
     5    2    3 2    
     6    2    4 am   BACKBONE|DICT|INTERRES
     7    4    5 1    
     8    4  130 1    
     9    5    6 1    
    10    5   65 1    
    11    5  131 1    
    12    6    7 1    
    13    6  132 1    
    14    6  133 1    
    15    7    8 1    
    16    8    9 1    
    17    8  134 1    
    18    8  135 1    
    19    9   10 ar   
    20    9   14 ar   
    21   10   11 ar   
    22   10  136 1    
    23   11   12 ar   
    24   11  126 1    
    25   12   13 ar   
    26   12  137 1    
    27   13   14 ar   
    28   13   15 1    
    29   14  138 1    
    30   15   16 1    
    31   15  139 1    
    32   15  140 1    
    33   16   17 1    
    34   17   18 1    
    35   17  141 1    
    36   17  142 1    
    37   18   19 1    
    38   18   67 1    
    39   18  143 1    
    40   19   20 am   BACKBONE|DICT|INTERRES
    41   19  144 1    
    42   20   21 2    
    43   20   22 1    
    44   22   23 1    
    45   22   24 1    
    46   22  145 1    
    47   23  146 1    
    48   23  147 1    
    49   23  148 1    
    50   24   25 am   BACKBONE|DICT|INTERRES
    51   24  149 1    
    52   25   26 2    
    53   25   27 1    
    54   27   28 1    
    55   27   29 1    
    56   27  150 1    
    57   28  151 1    
    58   28  152 1    
    59   28  153 1    
    60   29   30 am   BACKBONE|DICT|INTERRES
    61   29  154 1    
    62   30   31 2    
    63   30   32 1    
    64   32   33 1    
    65   32   34 1    
    66   32  155 1    
    67   33  156 1    
    68   33  157 1    
    69   33  158 1    
    70   34   35 am   BACKBONE|DICT|INTERRES
    71   34  159 1    
    72   35   36 2    
    73   35   37 1    
    74   37   38 1    
    75   37   39 1    
    76   37  160 1    
    77   38  161 1    
    78   38  162 1    
    79   38  163 1    
    80   39   40 am   BACKBONE|DICT|INTERRES
    81   39  164 1    
    82   40   41 2    
    83   40   42 1    
    84   42   43 1    
    85   42   44 1    
    86   42  165 1    
    87   43  166 1    
    88   43  167 1    
    89   43  168 1    
    90   44   45 am   BACKBONE|DICT|INTERRES
    91   44  169 1    
    92   45   46 2    
    93   45   47 1    
    94   47   48 1    
    95   47   49 1    
    96   47  170 1    
    97   48  171 1    
    98   48  172 1    
    99   48  173 1    
   100   49   50 am   BACKBONE|DICT|INTERRES
   101   49  174 1    
   102   50   51 2    
   103   50   52 1    
   104   52   53 1    
   105   52   54 1    
   106   52  175 1    
   107   53  176 1    
   108   53  177 1    
   109   53  178 1    
   110   54   55 am   BACKBONE|DICT|INTERRES
   111   54  179 1    
   112   55   56 2    
   113   55   57 1    
   114   57   58 1    
   115   57   59 1    
   116   57  180 1    
   117   58  181 1    
   118   58  182 1    
   119   58  183 1    
   120   59   60 am   BACKBONE|DICT|INTERRES
   121   59  184 1    
   122   60   61 2    
   123   60   62 1    
   124   62   63 1    
   125   62   64 1    
   126   62  185 1    
   127   63  186 1    
   128   63  187 1    
   129   63  188 1    
   130   64   65 am   BACKBONE|DICT|INTERRES
   131   64  189 1    
   132   65   66 2    
   133   67   68 2    
   134   67   69 am   BACKBONE|DICT|INTERRES
   135   69   70 1    
   136   69  190 1    
   137   70   71 1    
   138   70   72 1    
   139   70  191 1    
   140   71  192 1    
   141   71  193 1    
   142   71  194 1    
   143   72   73 2    
   144   72   74 am   BACKBONE|DICT|INTERRES
   145   74   75 1    
   146   74  195 1    
   147   75   76 1    
   148   75   77 1    
   149   75  196 1    
   150   76  197 1    
   151   76  198 1    
   152   76  199 1    
   153   77   78 2    
   154   77   79 am   BACKBONE|DICT|INTERRES
   155   79   80 1    
   156   79  200 1    
   157   80   81 1    
   158   80   82 1    
   159   80  201 1    
   160   81  202 1    
   161   81  203 1    
   162   81  204 1    
   163   82   83 2    
   164   82   84 am   BACKBONE|DICT|INTERRES
   165   84   85 1    
   166   84  205 1    
   167   85   86 1    
   168   85   87 1    
   169   85  206 1    
   170   86  207 1    
   171   86  208 1    
   172   86  209 1    
   173   87   88 2    
   174   87   89 am   BACKBONE|DICT|INTERRES
   175   89   90 1    
   176   89  210 1    
   177   90   91 1    
   178   90   92 1    
   179   90  211 1    
   180   91  212 1    
   181   91  213 1    
   182   91  214 1    
   183   92   93 2    
   184   92   94 am   BACKBONE|DICT|INTERRES
   185   94   95 1    
   186   94  215 1    
   187   95   96 1    
   188   95   97 1    
   189   95  216 1    
   190   96  217 1    
   191   96  218 1    
   192   96  219 1    
   193   97   98 2    
   194   97   99 am   BACKBONE|DICT|INTERRES
   195   99  100 1    
   196   99  220 1    
   197  100  101 1    
   198  100  102 1    
   199  100  221 1    
   200  101  222 1    
   201  101  223 1    
   202  101  224 1    
   203  102  103 2    
   204  102  104 am   BACKBONE|DICT|INTERRES
   205  104  105 1    
   206  104  225 1    
   207  105  106 1    
   208  105  107 1    
   209  105  226 1    
   210  106  227 1    
   211  106  228 1    
   212  106  229 1    
   213  107  108 2    
   214  107  109 am   BACKBONE|DICT|INTERRES
   215  109  110 1    
   216  109  230 1    
   217  110  111 1    
   218  110  112 1    
   219  110  231 1    
   220  111  232 1    
   221  111  233 1    
   222  111  234 1    
   223  112  113 2    
   224  112  114 am   BACKBONE|DICT|INTERRES
   225  114  115 1    
   226  114  235 1    
   227  115  116 1    
   228  115  117 1    
   229  115  236 1    
   230  116  237 1    
   231  116  238 1    
   232  116  239 1    
   233  117  118 2    
   234  117  119 am   BACKBONE|DICT|INTERRES
   235  119  120 1    
   236  119  240 1    
   237  120  121 1    
   238  120  124 1    
   239  120  241 1    
   240  121  122 am   BACKBONE|DICT|INTERRES
   241  121  123 2    
   242  122  242 1    
   243  122  243 1    
   244  124  125 1    
   245  124  244 1    
   246  124  245 1    
   247  125  126 1    
   248  126  246 1    
   249  126  247 1    
@<TRIPOS>SUBSTRUCTURE
     1 UNK         1 GROUP             0       ****    0 ROOT    
