@<TRIPOS>MOLECULE
3R540
247   249    1
SMALL
USER_CHARGES


@<TRIPOS>ATOM
      1 CA          3.1514  -16.6511  -47.4388 C.3       0 UNK        -0.1800 
      2 C           2.2313  -15.8489  -48.3444 C.2       0 UNK         0.5000 
      3 O           2.4486  -14.6499  -48.5273 O.2       0 UNK        -0.5000 
      4 N           1.2030  -16.5052  -48.8975 N.am      1 UNK        -0.5000 
      5 CA          0.1989  -15.9952  -49.8441 C.3       1 UNK         0.1400 
      6 C6          0.7871  -15.4797  -51.1885 C.3       23 UNK        -0.0398 
      7 S7          1.8504  -16.6735  -52.0661 S.3       23 UNK        -0.2404 
      8 C8          0.6429  -17.6290  -53.0415 C.3       23 UNK        -0.0205 
      9 C9          0.0564  -18.7692  -52.2255 C.ar      23 UNK        -0.0193 
     10 C10        -1.2834  -18.7529  -51.8271 C.ar      23 UNK        -0.1150 
     11 C11        -1.7956  -19.7815  -51.0300 C.ar      23 UNK        -0.0193 
     12 C12        -0.9704  -20.8461  -50.6637 C.ar      23 UNK        -0.1150 
     13 C13         0.3627  -20.8844  -51.0770 C.ar      23 UNK        -0.0193 
     14 C14         0.8695  -19.8455  -51.8593 C.ar      23 UNK        -0.1150 
     15 C15         1.2602  -22.0396  -50.6690 C.3       23 UNK        -0.0205 
     16 S16         2.3907  -21.5962  -49.3078 S.3       23 UNK        -0.2404 
     17 C17         1.2672  -21.1699  -47.9301 C.3       23 UNK        -0.0398 
     18 CA          0.9266  -22.3868  -47.0354 C.3       11 UNK         0.1400 
     19 N           0.7296  -22.0098  -45.6317 N.am      11 UNK        -0.5000 
     20 C           0.6430  -22.8900  -44.6239 C.2       10 UNK         0.5000 
     21 O           0.7531  -24.1055  -44.7714 O.2       10 UNK        -0.5000 
     22 CA          0.3295  -22.3340  -43.2254 C.3       10 UNK         0.1400 
     23 CB          1.5933  -21.7588  -42.5697 C.3       10 UNK        -0.1800 
     24 N          -0.7339  -21.3296  -43.2464 N.am      10 UNK        -0.5000 
     25 C          -1.9968  -21.5766  -43.6230 C.2       9 UNK         0.5000 
     26 O          -2.4036  -22.6921  -43.9461 O.2       9 UNK        -0.5000 
     27 CA         -2.9605  -20.3777  -43.6898 C.3       9 UNK         0.1400 
     28 CB         -3.5325  -20.0645  -42.2997 C.3       9 UNK        -0.1800 
     29 N          -2.3507  -19.1737  -44.2570 N.am      9 UNK        -0.5000 
     30 C          -1.8506  -19.0834  -45.4989 C.2       8 UNK         0.5000 
     31 O          -1.8534  -20.0123  -46.3070 O.2       8 UNK        -0.5000 
     32 CA         -1.1605  -17.7562  -45.8674 C.3       8 UNK         0.1400 
     33 CB         -2.1781  -16.6178  -46.0482 C.3       8 UNK        -0.1800 
     34 N          -0.1759  -17.3611  -44.8614 N.am      8 UNK        -0.5000 
     35 C           0.8960  -18.0830  -44.5060 C.2       7 UNK         0.5000 
     36 O           1.2322  -19.1311  -45.0580 O.2       7 UNK        -0.5000 
     37 CA          1.6937  -17.5720  -43.2940 C.3       7 UNK         0.1400 
     38 CB          2.6797  -16.4681  -43.7022 C.3       7 UNK        -0.1800 
     39 N           0.8164  -17.0821  -42.2293 N.am      7 UNK        -0.5000 
     40 C           0.0470  -17.8713  -41.4657 C.2       6 UNK         0.5000 
     41 O           0.0082  -19.0952  -41.5725 O.2       6 UNK        -0.5000 
     42 CA         -0.8545  -17.1764  -40.4302 C.3       6 UNK         0.1400 
     43 CB         -0.0689  -16.8718  -39.1460 C.3       6 UNK        -0.1800 
     44 N          -1.4459  -15.9411  -40.9416 N.am      6 UNK        -0.5000 
     45 C          -2.3497  -15.8854  -41.9299 C.2       5 UNK         0.5000 
     46 O          -2.8127  -16.8765  -42.4931 O.2       5 UNK        -0.5000 
     47 CA         -2.7560  -14.4782  -42.4045 C.3       5 UNK         0.1400 
     48 CB         -3.8876  -13.9159  -41.5317 C.3       5 UNK        -0.1800 
     49 N          -1.6308  -13.5374  -42.4155 N.am      5 UNK        -0.5000 
     50 C          -0.5474  -13.6781  -43.1885 C.2       4 UNK         0.5000 
     51 O          -0.3806  -14.6200  -43.9694 O.2       4 UNK        -0.5000 
     52 CA          0.5515  -12.6207  -43.0468 C.3       4 UNK         0.1400 
     53 CB          1.5511  -13.0064  -41.9423 C.3       4 UNK        -0.1800 
     54 N           1.2202  -12.5401  -44.3353 N.am      4 UNK        -0.5000 
     55 C           1.9479  -11.5204  -44.7973 C.2       3 UNK         0.5000 
     56 O           2.2668  -10.5386  -44.1254 O.2       3 UNK        -0.5000 
     57 CA          2.3534  -11.6015  -46.2822 C.3       3 UNK         0.1400 
     58 CB          3.7013  -12.3240  -46.4301 C.3       3 UNK        -0.1800 
     59 N           1.3522  -12.2752  -47.1195 N.am      3 UNK        -0.5000 
     60 C           0.1045  -11.8193  -47.3352 C.2       2 UNK         0.5000 
     61 O          -0.3158  -10.7655  -46.8558 O.2       2 UNK        -0.5000 
     62 CA         -0.8391  -12.6566  -48.2218 C.3       2 UNK         0.1400 
     63 CB         -1.4780  -11.8068  -49.3376 C.3       2 UNK        -0.1800 
     64 N          -0.1629  -13.8086  -48.8086 N.am      2 UNK        -0.5000 
     65 C          -0.7394  -14.9378  -49.2240 C.2       1 UNK         0.5000 
     66 O          -1.9504  -15.1505  -49.1579 O.2       1 UNK        -0.5000 
     67 C          -0.2757  -23.1818  -47.5877 C.2       11 UNK         0.5000 
     68 O          -0.0815  -24.1832  -48.2809 O.2       11 UNK        -0.5000 
     69 N          -1.4966  -22.7489  -47.2414 N.am      12 UNK        -0.5000 
     70 CA         -2.7470  -23.4260  -47.5858 C.3       12 UNK         0.1400 
     71 CB         -3.9377  -22.5485  -47.1793 C.3       12 UNK        -0.1800 
     72 C          -2.8586  -24.8354  -46.9740 C.2       12 UNK         0.5000 
     73 O          -3.3217  -25.7544  -47.6482 O.2       12 UNK        -0.5000 
     74 N          -2.4049  -24.9918  -45.7242 N.am      13 UNK        -0.5000 
     75 CA         -2.3140  -26.2813  -45.0418 C.3       13 UNK         0.1400 
     76 CB         -2.0798  -26.0501  -43.5410 C.3       13 UNK        -0.1800 
     77 C          -1.2170  -27.1863  -45.6346 C.2       13 UNK         0.5000 
     78 O          -1.4372  -28.3897  -45.7777 O.2       13 UNK        -0.5000 
     79 N          -0.0578  -26.5967  -45.9572 N.am      14 UNK        -0.5000 
     80 CA          1.1168  -27.2989  -46.4696 C.3       14 UNK         0.1400 
     81 CB          2.3504  -26.3888  -46.3649 C.3       14 UNK        -0.1800 
     82 C           0.9580  -27.8123  -47.9101 C.2       14 UNK         0.5000 
     83 O           1.3877  -28.9332  -48.1893 O.2       14 UNK        -0.5000 
     84 N           0.3821  -26.9935  -48.8015 N.am      15 UNK        -0.5000 
     85 CA          0.3182  -27.2952  -50.2332 C.3       15 UNK         0.1400 
     86 CB          1.6212  -26.8422  -50.9177 C.3       15 UNK        -0.1800 
     87 C          -0.8967  -26.6861  -50.9456 C.2       15 UNK         0.5000 
     88 O          -1.4771  -27.3610  -51.7970 O.2       15 UNK        -0.5000 
     89 N          -1.2416  -25.4296  -50.6241 N.am      16 UNK        -0.5000 
     90 CA         -2.2136  -24.5942  -51.3420 C.3       16 UNK         0.1400 
     91 CB         -3.6597  -25.1046  -51.1393 C.3       16 UNK        -0.1800 
     92 C          -1.8139  -24.4081  -52.8225 C.2       16 UNK         0.5000 
     93 O          -0.7623  -23.8213  -53.0838 O.2       16 UNK        -0.5000 
     94 N          -2.6492  -24.9008  -53.7500 N.am      17 UNK        -0.5000 
     95 CA         -2.5457  -24.8624  -55.2159 C.3       17 UNK         0.1400 
     96 CB         -1.2553  -25.5398  -55.7172 C.3       17 UNK        -0.1800 
     97 C          -2.7187  -23.4527  -55.8123 C.2       17 UNK         0.5000 
     98 O          -3.5551  -23.2650  -56.6972 O.2       17 UNK        -0.5000 
     99 N          -1.9495  -22.4879  -55.3021 N.am      18 UNK        -0.5000 
    100 CA        -2.0996  -21.0602  -55.5627 C.3       18 UNK         0.1400 
    101 CB        -0.7513  -20.3795  -55.2859 C.3       18 UNK        -0.1800 
    102 C         -3.2214  -20.4539  -54.6959 C.2       18 UNK         0.5000 
    103 O         -3.6783  -21.0823  -53.7370 O.2       18 UNK        -0.5000 
    104 N         -3.6351  -19.2330  -55.0478 N.am      19 UNK        -0.5000 
    105 CA        -4.6326  -18.4428  -54.3337 C.3       19 UNK         0.1400 
    106 CB        -5.9450  -18.4377  -55.1334 C.3       19 UNK        -0.1800 
    107 C         -4.0983  -17.0162  -54.1494 C.2       19 UNK         0.5000 
    108 O         -3.3434  -16.5309  -54.9960 O.2       19 UNK        -0.5000 
    109 N         -4.5152  -16.3749  -53.0549 N.am      20 UNK        -0.5000 
    110 CA        -4.1796  -15.0063  -52.6680 C.3       20 UNK         0.1400 
    111 CB        -2.6870  -14.8897  -52.3106 C.3       20 UNK        -0.1800 
    112 C         -5.1469  -14.6111  -51.5402 C.2       20 UNK         0.5000 
    113 O         -6.3566  -14.6640  -51.7709 O.2       20 UNK        -0.5000 
    114 N         -4.6513  -14.2992  -50.3308 N.am      21 UNK        -0.5000 
    115 CA        -5.4965  -14.0782  -49.1458 C.3       21 UNK         0.1400 
    116 CB        -4.6540  -13.5110  -47.9931 C.3       21 UNK        -0.1800 
    117 C         -6.2171  -15.3702  -48.7106 C.2       21 UNK         0.5000 
    118 O         -7.3699  -15.3265  -48.2816 O.2       21 UNK        -0.5000 
    119 N         -5.5269  -16.4974  -48.9037 N.am      22 UNK        -0.5000 
    120 CA        -6.0359  -17.8730  -48.8406 C.3       22 UNK         0.1400 
    121 C         -6.7675  -18.3499  -50.1345 C.2       22 UNK         0.5000 
    122 N         -7.0386  -17.4995  -51.1194 N.am      22 UNK        -0.7600 
    123 O         -7.1198  -19.5202  -50.2463 O.2       22 UNK        -0.5000 
    124 C124       -4.9248  -18.8608  -48.3863 C.3       23 UNK        -0.0398 
    125 S125       -3.2804  -18.5465  -49.1196 S.3       23 UNK        -0.2404 
    126 C126       -3.2177  -19.7129  -50.5045 C.3       23 UNK        -0.0205 
    127 H127        3.4696  -16.0388  -46.5961 H         1 UNK         0.0600 
    128 H128        2.6587  -17.5426  -47.0502 H         1 UNK         0.0600 
    129 H129        4.0400  -16.9599  -47.9890 H         1 UNK         0.0600 
    130 H130        1.1038  -17.4879  -48.6887 H         1 UNK         0.3000 
    131 H131       -0.4342  -16.8525  -50.0695 H         1 UNK         0.0600 
    132 H132       -0.0057  -15.1680  -51.8662 H         1 UNK         0.0800 
    133 H133        1.3904  -14.5862  -51.0217 H         1 UNK         0.0800 
    134 H134       -0.1395  -16.9744  -53.4286 H         1 UNK         0.0800 
    135 H135        1.1493  -18.0461  -53.9131 H         1 UNK         0.0800 
    136 H136       -1.9187  -17.9236  -52.1007 H         1 UNK         0.1150 
    137 H137       -1.3590  -21.6295  -50.0306 H         1 UNK         0.1150 
    138 H138        1.9056  -19.8637  -52.1671 H         1 UNK         0.1150 
    139 H139        0.6664  -22.9117  -50.3995 H         1 UNK         0.0800 
    140 H140        1.8554  -22.3475  -51.5298 H         1 UNK         0.0800 
    141 H141        0.3741  -20.6532  -48.2830 H         1 UNK         0.0800 
    142 H142        1.8057  -20.4264  -47.3414 H         1 UNK         0.0800 
    143 H143        1.7851  -23.0616  -47.0441 H         1 UNK         0.0600 
    144 H144        0.6510  -21.0179  -45.4273 H         1 UNK         0.3000 
    145 H145       -0.0167  -23.1673  -42.6105 H         1 UNK         0.0600 
    146 H146        1.4002  -21.4569  -41.5404 H         1 UNK         0.0600 
    147 H147        2.3921  -22.5010  -42.5448 H         1 UNK         0.0600 
    148 H148        1.9695  -20.8902  -43.1095 H         1 UNK         0.0600 
    149 H149       -0.4868  -20.3987  -42.9241 H         1 UNK         0.3000 
    150 H150       -3.7907  -20.6596  -44.3402 H         1 UNK         0.0600 
    151 H151       -4.0053  -20.9453  -41.8635 H         1 UNK         0.0600 
    152 H152       -4.2895  -19.2820  -42.3526 H         1 UNK         0.0600 
    153 H153       -2.7555  -19.7323  -41.6106 H         1 UNK         0.0600 
    154 H154       -2.3270  -18.3549  -43.6556 H         1 UNK         0.3000 
    155 H155       -0.6373  -17.9012  -46.8146 H         1 UNK         0.0600 
    156 H156       -1.6841  -15.6932  -46.3466 H         1 UNK         0.0600 
    157 H157       -2.7300  -16.4158  -45.1312 H         1 UNK         0.0600 
    158 H158       -2.9089  -16.8557  -46.8196 H         1 UNK         0.0600 
    159 H159       -0.3474  -16.4802  -44.3846 H         1 UNK         0.3000 
    160 H160        2.2727  -18.4083  -42.8968 H         1 UNK         0.0600 
    161 H161        2.1780  -15.6262  -44.1805 H         1 UNK         0.0600 
    162 H162        3.4184  -16.8568  -44.4028 H         1 UNK         0.0600 
    163 H163        3.2275  -16.0888  -42.8396 H         1 UNK         0.0600 
    164 H164        0.7532  -16.0827  -42.1129 H         1 UNK         0.3000 
    165 H165       -1.6656  -17.8634  -40.1796 H         1 UNK         0.0600 
    166 H166        0.7434  -16.1665  -39.3261 H         1 UNK         0.0600 
    167 H167       -0.7172  -16.4489  -38.3784 H         1 UNK         0.0600 
    168 H168        0.3708  -17.7809  -38.7335 H         1 UNK         0.0600 
    169 H169       -1.1220  -15.0758  -40.5359 H         1 UNK         0.3000 
    170 H170       -3.1276  -14.5691  -43.4273 H         1 UNK         0.0600 
    171 H171       -4.7439  -14.5917  -41.5210 H         1 UNK         0.0600 
    172 H172       -3.5689  -13.7732  -40.4985 H         1 UNK         0.0600 
    173 H173       -4.2382  -12.9559  -41.9111 H         1 UNK         0.0600 
    174 H174       -1.6987  -12.7420  -41.7967 H         1 UNK         0.3000 
    175 H175        0.0920  -11.6572  -42.8168 H         1 UNK         0.0600 
    176 H176        2.3279  -12.2499  -41.8304 H         1 UNK         0.0600 
    177 H177        1.0523  -13.1015  -40.9772 H         1 UNK         0.0600 
    178 H178        2.0413  -13.9561  -42.1557 H         1 UNK         0.0600 
    179 H179        0.9818  -13.2994  -44.9611 H         1 UNK         0.3000 
    180 H180        2.4685  -10.5803  -46.6513 H         1 UNK         0.0600 
    181 H181        3.6415  -13.3599  -46.0937 H         1 UNK         0.0600 
    182 H182        4.4763  -11.8310  -45.8418 H         1 UNK         0.0600 
    183 H183        4.0346  -12.3287  -47.4681 H         1 UNK         0.0600 
    184 H184        1.6541  -13.1467  -47.5397 H         1 UNK         0.3000 
    185 H185       -1.6295  -13.0196  -47.5621 H         1 UNK         0.0600 
    186 H186       -2.2001  -12.3835  -49.9144 H         1 UNK         0.0600 
    187 H187       -2.0117  -10.9495  -48.9257 H         1 UNK         0.0600 
    188 H188       -0.7253  -11.4264  -50.0287 H         1 UNK         0.0600 
    189 H189        0.8491  -13.7611  -48.8788 H         1 UNK         0.3000 
    190 H190       -1.5796  -21.8861  -46.7092 H         1 UNK         0.3000 
    191 H191       -2.7700  -23.5320  -48.6693 H         1 UNK         0.0600 
    192 H192       -3.8548  -21.5555  -47.6183 H         1 UNK         0.0600 
    193 H193       -4.8778  -22.9828  -47.5209 H         1 UNK         0.0600 
    194 H194       -4.0030  -22.4300  -46.0982 H         1 UNK         0.0600 
    195 H195       -2.1095  -24.1723  -45.2018 H         1 UNK         0.3000 
    196 H196       -3.2700  -26.7964  -45.1575 H         1 UNK         0.0600 
    197 H197       -2.0285  -26.9974  -43.0029 H         1 UNK         0.0600 
    198 H198       -2.8906  -25.4688  -43.1014 H         1 UNK         0.0600 
    199 H199       -1.1481  -25.5151  -43.3552 H         1 UNK         0.0600 
    200 H200        0.0651  -25.6112  -45.7421 H         1 UNK         0.3000 
    201 H201        1.2908  -28.1666  -45.8296 H         1 UNK         0.0600 
    202 H202        2.5456  -26.1063  -45.3304 H         1 UNK         0.0600 
    203 H203        2.2250  -25.4745  -46.9455 H         1 UNK         0.0600 
    204 H204        3.2430  -26.8938  -46.7362 H         1 UNK         0.0600 
    205 H205        0.0612  -26.0778  -48.4996 H         1 UNK         0.3000 
    206 H206        0.2268  -28.3758  -50.3645 H         1 UNK         0.0600 
    207 H207        1.7953  -25.7744  -50.7779 H         1 UNK         0.0600 
    208 H208        2.4844  -27.3770  -50.5214 H         1 UNK         0.0600 
    209 H209        1.5878  -27.0324  -51.9913 H         1 UNK         0.0600 
    210 H210       -0.7068  -24.9528  -49.9045 H         1 UNK         0.3000 
    211 H211       -2.1547  -23.6013  -50.8995 H         1 UNK         0.0600 
    212 H212       -3.8086  -26.1091  -51.5356 H         1 UNK         0.0600 
    213 H213       -4.3800  -24.4438  -51.6235 H         1 UNK         0.0600 
    214 H214       -3.9234  -25.1319  -50.0844 H         1 UNK         0.0600 
    215 H215       -3.4827  -25.3555  -53.4049 H         1 UNK         0.3000 
    216 H216       -3.3830  -25.4594  -55.5808 H         1 UNK         0.0600 
    217 H217       -1.1665  -26.5537  -55.3267 H         1 UNK         0.0600 
    218 H218       -0.3606  -24.9894  -55.4253 H         1 UNK         0.0600 
    219 H219       -1.2522  -25.6080  -56.8056 H         1 UNK         0.0600 
    220 H220       -1.3419  -22.7468  -54.5296 H         1 UNK         0.3000 
    221 H221       -2.3592  -20.9088  -56.6126 H         1 UNK         0.0600 
    222 H222       -0.4040  -20.5958  -54.2765 H         1 UNK         0.0600 
    223 H223        0.0135  -20.7286  -55.9797 H         1 UNK         0.0600 
    224 H224       -0.8163  -19.2961  -55.3919 H         1 UNK         0.0600 
    225 H225       -3.1676  -18.7413  -55.7981 H         1 UNK         0.3000 
    226 H226       -4.8257  -18.8681  -53.3475 H         1 UNK         0.0600 
    227 H227       -6.3361  -19.4484  -55.2517 H         1 UNK         0.0600 
    228 H228       -6.7109  -17.8498  -54.6262 H         1 UNK         0.0600 
    229 H229       -5.8084  -18.0127  -56.1286 H         1 UNK         0.0600 
    230 H230       -5.1821  -16.8329  -52.4477 H         1 UNK         0.3000 
    231 H231       -4.3893  -14.3419  -53.5085 H         1 UNK         0.0600 
    232 H232       -2.4457  -13.9172  -51.8809 H         1 UNK         0.0600 
    233 H233       -2.0633  -15.0035  -53.1969 H         1 UNK         0.0600 
    234 H234       -2.3960  -15.6656  -51.6054 H         1 UNK         0.0600 
    235 H235       -3.6520  -14.3544  -50.1668 H         1 UNK         0.3000 
    236 H236       -6.2588  -13.3400  -49.4038 H         1 UNK         0.0600 
    237 H237       -5.2813  -13.2844  -47.1303 H         1 UNK         0.0600 
    238 H238       -3.8916  -14.2165  -47.6622 H         1 UNK         0.0600 
    239 H239       -4.1582  -12.5856  -48.2840 H         1 UNK         0.0600 
    240 H240       -4.5743  -16.4175  -49.2330 H         1 UNK         0.3000 
    241 H241       -6.8094  -17.8990  -48.0711 H         1 UNK         0.0600 
    242 H242       -6.8823  -16.5042  -51.0208 H         1 UNK         0.3800 
    243 H243       -7.5630  -17.8422  -51.9086 H         1 UNK         0.3800 
    244 H244       -4.7983  -18.7661  -47.3070 H         1 UNK         0.0800 
    245 H245       -5.2145  -19.9002  -48.5441 H         1 UNK         0.0800 
    246 H246       -3.5546  -20.6980  -50.1783 H         1 UNK         0.0800 
    247 H247       -3.8986  -19.3909  -51.2914 H         1 UNK         0.0800 
@<TRIPOS>BOND
     1    1    2 1    
     2    1  127 1    
     3    1  128 1    
     4    1  129 1    
     5    2    3 2    
     6    2    4 am   BACKBONE|DICT|INTERRES
     7    4    5 1    
     8    4  130 1    
     9    5    6 1    
    10    5   65 1    
    11    5  131 1    
    12    6    7 1    
    13    6  132 1    
    14    6  133 1    
    15    7    8 1    
    16    8    9 1    
    17    8  134 1    
    18    8  135 1    
    19    9   10 ar   
    20    9   14 ar   
    21   10   11 ar   
    22   10  136 1    
    23   11   12 ar   
    24   11  126 1    
    25   12   13 ar   
    26   12  137 1    
    27   13   14 ar   
    28   13   15 1    
    29   14  138 1    
    30   15   16 1    
    31   15  139 1    
    32   15  140 1    
    33   16   17 1    
    34   17   18 1    
    35   17  141 1    
    36   17  142 1    
    37   18   19 1    
    38   18   67 1    
    39   18  143 1    
    40   19   20 am   BACKBONE|DICT|INTERRES
    41   19  144 1    
    42   20   21 2    
    43   20   22 1    
    44   22   23 1    
    45   22   24 1    
    46   22  145 1    
    47   23  146 1    
    48   23  147 1    
    49   23  148 1    
    50   24   25 am   BACKBONE|DICT|INTERRES
    51   24  149 1    
    52   25   26 2    
    53   25   27 1    
    54   27   28 1    
    55   27   29 1    
    56   27  150 1    
    57   28  151 1    
    58   28  152 1    
    59   28  153 1    
    60   29   30 am   BACKBONE|DICT|INTERRES
    61   29  154 1    
    62   30   31 2    
    63   30   32 1    
    64   32   33 1    
    65   32   34 1    
    66   32  155 1    
    67   33  156 1    
    68   33  157 1    
    69   33  158 1    
    70   34   35 am   BACKBONE|DICT|INTERRES
    71   34  159 1    
    72   35   36 2    
    73   35   37 1    
    74   37   38 1    
    75   37   39 1    
    76   37  160 1    
    77   38  161 1    
    78   38  162 1    
    79   38  163 1    
    80   39   40 am   BACKBONE|DICT|INTERRES
    81   39  164 1    
    82   40   41 2    
    83   40   42 1    
    84   42   43 1    
    85   42   44 1    
    86   42  165 1    
    87   43  166 1    
    88   43  167 1    
    89   43  168 1    
    90   44   45 am   BACKBONE|DICT|INTERRES
    91   44  169 1    
    92   45   46 2    
    93   45   47 1    
    94   47   48 1    
    95   47   49 1    
    96   47  170 1    
    97   48  171 1    
    98   48  172 1    
    99   48  173 1    
   100   49   50 am   BACKBONE|DICT|INTERRES
   101   49  174 1    
   102   50   51 2    
   103   50   52 1    
   104   52   53 1    
   105   52   54 1    
   106   52  175 1    
   107   53  176 1    
   108   53  177 1    
   109   53  178 1    
   110   54   55 am   BACKBONE|DICT|INTERRES
   111   54  179 1    
   112   55   56 2    
   113   55   57 1    
   114   57   58 1    
   115   57   59 1    
   116   57  180 1    
   117   58  181 1    
   118   58  182 1    
   119   58  183 1    
   120   59   60 am   BACKBONE|DICT|INTERRES
   121   59  184 1    
   122   60   61 2    
   123   60   62 1    
   124   62   63 1    
   125   62   64 1    
   126   62  185 1    
   127   63  186 1    
   128   63  187 1    
   129   63  188 1    
   130   64   65 am   BACKBONE|DICT|INTERRES
   131   64  189 1    
   132   65   66 2    
   133   67   68 2    
   134   67   69 am   BACKBONE|DICT|INTERRES
   135   69   70 1    
   136   69  190 1    
   137   70   71 1    
   138   70   72 1    
   139   70  191 1    
   140   71  192 1    
   141   71  193 1    
   142   71  194 1    
   143   72   73 2    
   144   72   74 am   BACKBONE|DICT|INTERRES
   145   74   75 1    
   146   74  195 1    
   147   75   76 1    
   148   75   77 1    
   149   75  196 1    
   150   76  197 1    
   151   76  198 1    
   152   76  199 1    
   153   77   78 2    
   154   77   79 am   BACKBONE|DICT|INTERRES
   155   79   80 1    
   156   79  200 1    
   157   80   81 1    
   158   80   82 1    
   159   80  201 1    
   160   81  202 1    
   161   81  203 1    
   162   81  204 1    
   163   82   83 2    
   164   82   84 am   BACKBONE|DICT|INTERRES
   165   84   85 1    
   166   84  205 1    
   167   85   86 1    
   168   85   87 1    
   169   85  206 1    
   170   86  207 1    
   171   86  208 1    
   172   86  209 1    
   173   87   88 2    
   174   87   89 am   BACKBONE|DICT|INTERRES
   175   89   90 1    
   176   89  210 1    
   177   90   91 1    
   178   90   92 1    
   179   90  211 1    
   180   91  212 1    
   181   91  213 1    
   182   91  214 1    
   183   92   93 2    
   184   92   94 am   BACKBONE|DICT|INTERRES
   185   94   95 1    
   186   94  215 1    
   187   95   96 1    
   188   95   97 1    
   189   95  216 1    
   190   96  217 1    
   191   96  218 1    
   192   96  219 1    
   193   97   98 2    
   194   97   99 am   BACKBONE|DICT|INTERRES
   195   99  100 1    
   196   99  220 1    
   197  100  101 1    
   198  100  102 1    
   199  100  221 1    
   200  101  222 1    
   201  101  223 1    
   202  101  224 1    
   203  102  103 2    
   204  102  104 am   BACKBONE|DICT|INTERRES
   205  104  105 1    
   206  104  225 1    
   207  105  106 1    
   208  105  107 1    
   209  105  226 1    
   210  106  227 1    
   211  106  228 1    
   212  106  229 1    
   213  107  108 2    
   214  107  109 am   BACKBONE|DICT|INTERRES
   215  109  110 1    
   216  109  230 1    
   217  110  111 1    
   218  110  112 1    
   219  110  231 1    
   220  111  232 1    
   221  111  233 1    
   222  111  234 1    
   223  112  113 2    
   224  112  114 am   BACKBONE|DICT|INTERRES
   225  114  115 1    
   226  114  235 1    
   227  115  116 1    
   228  115  117 1    
   229  115  236 1    
   230  116  237 1    
   231  116  238 1    
   232  116  239 1    
   233  117  118 2    
   234  117  119 am   BACKBONE|DICT|INTERRES
   235  119  120 1    
   236  119  240 1    
   237  120  121 1    
   238  120  124 1    
   239  120  241 1    
   240  121  122 am   BACKBONE|DICT|INTERRES
   241  121  123 2    
   242  122  242 1    
   243  122  243 1    
   244  124  125 1    
   245  124  244 1    
   246  124  245 1    
   247  125  126 1    
   248  126  246 1    
   249  126  247 1    
@<TRIPOS>SUBSTRUCTURE
     1 UNK         1 GROUP             0       ****    0 ROOT    
