@<TRIPOS>MOLECULE
3R540
247   249    1
SMALL
USER_CHARGES


@<TRIPOS>ATOM
      1 CA          3.8153  -16.3775  -46.7386 C.3       0 UNK        -0.1800 
      2 C           3.4181  -15.0124  -47.2806 C.2       0 UNK         0.5000 
      3 O           4.2237  -14.0813  -47.2414 O.2       0 UNK        -0.5000 
      4 N           2.1770  -14.8914  -47.7677 N.am      1 UNK        -0.5000 
      5 CA          1.5289  -13.6968  -48.3289 C.3       1 UNK         0.1400 
      6 C6          2.1704  -13.1475  -49.6354 C.3       23 UNK        -0.0398 
      7 S7          2.4745  -14.3882  -50.9388 S.3       23 UNK        -0.2404 
      8 C8          0.8032  -14.6886  -51.6035 C.3       23 UNK        -0.0205 
      9 C9          0.0321  -15.6903  -50.7564 C.ar      23 UNK        -0.0193 
     10 C10        -1.1805  -15.3365  -50.1547 C.ar      23 UNK        -0.1150 
     11 C11        -1.8655  -16.2519  -49.3486 C.ar      23 UNK        -0.0193 
     12 C12        -1.3324  -17.5275  -49.1560 C.ar      23 UNK        -0.1150 
     13 C13        -0.1377  -17.8993  -49.7728 C.ar      23 UNK        -0.0193 
     14 C14         0.5398  -16.9795  -50.5727 C.ar      23 UNK        -0.1150 
     15 C15         0.4095  -19.2975  -49.5738 C.3       23 UNK        -0.0205 
     16 S16         1.1415  -19.4719  -47.9219 S.3       23 UNK        -0.2404 
     17 C17         1.4211  -21.2686  -47.8658 C.3       23 UNK        -0.0398 
     18 CA          0.3194  -22.0905  -47.1539 C.3       11 UNK         0.1400 
     19 N           0.1964  -21.8026  -45.7203 N.am      11 UNK        -0.5000 
     20 C          -0.3480  -22.6722  -44.8554 C.2       10 UNK         0.5000 
     21 O          -0.7871  -23.7724  -45.1890 O.2       10 UNK        -0.5000 
     22 CA         -0.4597  -22.2454  -43.3834 C.3       10 UNK         0.1400 
     23 CB          0.9023  -22.3360  -42.6791 C.3       10 UNK        -0.1800 
     24 N          -1.0305  -20.9102  -43.2185 N.am      10 UNK        -0.5000 
     25 C          -2.2731  -20.5674  -43.5872 C.2       9 UNK         0.5000 
     26 O          -3.0725  -21.3489  -44.1020 O.2       9 UNK        -0.5000 
     27 CA         -2.6868  -19.1002  -43.3751 C.3       9 UNK         0.1400 
     28 CB         -3.1174  -18.8616  -41.9205 C.3       9 UNK        -0.1800 
     29 N          -1.6325  -18.1548  -43.7420 N.am      9 UNK        -0.5000 
     30 C          -1.1442  -18.0165  -44.9831 C.2       8 UNK         0.5000 
     31 O          -1.5688  -18.6432  -45.9520 O.2       8 UNK        -0.5000 
     32 CA          0.0522  -17.0627  -45.1587 C.3       8 UNK         0.1400 
     33 CB         -0.4015  -15.5958  -45.1825 C.3       8 UNK        -0.1800 
     34 N           1.0688  -17.2454  -44.1224 N.am      8 UNK        -0.5000 
     35 C           1.7470  -18.3840  -43.9121 C.2       7 UNK         0.5000 
     36 O           1.6298  -19.3985  -44.5995 O.2       7 UNK        -0.5000 
     37 CA          2.6726  -18.4102  -42.6857 C.3       7 UNK         0.1400 
     38 CB          3.9958  -17.6858  -42.9763 C.3       7 UNK        -0.1800 
     39 N           2.0288  -17.8294  -41.5064 N.am      7 UNK        -0.5000 
     40 C           0.9947  -18.3904  -40.8618 C.2       6 UNK         0.5000 
     41 O           0.4965  -19.4692  -41.1777 O.2       6 UNK        -0.5000 
     42 CA          0.3900  -17.5972  -39.6900 C.3       6 UNK         0.1400 
     43 CB          1.1866  -17.8442  -38.4004 C.3       6 UNK        -0.1800 
     44 N           0.3303  -16.1607  -39.9558 N.am      6 UNK        -0.5000 
     45 C          -0.4336  -15.5916  -40.8993 C.2       5 UNK         0.5000 
     46 O          -1.2032  -16.2153  -41.6284 O.2       5 UNK        -0.5000 
     47 CA         -0.2592  -14.0754  -41.0957 C.3       5 UNK         0.1400 
     48 CB         -1.1512  -13.2941  -40.1197 C.3       5 UNK        -0.1800 
     49 N           1.1338  -13.6483  -40.9371 N.am      5 UNK        -0.5000 
     50 C           2.1272  -14.0267  -41.7500 C.2       4 UNK         0.5000 
     51 O           1.9713  -14.7647  -42.7280 O.2       4 UNK        -0.5000 
     52 CA          3.5334  -13.5340  -41.3966 C.3       4 UNK         0.1400 
     53 CB          4.2771  -14.5660  -40.5292 C.3       4 UNK        -0.1800 
     54 N           4.2297  -13.3064  -42.6527 N.am      4 UNK        -0.5000 
     55 C           5.3494  -12.5990  -42.8290 C.2       3 UNK         0.5000 
     56 O           6.0314  -12.1400  -41.9118 O.2       3 UNK        -0.5000 
     57 CA          5.7380  -12.3159  -44.2925 C.3       3 UNK         0.1400 
     58 CB          6.5297  -13.4952  -44.8785 C.3       3 UNK        -0.1800 
     59 N           4.5710  -12.0424  -45.1399 N.am      3 UNK        -0.5000 
     60 C           3.7600  -10.9789  -44.9945 C.2       2 UNK         0.5000 
     61 O           3.9518  -10.0981  -44.1549 O.2       2 UNK        -0.5000 
     62 CA          2.5310  -10.8623  -45.9171 C.3       2 UNK         0.1400 
     63 CB          2.5198   -9.5265  -46.6817 C.3       2 UNK        -0.1800 
     64 N           2.4547  -11.9613  -46.8743 N.am      2 UNK        -0.5000 
     65 C           1.3418  -12.5727  -47.2887 C.2       1 UNK         0.5000 
     66 O           0.2112  -12.2853  -46.8944 O.2       1 UNK        -0.5000 
     67 C          -1.0443  -22.0730  -47.8833 C.2       11 UNK         0.5000 
     68 O          -1.2234  -22.8332  -48.8365 O.2       11 UNK        -0.5000 
     69 N          -1.9988  -21.2563  -47.4082 N.am      12 UNK        -0.5000 
     70 CA         -3.3878  -21.2686  -47.8723 C.3       12 UNK         0.1400 
     71 CB         -4.1616  -20.0819  -47.2809 C.3       12 UNK        -0.1800 
     72 C          -4.0915  -22.5942  -47.5332 C.2       12 UNK         0.5000 
     73 O          -4.7134  -23.1888  -48.4129 O.2       12 UNK        -0.5000 
     74 N          -3.9375  -23.0591  -46.2838 N.am      13 UNK        -0.5000 
     75 CA         -4.4530  -24.3415  -45.7953 C.3       13 UNK         0.1400 
     76 CB         -4.2619  -24.4262  -44.2737 C.3       13 UNK        -0.1800 
     77 C          -3.8121  -25.5562  -46.4934 C.2       13 UNK         0.5000 
     78 O          -4.4994  -26.5479  -46.7390 O.2       13 UNK        -0.5000 
     79 N          -2.5231  -25.4401  -46.8419 N.am      14 UNK        -0.5000 
     80 CA         -1.7763  -26.4080  -47.6497 C.3       14 UNK         0.1400 
     81 CB         -0.2710  -26.1524  -47.4788 C.3       14 UNK        -0.1800 
     82 C          -2.1583  -26.3945  -49.1460 C.2       14 UNK         0.5000 
     83 O          -1.6967  -27.2681  -49.8813 O.2       14 UNK        -0.5000 
     84 N          -2.9870  -25.4250  -49.5652 N.am      15 UNK        -0.5000 
     85 CA         -3.5250  -25.2274  -50.9109 C.3       15 UNK         0.1400 
     86 CB         -4.4256  -26.4152  -51.3129 C.3       15 UNK        -0.1800 
     87 C          -2.4236  -24.9123  -51.9405 C.2       15 UNK         0.5000 
     88 O          -2.3257  -25.5874  -52.9668 O.2       15 UNK        -0.5000 
     89 N          -1.6080  -23.8883  -51.6448 N.am      16 UNK        -0.5000 
     90 CA         -0.4908  -23.4223  -52.4758 C.3       16 UNK         0.1400 
     91 CB          0.1636  -22.2018  -51.8138 C.3       16 UNK        -0.1800 
     92 C          -0.8701  -23.0984  -53.9348 C.2       16 UNK         0.5000 
     93 O          -0.1497  -23.5004  -54.8492 O.2       16 UNK        -0.5000 
     94 N          -2.0090  -22.4207  -54.1263 N.am      17 UNK        -0.5000 
     95 CA         -2.5943  -22.1177  -55.4348 C.3       17 UNK         0.1400 
     96 CB         -3.0632  -20.6544  -55.4428 C.3       17 UNK        -0.1800 
     97 C          -3.7419  -23.0876  -55.7865 C.2       17 UNK         0.5000 
     98 O          -4.6510  -22.7117  -56.5290 O.2       17 UNK        -0.5000 
     99 N          -3.7030  -24.3115  -55.2380 N.am      18 UNK        -0.5000 
    100 CA        -4.7207  -25.3587  -55.3506 C.3       18 UNK         0.1400 
    101 CB        -4.7868  -25.9081  -56.7941 C.3       18 UNK        -0.1800 
    102 C         -6.0702  -24.8718  -54.7842 C.2       18 UNK         0.5000 
    103 O         -6.0983  -24.3553  -53.6650 O.2       18 UNK        -0.5000 
    104 N         -7.1531  -25.0033  -55.5615 N.am      19 UNK        -0.5000 
    105 CA        -8.5142  -24.5921  -55.2038 C.3       19 UNK         0.1400 
    106 CB        -9.4725  -25.0270  -56.3233 C.3       19 UNK        -0.1800 
    107 C         -8.6758  -23.0851  -54.9114 C.2       19 UNK         0.5000 
    108 O         -9.6240  -22.7073  -54.2224 O.2       19 UNK        -0.5000 
    109 N         -7.7512  -22.2550  -55.4158 N.am      20 UNK        -0.5000 
    110 CA        -7.6987  -20.8186  -55.1449 C.3       20 UNK         0.1400 
    111 CB        -6.9654  -20.1147  -56.2975 C.3       20 UNK        -0.1800 
    112 C         -7.0466  -20.4742  -53.7896 C.2       20 UNK         0.5000 
    113 O         -7.1050  -19.3078  -53.3975 O.2       20 UNK        -0.5000 
    114 N         -6.4347  -21.4609  -53.1108 N.am      21 UNK        -0.5000 
    115 CA        -5.7424  -21.3812  -51.8181 C.3       21 UNK         0.1400 
    116 CB        -6.7393  -21.1120  -50.6719 C.3       21 UNK        -0.1800 
    117 C         -4.5621  -20.3909  -51.8399 C.2       21 UNK         0.5000 
    118 O         -3.4339  -20.8080  -52.1059 O.2       21 UNK        -0.5000 
    119 N         -4.8566  -19.1099  -51.5882 N.am      22 UNK        -0.5000 
    120 CA        -3.9568  -17.9645  -51.7924 C.3       22 UNK         0.1400 
    121 C         -3.7182  -17.6287  -53.2917 C.2       22 UNK         0.5000 
    122 N         -4.6643  -17.9043  -54.1819 N.am      22 UNK        -0.7600 
    123 O         -2.6696  -17.1005  -53.6489 O.2       22 UNK        -0.5000 
    124 C124       -4.4817  -16.6971  -51.0676 C.3       23 UNK        -0.0398 
    125 S125       -4.5756  -16.9023  -49.2576 S.3       23 UNK        -0.2404 
    126 C126       -3.1834  -15.8697  -48.6895 C.3       23 UNK        -0.0205 
    127 H127        4.6635  -16.7708  -47.2985 H         1 UNK         0.0600 
    128 H128        2.9989  -17.0970  -46.8066 H         1 UNK         0.0600 
    129 H129        4.1056  -16.2916  -45.6922 H         1 UNK         0.0600 
    130 H130        1.5908  -15.7134  -47.7756 H         1 UNK         0.3000 
    131 H131        0.5208  -14.0206  -48.5778 H         1 UNK         0.0600 
    132 H132        1.5492  -12.3550  -50.0562 H         1 UNK         0.0800 
    133 H133        3.1353  -12.6853  -49.4221 H         1 UNK         0.0800 
    134 H134        0.2643  -13.7444  -51.6937 H         1 UNK         0.0800 
    135 H135        0.8945  -15.0881  -52.6144 H         1 UNK         0.0800 
    136 H136       -1.5843  -14.3450  -50.3039 H         1 UNK         0.1150 
    137 H137       -1.8535  -18.2402  -48.5342 H         1 UNK         0.1150 
    138 H138        1.4716  -17.2597  -51.0437 H         1 UNK         0.1150 
    139 H139       -0.4043  -20.0103  -49.7031 H         1 UNK         0.0800 
    140 H140        1.1576  -19.5351  -50.3315 H         1 UNK         0.0800 
    141 H141        2.3697  -21.4297  -47.3522 H         1 UNK         0.0800 
    142 H142        1.5787  -21.6418  -48.8781 H         1 UNK         0.0800 
    143 H143        0.6656  -23.1230  -47.2219 H         1 UNK         0.0600 
    144 H144        0.5478  -20.9068  -45.3917 H         1 UNK         0.3000 
    145 H145       -1.1335  -22.9498  -42.8911 H         1 UNK         0.0600 
    146 H146        0.8045  -22.1536  -41.6091 H         1 UNK         0.0600 
    147 H147        1.6143  -21.6142  -43.0784 H         1 UNK         0.0600 
    148 H148        1.3387  -23.3283  -42.7992 H         1 UNK         0.0600 
    149 H149       -0.4449  -20.2215  -42.7567 H         1 UNK         0.3000 
    150 H150       -3.5467  -18.9031  -44.0185 H         1 UNK         0.0600 
    151 H151       -3.9117  -19.5503  -41.6300 H         1 UNK         0.0600 
    152 H152       -3.4986  -17.8495  -41.7839 H         1 UNK         0.0600 
    153 H153       -2.2885  -19.0034  -41.2267 H         1 UNK         0.0600 
    154 H154       -1.2681  -17.5669  -42.9977 H         1 UNK         0.3000 
    155 H155        0.5168  -17.2830  -46.1202 H         1 UNK         0.0600 
    156 H156       -1.0984  -15.4170  -46.0021 H         1 UNK         0.0600 
    157 H157        0.4446  -14.9228  -45.3214 H         1 UNK         0.0600 
    158 H158       -0.9011  -15.3123  -44.2560 H         1 UNK         0.0600 
    159 H159        1.2521  -16.4499  -43.5188 H         1 UNK         0.3000 
    160 H160        2.9036  -19.4545  -42.4651 H         1 UNK         0.0600 
    161 H161        3.8435  -16.6288  -43.1943 H         1 UNK         0.0600 
    162 H162        4.4977  -18.1274  -43.8382 H         1 UNK         0.0600 
    163 H163        4.6798  -17.7611  -42.1311 H         1 UNK         0.0600 
    164 H164        2.3482  -16.9194  -41.2129 H         1 UNK         0.3000 
    165 H165       -0.6300  -17.9556  -39.5360 H         1 UNK         0.0600 
    166 H166        0.7211  -17.3483  -37.5484 H         1 UNK         0.0600 
    167 H167        1.2332  -18.9092  -38.1692 H         1 UNK         0.0600 
    168 H168        2.2118  -17.4807  -38.4821 H         1 UNK         0.0600 
    169 H169        0.9311  -15.5685  -39.4023 H         1 UNK         0.3000 
    170 H170       -0.5735  -13.8347  -42.1137 H         1 UNK         0.0600 
    171 H171       -0.8694  -13.4738  -39.0815 H         1 UNK         0.0600 
    172 H172       -1.0914  -12.2213  -40.3036 H         1 UNK         0.0600 
    173 H173       -2.1971  -13.5837  -40.2309 H         1 UNK         0.0600 
    174 H174        1.3357  -13.0410  -40.1556 H         1 UNK         0.3000 
    175 H175        3.4550  -12.5871  -40.8585 H         1 UNK         0.0600 
    176 H176        4.4222  -15.5074  -41.0575 H         1 UNK         0.0600 
    177 H177        5.2590  -14.1996  -40.2303 H         1 UNK         0.0600 
    178 H178        3.7234  -14.7822  -39.6149 H         1 UNK         0.0600 
    179 H179        3.7260  -13.6437  -43.4633 H         1 UNK         0.3000 
    180 H180        6.3796  -11.4325  -44.3045 H         1 UNK         0.0600 
    181 H181        6.8562  -13.2835  -45.8969 H         1 UNK         0.0600 
    182 H182        5.9346  -14.4090  -44.9020 H         1 UNK         0.0600 
    183 H183        7.4223  -13.6992  -44.2859 H         1 UNK         0.0600 
    184 H184        4.3691  -12.7401  -45.8482 H         1 UNK         0.3000 
    185 H185        1.6588  -10.8936  -45.2610 H         1 UNK         0.0600 
    186 H186        1.6172   -9.4248  -47.2844 H         1 UNK         0.0600 
    187 H187        2.5467   -8.6783  -45.9965 H         1 UNK         0.0600 
    188 H188        3.3791   -9.4402  -47.3477 H         1 UNK         0.0600 
    189 H189        3.3368  -12.3300  -47.2138 H         1 UNK         0.3000 
    190 H190       -1.7698  -20.6034  -46.6659 H         1 UNK         0.3000 
    191 H191       -3.3785  -21.1578  -48.9588 H         1 UNK         0.0600 
    192 H192       -3.6966  -19.1351  -47.5465 H         1 UNK         0.0600 
    193 H193       -4.2130  -20.1295  -46.1937 H         1 UNK         0.0600 
    194 H194       -5.1847  -20.0549  -47.6569 H         1 UNK         0.0600 
    195 H195       -3.4426  -22.4861  -45.6047 H         1 UNK         0.3000 
    196 H196       -5.5241  -24.3692  -46.0051 H         1 UNK         0.0600 
    197 H197       -4.7872  -23.6175  -43.7655 H         1 UNK         0.0600 
    198 H198       -3.2091  -24.3664  -43.9962 H         1 UNK         0.0600 
    199 H199       -4.6533  -25.3656  -43.8814 H         1 UNK         0.0600 
    200 H200       -2.0075  -24.6281  -46.5173 H         1 UNK         0.3000 
    201 H201       -1.9944  -27.4073  -47.2678 H         1 UNK         0.0600 
    202 H202        0.0157  -26.1415  -46.4271 H         1 UNK         0.0600 
    203 H203        0.0234  -25.2023  -47.9222 H         1 UNK         0.0600 
    204 H204        0.3147  -26.9327  -47.9661 H         1 UNK         0.0600 
    205 H205       -3.2921  -24.7413  -48.8835 H         1 UNK         0.3000 
    206 H206       -4.1592  -24.3421  -50.8621 H         1 UNK         0.0600 
    207 H207       -3.8609  -27.3415  -51.4200 H         1 UNK         0.0600 
    208 H208       -5.2078  -26.5825  -50.5725 H         1 UNK         0.0600 
    209 H209       -4.9186  -26.2292  -52.2650 H         1 UNK         0.0600 
    210 H210       -1.7112  -23.4304  -50.7445 H         1 UNK         0.3000 
    211 H211        0.2452  -24.2281  -52.5027 H         1 UNK         0.0600 
    212 H212       -0.5527  -21.3904  -51.6799 H         1 UNK         0.0600 
    213 H213        0.9875  -21.8189  -52.4174 H         1 UNK         0.0600 
    214 H214        0.5715  -22.4602  -50.8381 H         1 UNK         0.0600 
    215 H215       -2.5225  -22.0825  -53.3169 H         1 UNK         0.3000 
    216 H216       -1.8404  -22.2241  -56.2170 H         1 UNK         0.0600 
    217 H217       -3.3612  -20.3420  -56.4441 H         1 UNK         0.0600 
    218 H218       -2.2725  -19.9796  -55.1143 H         1 UNK         0.0600 
    219 H219       -3.9206  -20.5113  -54.7865 H         1 UNK         0.0600 
    220 H220       -2.9481  -24.5269  -54.5957 H         1 UNK         0.3000 
    221 H221       -4.3969  -26.1752  -54.7045 H         1 UNK         0.0600 
    222 H222       -5.1354  -25.1612  -57.5080 H         1 UNK         0.0600 
    223 H223       -3.8036  -26.2429  -57.1250 H         1 UNK         0.0600 
    224 H224       -5.4524  -26.7697  -56.8586 H         1 UNK         0.0600 
    225 H225       -7.0362  -25.4125  -56.4771 H         1 UNK         0.3000 
    226 H226       -8.7887  -25.1264  -54.2920 H         1 UNK         0.0600 
    227 H227       -9.4394  -26.1061  -56.4753 H         1 UNK         0.0600 
    228 H228      -10.5036  -24.7671  -56.0796 H         1 UNK         0.0600 
    229 H229       -9.2278  -24.5453  -57.2708 H         1 UNK         0.0600 
    230 H230       -6.9885  -22.6411  -55.9579 H         1 UNK         0.3000 
    231 H231       -8.7186  -20.4293  -55.1172 H         1 UNK         0.0600 
    232 H232       -6.9850  -19.0317  -56.1701 H         1 UNK         0.0600 
    233 H233       -7.4333  -20.3353  -57.2569 H         1 UNK         0.0600 
    234 H234       -5.9206  -20.4160  -56.3569 H         1 UNK         0.0600 
    235 H235       -6.4326  -22.3877  -53.5252 H         1 UNK         0.3000 
    236 H236       -5.3122  -22.3682  -51.6447 H         1 UNK         0.0600 
    237 H237       -7.2933  -20.1829  -50.8066 H         1 UNK         0.0600 
    238 H238       -7.4667  -21.9202  -50.5953 H         1 UNK         0.0600 
    239 H239       -6.2233  -21.0528  -49.7132 H         1 UNK         0.0600 
    240 H240       -5.8268  -18.8784  -51.4303 H         1 UNK         0.3000 
    241 H241       -2.9846  -18.2262  -51.3718 H         1 UNK         0.0600 
    242 H242       -4.5128  -17.6745  -55.1503 H         1 UNK         0.3800 
    243 H243       -5.5406  -18.3251  -53.8884 H         1 UNK         0.3800 
    244 H244       -3.8565  -15.8318  -51.2945 H         1 UNK         0.0800 
    245 H245       -5.4792  -16.4419  -51.4293 H         1 UNK         0.0800 
    246 H246       -3.0837  -15.9784  -47.6086 H         1 UNK         0.0800 
    247 H247       -3.4208  -14.8210  -48.8742 H         1 UNK         0.0800 
@<TRIPOS>BOND
     1    1    2 1    
     2    1  127 1    
     3    1  128 1    
     4    1  129 1    
     5    2    3 2    
     6    2    4 am   BACKBONE|DICT|INTERRES
     7    4    5 1    
     8    4  130 1    
     9    5    6 1    
    10    5   65 1    
    11    5  131 1    
    12    6    7 1    
    13    6  132 1    
    14    6  133 1    
    15    7    8 1    
    16    8    9 1    
    17    8  134 1    
    18    8  135 1    
    19    9   10 ar   
    20    9   14 ar   
    21   10   11 ar   
    22   10  136 1    
    23   11   12 ar   
    24   11  126 1    
    25   12   13 ar   
    26   12  137 1    
    27   13   14 ar   
    28   13   15 1    
    29   14  138 1    
    30   15   16 1    
    31   15  139 1    
    32   15  140 1    
    33   16   17 1    
    34   17   18 1    
    35   17  141 1    
    36   17  142 1    
    37   18   19 1    
    38   18   67 1    
    39   18  143 1    
    40   19   20 am   BACKBONE|DICT|INTERRES
    41   19  144 1    
    42   20   21 2    
    43   20   22 1    
    44   22   23 1    
    45   22   24 1    
    46   22  145 1    
    47   23  146 1    
    48   23  147 1    
    49   23  148 1    
    50   24   25 am   BACKBONE|DICT|INTERRES
    51   24  149 1    
    52   25   26 2    
    53   25   27 1    
    54   27   28 1    
    55   27   29 1    
    56   27  150 1    
    57   28  151 1    
    58   28  152 1    
    59   28  153 1    
    60   29   30 am   BACKBONE|DICT|INTERRES
    61   29  154 1    
    62   30   31 2    
    63   30   32 1    
    64   32   33 1    
    65   32   34 1    
    66   32  155 1    
    67   33  156 1    
    68   33  157 1    
    69   33  158 1    
    70   34   35 am   BACKBONE|DICT|INTERRES
    71   34  159 1    
    72   35   36 2    
    73   35   37 1    
    74   37   38 1    
    75   37   39 1    
    76   37  160 1    
    77   38  161 1    
    78   38  162 1    
    79   38  163 1    
    80   39   40 am   BACKBONE|DICT|INTERRES
    81   39  164 1    
    82   40   41 2    
    83   40   42 1    
    84   42   43 1    
    85   42   44 1    
    86   42  165 1    
    87   43  166 1    
    88   43  167 1    
    89   43  168 1    
    90   44   45 am   BACKBONE|DICT|INTERRES
    91   44  169 1    
    92   45   46 2    
    93   45   47 1    
    94   47   48 1    
    95   47   49 1    
    96   47  170 1    
    97   48  171 1    
    98   48  172 1    
    99   48  173 1    
   100   49   50 am   BACKBONE|DICT|INTERRES
   101   49  174 1    
   102   50   51 2    
   103   50   52 1    
   104   52   53 1    
   105   52   54 1    
   106   52  175 1    
   107   53  176 1    
   108   53  177 1    
   109   53  178 1    
   110   54   55 am   BACKBONE|DICT|INTERRES
   111   54  179 1    
   112   55   56 2    
   113   55   57 1    
   114   57   58 1    
   115   57   59 1    
   116   57  180 1    
   117   58  181 1    
   118   58  182 1    
   119   58  183 1    
   120   59   60 am   BACKBONE|DICT|INTERRES
   121   59  184 1    
   122   60   61 2    
   123   60   62 1    
   124   62   63 1    
   125   62   64 1    
   126   62  185 1    
   127   63  186 1    
   128   63  187 1    
   129   63  188 1    
   130   64   65 am   BACKBONE|DICT|INTERRES
   131   64  189 1    
   132   65   66 2    
   133   67   68 2    
   134   67   69 am   BACKBONE|DICT|INTERRES
   135   69   70 1    
   136   69  190 1    
   137   70   71 1    
   138   70   72 1    
   139   70  191 1    
   140   71  192 1    
   141   71  193 1    
   142   71  194 1    
   143   72   73 2    
   144   72   74 am   BACKBONE|DICT|INTERRES
   145   74   75 1    
   146   74  195 1    
   147   75   76 1    
   148   75   77 1    
   149   75  196 1    
   150   76  197 1    
   151   76  198 1    
   152   76  199 1    
   153   77   78 2    
   154   77   79 am   BACKBONE|DICT|INTERRES
   155   79   80 1    
   156   79  200 1    
   157   80   81 1    
   158   80   82 1    
   159   80  201 1    
   160   81  202 1    
   161   81  203 1    
   162   81  204 1    
   163   82   83 2    
   164   82   84 am   BACKBONE|DICT|INTERRES
   165   84   85 1    
   166   84  205 1    
   167   85   86 1    
   168   85   87 1    
   169   85  206 1    
   170   86  207 1    
   171   86  208 1    
   172   86  209 1    
   173   87   88 2    
   174   87   89 am   BACKBONE|DICT|INTERRES
   175   89   90 1    
   176   89  210 1    
   177   90   91 1    
   178   90   92 1    
   179   90  211 1    
   180   91  212 1    
   181   91  213 1    
   182   91  214 1    
   183   92   93 2    
   184   92   94 am   BACKBONE|DICT|INTERRES
   185   94   95 1    
   186   94  215 1    
   187   95   96 1    
   188   95   97 1    
   189   95  216 1    
   190   96  217 1    
   191   96  218 1    
   192   96  219 1    
   193   97   98 2    
   194   97   99 am   BACKBONE|DICT|INTERRES
   195   99  100 1    
   196   99  220 1    
   197  100  101 1    
   198  100  102 1    
   199  100  221 1    
   200  101  222 1    
   201  101  223 1    
   202  101  224 1    
   203  102  103 2    
   204  102  104 am   BACKBONE|DICT|INTERRES
   205  104  105 1    
   206  104  225 1    
   207  105  106 1    
   208  105  107 1    
   209  105  226 1    
   210  106  227 1    
   211  106  228 1    
   212  106  229 1    
   213  107  108 2    
   214  107  109 am   BACKBONE|DICT|INTERRES
   215  109  110 1    
   216  109  230 1    
   217  110  111 1    
   218  110  112 1    
   219  110  231 1    
   220  111  232 1    
   221  111  233 1    
   222  111  234 1    
   223  112  113 2    
   224  112  114 am   BACKBONE|DICT|INTERRES
   225  114  115 1    
   226  114  235 1    
   227  115  116 1    
   228  115  117 1    
   229  115  236 1    
   230  116  237 1    
   231  116  238 1    
   232  116  239 1    
   233  117  118 2    
   234  117  119 am   BACKBONE|DICT|INTERRES
   235  119  120 1    
   236  119  240 1    
   237  120  121 1    
   238  120  124 1    
   239  120  241 1    
   240  121  122 am   BACKBONE|DICT|INTERRES
   241  121  123 2    
   242  122  242 1    
   243  122  243 1    
   244  124  125 1    
   245  124  244 1    
   246  124  245 1    
   247  125  126 1    
   248  126  246 1    
   249  126  247 1    
@<TRIPOS>SUBSTRUCTURE
     1 UNK         1 GROUP             0       ****    0 ROOT    
