@<TRIPOS>MOLECULE
3R540
247   249    1
SMALL
USER_CHARGES


@<TRIPOS>ATOM
      1 CA          5.6895  -10.1147  -50.0111 C.3       0 UNK        -0.1800 
      2 C           5.8372  -11.5474  -49.5204 C.2       0 UNK         0.5000 
      3 O           5.9672  -11.7717  -48.3170 O.2       0 UNK        -0.5000 
      4 N           5.7978  -12.5171  -50.4443 N.am      1 UNK        -0.5000 
      5 CA          5.9347  -13.9607  -50.1926 C.3       1 UNK         0.1400 
      6 C6          6.0886  -14.7673  -51.5082 C.3       23 UNK        -0.0398 
      7 S7          4.7898  -14.4342  -52.7543 S.3       23 UNK        -0.2404 
      8 C8          4.1250  -16.0973  -53.0857 C.3       23 UNK        -0.0205 
      9 C9          3.2033  -16.5826  -51.9770 C.ar      23 UNK        -0.0193 
     10 C10         1.9140  -16.0593  -51.8624 C.ar      23 UNK        -0.1150 
     11 C11         1.0541  -16.5058  -50.8569 C.ar      23 UNK        -0.0193 
     12 C12         1.4933  -17.4838  -49.9601 C.ar      23 UNK        -0.1150 
     13 C13         2.7814  -18.0300  -50.0653 C.ar      23 UNK        -0.0193 
     14 C14         3.6252  -17.5688  -51.0817 C.ar      23 UNK        -0.1150 
     15 C15         3.3216  -19.1186  -49.1310 C.3       23 UNK        -0.0205 
     16 S16         2.3240  -19.5036  -47.6490 S.3       23 UNK        -0.2404 
     17 C17         0.9198  -20.4319  -48.3509 C.3       23 UNK        -0.0398 
     18 CA          0.5407  -21.7066  -47.5552 C.3       11 UNK         0.1400 
     19 N           0.1902  -21.4517  -46.1500 N.am      11 UNK        -0.5000 
     20 C          -0.1081  -22.4040  -45.2511 C.2       10 UNK         0.5000 
     21 O          -0.0301  -23.6094  -45.4874 O.2       10 UNK        -0.5000 
     22 CA         -0.6466  -21.9511  -43.8797 C.3       10 UNK         0.1400 
     23 CB          0.4933  -21.6812  -42.8862 C.3       10 UNK        -0.1800 
     24 N          -1.5278  -20.7861  -43.9771 N.am      10 UNK        -0.5000 
     25 C          -2.7330  -20.8048  -44.5658 C.2       9 UNK         0.5000 
     26 O          -3.2445  -21.8234  -45.0300 O.2       9 UNK        -0.5000 
     27 CA         -3.4727  -19.4602  -44.7047 C.3       9 UNK         0.1400 
     28 CB         -4.2597  -19.1316  -43.4279 C.3       9 UNK        -0.1800 
     29 N          -2.5728  -18.3541  -45.0289 N.am      9 UNK        -0.5000 
     30 C          -1.8691  -18.2682  -46.1668 C.2       8 UNK         0.5000 
     31 O          -1.9641  -19.0796  -47.0890 O.2       8 UNK        -0.5000 
     32 CA         -0.8354  -17.1289  -46.2594 C.3       8 UNK         0.1400 
     33 CB         -1.4958  -15.8131  -46.6921 C.3       8 UNK        -0.1800 
     34 N          -0.1167  -16.9122  -45.0041 N.am      8 UNK        -0.5000 
     35 C           0.6491  -17.8222  -44.3890 C.2       7 UNK         0.5000 
     36 O           0.8470  -18.9510  -44.8290 O.2       7 UNK        -0.5000 
     37 CA          1.2206  -17.4446  -43.0124 C.3       7 UNK         0.1400 
     38 CB          2.4657  -16.5554  -43.1320 C.3       7 UNK        -0.1800 
     39 N           0.2191  -16.7865  -42.1765 N.am      7 UNK        -0.5000 
     40 C          -0.8379  -17.4094  -41.6383 C.2       6 UNK         0.5000 
     41 O          -1.0482  -18.6174  -41.7483 O.2       6 UNK        -0.5000 
     42 CA         -1.8413  -16.5262  -40.8739 C.3       6 UNK         0.1400 
     43 CB         -1.4016  -16.3483  -39.4130 C.3       6 UNK        -0.1800 
     44 N          -2.0159  -15.2094  -41.4907 N.am      6 UNK        -0.5000 
     45 C          -2.6192  -15.0045  -42.6700 C.2       5 UNK         0.5000 
     46 O          -3.1156  -15.9043  -43.3477 O.2       5 UNK        -0.5000 
     47 CA         -2.6245  -13.5559  -43.1993 C.3       5 UNK         0.1400 
     48 CB         -3.7820  -12.7574  -42.5813 C.3       5 UNK        -0.1800 
     49 N          -1.3612  -12.8421  -42.9717 N.am      5 UNK        -0.5000 
     50 C          -0.1811  -13.2308  -43.4712 C.2       4 UNK         0.5000 
     51 O          -0.0406  -14.2513  -44.1443 O.2       4 UNK        -0.5000 
     52 CA          1.0476  -12.3770  -43.1307 C.3       4 UNK         0.1400 
     53 CB          1.4803  -12.6169  -41.6711 C.3       4 UNK        -0.1800 
     54 N           2.1330  -12.7391  -44.0394 N.am      4 UNK        -0.5000 
     55 C           3.2571  -12.0519  -44.2569 C.2       3 UNK         0.5000 
     56 O           3.5011  -10.9679  -43.7251 O.2       3 UNK        -0.5000 
     57 CA          4.2932  -12.6641  -45.2237 C.3       3 UNK         0.1400 
     58 CB          5.0678  -13.8169  -44.5572 C.3       3 UNK        -0.1800 
     59 N           3.7721  -13.0621  -46.5378 N.am      3 UNK        -0.5000 
     60 C           2.8847  -14.0208  -46.8467 C.2       2 UNK         0.5000 
     61 O           2.3336  -14.7431  -46.0198 O.2       2 UNK        -0.5000 
     62 CA          2.5558  -14.2101  -48.3396 C.3       2 UNK         0.1400 
     63 CB          1.3494  -13.3446  -48.7334 C.3       2 UNK        -0.1800 
     64 N           3.6721  -13.8840  -49.2254 N.am      2 UNK        -0.5000 
     65 C           4.8338  -14.5508  -49.2828 C.2       1 UNK         0.5000 
     66 O           5.0732  -15.5692  -48.6331 O.2       1 UNK        -0.5000 
     67 C          -0.6003  -22.4398  -48.2881 C.2       11 UNK         0.5000 
     68 O          -0.3461  -23.4412  -48.9552 O.2       11 UNK        -0.5000 
     69 N          -1.8371  -21.9483  -48.1238 N.am      12 UNK        -0.5000 
     70 CA         -3.0405  -22.5470  -48.7020 C.3       12 UNK         0.1400 
     71 CB         -4.2249  -21.5895  -48.5257 C.3       12 UNK        -0.1800 
     72 C          -3.3559  -23.9404  -48.1264 C.2       12 UNK         0.5000 
     73 O          -3.7492  -24.8338  -48.8764 O.2       12 UNK        -0.5000 
     74 N          -3.1392  -24.1241  -46.8162 N.am      13 UNK        -0.5000 
     75 CA         -3.2599  -25.4136  -46.1339 C.3       13 UNK         0.1400 
     76 CB         -3.1415  -25.2178  -44.6155 C.3       13 UNK        -0.1800 
     77 C          -2.2325  -26.4422  -46.6418 C.2       13 UNK         0.5000 
     78 O          -2.6090  -27.5764  -46.9388 O.2       13 UNK        -0.5000 
     79 N          -0.9692  -26.0164  -46.7910 N.am      14 UNK        -0.5000 
     80 CA          0.1200  -26.8134  -47.3644 C.3       14 UNK         0.1400 
     81 CB          1.4496  -26.0645  -47.1901 C.3       14 UNK        -0.1800 
     82 C          -0.1124  -27.1767  -48.8446 C.2       14 UNK         0.5000 
     83 O           0.2651  -28.2684  -49.2705 O.2       14 UNK        -0.5000 
     84 N          -0.7725  -26.2773  -49.5854 N.am      15 UNK        -0.5000 
     85 CA         -1.2167  -26.4673  -50.9670 C.3       15 UNK         0.1400 
     86 CB         -1.3802  -25.0883  -51.6274 C.3       15 UNK        -0.1800 
     87 C          -2.5102  -27.3046  -51.0942 C.2       15 UNK         0.5000 
     88 O          -3.0135  -27.4526  -52.2077 O.2       15 UNK        -0.5000 
     89 N          -3.0297  -27.8349  -49.9759 N.am      16 UNK        -0.5000 
     90 CA         -4.2137  -28.6923  -49.8627 C.3       16 UNK         0.1400 
     91 CB         -3.9926  -30.0388  -50.5841 C.3       16 UNK        -0.1800 
     92 C          -5.5144  -27.9780  -50.2825 C.2       16 UNK         0.5000 
     93 O          -6.3263  -28.5429  -51.0172 O.2       16 UNK        -0.5000 
     94 N          -5.6768  -26.7406  -49.7944 N.am      17 UNK        -0.5000 
     95 CA         -6.8129  -25.8318  -49.9866 C.3       17 UNK         0.1400 
     96 CB         -8.1513  -26.4763  -49.5674 C.3       17 UNK        -0.1800 
     97 C          -6.8715  -25.1755  -51.3805 C.2       17 UNK         0.5000 
     98 O          -7.8610  -24.5109  -51.6944 O.2       17 UNK        -0.5000 
     99 N          -5.7994  -25.3133  -52.1716 N.am      18 UNK        -0.5000 
    100 CA        -5.5270  -24.4682  -53.3337 C.3       18 UNK         0.1400 
    101 CB        -4.5415  -25.1949  -54.2614 C.3       18 UNK        -0.1800 
    102 C         -4.9687  -23.1032  -52.8793 C.2       18 UNK         0.5000 
    103 O         -4.6365  -22.9369  -51.7043 O.2       18 UNK        -0.5000 
    104 N         -4.8710  -22.1539  -53.8209 N.am      19 UNK        -0.5000 
    105 CA        -4.4590  -20.7601  -53.6083 C.3       19 UNK         0.1400 
    106 CB        -2.9989  -20.6649  -53.1121 C.3       19 UNK        -0.1800 
    107 C         -5.4562  -20.0142  -52.6994 C.2       19 UNK         0.5000 
    108 O         -5.0921  -19.5183  -51.6316 O.2       19 UNK        -0.5000 
    109 N         -6.7164  -19.9487  -53.1510 N.am      20 UNK        -0.5000 
    110 CA        -7.8410  -19.3205  -52.4464 C.3       20 UNK         0.1400 
    111 CB        -9.1315  -19.5810  -53.2382 C.3       20 UNK        -0.1800 
    112 C         -7.6673  -17.8104  -52.1760 C.2       20 UNK         0.5000 
    113 O         -8.2886  -17.2884  -51.2500 O.2       20 UNK        -0.5000 
    114 N         -6.8152  -17.1426  -52.9673 N.am      21 UNK        -0.5000 
    115 CA        -6.3885  -15.7585  -52.7532 C.3       21 UNK         0.1400 
    116 CB        -5.6853  -15.2502  -54.0212 C.3       21 UNK        -0.1800 
    117 C         -5.4674  -15.5988  -51.5257 C.2       21 UNK         0.5000 
    118 O         -5.4805  -14.5404  -50.8960 O.2       21 UNK        -0.5000 
    119 N         -4.6957  -16.6460  -51.2092 N.am      22 UNK        -0.5000 
    120 CA        -3.8602  -16.7444  -50.0046 C.3       22 UNK         0.1400 
    121 C         -4.6773  -17.2991  -48.8077 C.2       22 UNK         0.5000 
    122 N         -5.4784  -18.3388  -49.0070 N.am      22 UNK        -0.7600 
    123 O         -4.6093  -16.7667  -47.7048 O.2       22 UNK        -0.5000 
    124 C124       -2.5836  -17.5934  -50.2470 C.3       23 UNK        -0.0398 
    125 S125       -1.5667  -16.9438  -51.6177 S.3       23 UNK        -0.2404 
    126 C126       -0.3445  -15.9213  -50.7388 C.3       23 UNK        -0.0205 
    127 H127        4.8167   -9.6495  -49.5532 H         1 UNK         0.0600 
    128 H128        6.5698   -9.5329  -49.7384 H         1 UNK         0.0600 
    129 H129        5.5721  -10.0669  -51.0940 H         1 UNK         0.0600 
    130 H130        5.6655  -12.2676  -51.4148 H         1 UNK         0.3000 
    131 H131        6.8666  -14.0839  -49.6365 H         1 UNK         0.0600 
    132 H132        7.0453  -14.5154  -51.9674 H         1 UNK         0.0800 
    133 H133        6.1460  -15.8370  -51.2996 H         1 UNK         0.0800 
    134 H134        3.5660  -16.0679  -54.0221 H         1 UNK         0.0800 
    135 H135        4.9463  -16.7971  -53.2479 H         1 UNK         0.0800 
    136 H136        1.5814  -15.3015  -52.5579 H         1 UNK         0.1150 
    137 H137        0.8175  -17.8045  -49.1852 H         1 UNK         0.1150 
    138 H138        4.6205  -17.9806  -51.1740 H         1 UNK         0.1150 
    139 H139        3.4799  -20.0338  -49.7028 H         1 UNK         0.0800 
    140 H140        4.3062  -18.8049  -48.7807 H         1 UNK         0.0800 
    141 H141        1.1641  -20.6984  -49.3810 H         1 UNK         0.0800 
    142 H142        0.0677  -19.7579  -48.4160 H         1 UNK         0.0800 
    143 H143        1.4072  -22.3711  -47.5531 H         1 UNK         0.0600 
    144 H144        0.1864  -20.4813  -45.8477 H         1 UNK         0.3000 
    145 H145       -1.2405  -22.7724  -43.4743 H         1 UNK         0.0600 
    146 H146        0.1063  -21.3659  -41.9171 H         1 UNK         0.0600 
    147 H147        1.0833  -22.5838  -42.7235 H         1 UNK         0.0600 
    148 H148        1.1756  -20.9104  -43.2408 H         1 UNK         0.0600 
    149 H149       -1.1736  -19.9124  -43.6079 H         1 UNK         0.3000 
    150 H150       -4.1856  -19.5579  -45.5263 H         1 UNK         0.0600 
    151 H151       -4.9586  -19.9325  -43.1838 H         1 UNK         0.0600 
    152 H152       -4.8411  -18.2173  -43.5489 H         1 UNK         0.0600 
    153 H153       -3.6009  -18.9974  -42.5701 H         1 UNK         0.0600 
    154 H154       -2.4871  -17.6129  -44.3420 H         1 UNK         0.3000 
    155 H155       -0.0970  -17.4063  -47.0134 H         1 UNK         0.0600 
    156 H156       -1.9721  -15.9116  -47.6660 H         1 UNK         0.0600 
    157 H157       -0.7616  -15.0121  -46.7653 H         1 UNK         0.0600 
    158 H158       -2.2625  -15.4977  -45.9841 H         1 UNK         0.0600 
    159 H159       -0.1764  -15.9769  -44.6052 H         1 UNK         0.3000 
    160 H160        1.5228  -18.3708  -42.5186 H         1 UNK         0.0600 
    161 H161        2.9490  -16.4221  -42.1642 H         1 UNK         0.0600 
    162 H162        2.2185  -15.5683  -43.5177 H         1 UNK         0.0600 
    163 H163        3.1997  -16.9974  -43.8070 H         1 UNK         0.0600 
    164 H164        0.2865  -15.7841  -42.0900 H         1 UNK         0.3000 
    165 H165       -2.8062  -17.0380  -40.8800 H         1 UNK         0.0600 
    166 H166       -2.1427  -15.7867  -38.8440 H         1 UNK         0.0600 
    167 H167       -1.2806  -17.3149  -38.9221 H         1 UNK         0.0600 
    168 H168       -0.4499  -15.8207  -39.3388 H         1 UNK         0.0600 
    169 H169       -1.6340  -14.4158  -40.9978 H         1 UNK         0.3000 
    170 H170       -2.7856  -13.6048  -44.2783 H         1 UNK         0.0600 
    171 H171       -4.7360  -13.2585  -42.7511 H         1 UNK         0.0600 
    172 H172       -3.6607  -12.6383  -41.5040 H         1 UNK         0.0600 
    173 H173       -3.8558  -11.7636  -43.0233 H         1 UNK         0.0600 
    174 H174       -1.4100  -11.9999  -42.4165 H         1 UNK         0.3000 
    175 H175        0.7916  -11.3262  -43.2781 H         1 UNK         0.0600 
    176 H176        2.3312  -11.9921  -41.3997 H         1 UNK         0.0600 
    177 H177        0.6756  -12.3788  -40.9747 H         1 UNK         0.0600 
    178 H178        1.7647  -13.6565  -41.5036 H         1 UNK         0.0600 
    179 H179        1.9768  -13.5970  -44.5693 H         1 UNK         0.3000 
    180 H180        5.0177  -11.8757  -45.4347 H         1 UNK         0.0600 
    181 H181        4.4231  -14.6643  -44.3266 H         1 UNK         0.0600 
    182 H182        5.5230  -13.4905  -43.6215 H         1 UNK         0.0600 
    183 H183        5.8701  -14.1745  -45.2028 H         1 UNK         0.0600 
    184 H184        4.1866  -12.5564  -47.3116 H         1 UNK         0.3000 
    185 H185        2.2992  -15.2596  -48.4883 H         1 UNK         0.0600 
    186 H186        1.0851  -13.4880  -49.7805 H         1 UNK         0.0600 
    187 H187        0.4730  -13.5982  -48.1378 H         1 UNK         0.0600 
    188 H188        1.5504  -12.2831  -48.5830 H         1 UNK         0.0600 
    189 H189        3.5685  -13.0661  -49.8072 H         1 UNK         0.3000 
    190 H190       -1.9614  -21.1026  -47.5765 H         1 UNK         0.3000 
    191 H191       -2.8633  -22.6666  -49.7719 H         1 UNK         0.0600 
    192 H192       -4.4359  -21.3897  -47.4751 H         1 UNK         0.0600 
    193 H193       -5.1291  -22.0000  -48.9768 H         1 UNK         0.0600 
    194 H194       -4.0213  -20.6388  -49.0167 H         1 UNK         0.0600 
    195 H195       -2.8867  -23.3230  -46.2452 H         1 UNK         0.3000 
    196 H196       -4.2564  -25.8070  -46.3450 H         1 UNK         0.0600 
    197 H197       -2.1608  -24.8375  -44.3319 H         1 UNK         0.0600 
    198 H198       -3.2908  -26.1613  -44.0892 H         1 UNK         0.0600 
    199 H199       -3.8918  -24.5174  -44.2479 H         1 UNK         0.0600 
    200 H200       -0.7293  -25.0756  -46.4877 H         1 UNK         0.3000 
    201 H201        0.1797  -27.7473  -46.8019 H         1 UNK         0.0600 
    202 H202        1.4421  -25.1048  -47.7075 H         1 UNK         0.0600 
    203 H203        2.2819  -26.6465  -47.5877 H         1 UNK         0.0600 
    204 H204        1.6589  -25.8739  -46.1373 H         1 UNK         0.0600 
    205 H205       -0.9793  -25.3744  -49.1711 H         1 UNK         0.3000 
    206 H206       -0.4347  -27.0044  -51.5070 H         1 UNK         0.0600 
    207 H207       -0.4857  -24.4785  -51.5006 H         1 UNK         0.0600 
    208 H208       -1.5465  -25.1860  -52.6996 H         1 UNK         0.0600 
    209 H209       -2.2240  -24.5387  -51.2095 H         1 UNK         0.0600 
    210 H210       -2.5724  -27.6235  -49.0972 H         1 UNK         0.3000 
    211 H211       -4.3238  -28.9112  -48.7996 H         1 UNK         0.0600 
    212 H212       -3.9260  -29.9165  -51.6654 H         1 UNK         0.0600 
    213 H213       -4.8147  -30.7270  -50.3845 H         1 UNK         0.0600 
    214 H214       -3.0766  -30.5217  -50.2438 H         1 UNK         0.0600 
    215 H215       -4.8991  -26.3231  -49.2880 H         1 UNK         0.3000 
    216 H216       -6.6297  -25.0080  -49.2951 H         1 UNK         0.0600 
    217 H217       -8.0796  -26.9305  -48.5792 H         1 UNK         0.0600 
    218 H218       -8.9449  -25.7297  -49.5223 H         1 UNK         0.0600 
    219 H219       -8.4728  -27.2446  -50.2705 H         1 UNK         0.0600 
    220 H220       -5.0216  -25.8545  -51.8212 H         1 UNK         0.3000 
    221 H221       -6.4567  -24.2971  -53.8803 H         1 UNK         0.0600 
    222 H222       -3.5682  -25.3241  -53.7911 H         1 UNK         0.0600 
    223 H223       -4.9125  -26.1828  -54.5354 H         1 UNK         0.0600 
    224 H224       -4.3860  -24.6393  -55.1866 H         1 UNK         0.0600 
    225 H225       -5.1591  -22.3830  -54.7620 H         1 UNK         0.3000 
    226 H226       -4.5004  -20.2719  -54.5830 H         1 UNK         0.0600 
    227 H227       -2.3215  -21.2052  -53.7730 H         1 UNK         0.0600 
    228 H228       -2.6677  -19.6262  -53.0853 H         1 UNK         0.0600 
    229 H229       -2.8757  -21.0660  -52.1057 H         1 UNK         0.0600 
    230 H230       -6.9351  -20.3899  -54.0324 H         1 UNK         0.3000 
    231 H231       -7.9321  -19.8109  -51.4750 H         1 UNK         0.0600 
    232 H232       -9.3175  -20.6495  -53.3497 H         1 UNK         0.0600 
    233 H233       -9.0874  -19.1403  -54.2349 H         1 UNK         0.0600 
    234 H234       -9.9965  -19.1544  -52.7285 H         1 UNK         0.0600 
    235 H235       -6.3689  -17.6453  -53.7196 H         1 UNK         0.3000 
    236 H236       -7.2772  -15.1464  -52.5852 H         1 UNK         0.0600 
    237 H237       -5.3778  -14.2100  -53.9058 H         1 UNK         0.0600 
    238 H238       -4.7914  -15.8331  -54.2472 H         1 UNK         0.0600 
    239 H239       -6.3470  -15.2984  -54.8863 H         1 UNK         0.0600 
    240 H240       -4.7934  -17.5048  -51.7354 H         1 UNK         0.3000 
    241 H241       -3.5291  -15.7415  -49.7276 H         1 UNK         0.0600 
    242 H242       -5.4910  -18.8039  -49.9100 H         1 UNK         0.3800 
    243 H243       -6.0303  -18.6947  -48.2449 H         1 UNK         0.3800 
    244 H244       -1.9756  -17.6530  -49.3446 H         1 UNK         0.0800 
    245 H245       -2.8499  -18.6236  -50.4881 H         1 UNK         0.0800 
    246 H246       -0.6122  -15.8003  -49.6891 H         1 UNK         0.0800 
    247 H247       -0.3668  -14.9187  -51.1681 H         1 UNK         0.0800 
@<TRIPOS>BOND
     1    1    2 1    
     2    1  127 1    
     3    1  128 1    
     4    1  129 1    
     5    2    3 2    
     6    2    4 am   BACKBONE|DICT|INTERRES
     7    4    5 1    
     8    4  130 1    
     9    5    6 1    
    10    5   65 1    
    11    5  131 1    
    12    6    7 1    
    13    6  132 1    
    14    6  133 1    
    15    7    8 1    
    16    8    9 1    
    17    8  134 1    
    18    8  135 1    
    19    9   10 ar   
    20    9   14 ar   
    21   10   11 ar   
    22   10  136 1    
    23   11   12 ar   
    24   11  126 1    
    25   12   13 ar   
    26   12  137 1    
    27   13   14 ar   
    28   13   15 1    
    29   14  138 1    
    30   15   16 1    
    31   15  139 1    
    32   15  140 1    
    33   16   17 1    
    34   17   18 1    
    35   17  141 1    
    36   17  142 1    
    37   18   19 1    
    38   18   67 1    
    39   18  143 1    
    40   19   20 am   BACKBONE|DICT|INTERRES
    41   19  144 1    
    42   20   21 2    
    43   20   22 1    
    44   22   23 1    
    45   22   24 1    
    46   22  145 1    
    47   23  146 1    
    48   23  147 1    
    49   23  148 1    
    50   24   25 am   BACKBONE|DICT|INTERRES
    51   24  149 1    
    52   25   26 2    
    53   25   27 1    
    54   27   28 1    
    55   27   29 1    
    56   27  150 1    
    57   28  151 1    
    58   28  152 1    
    59   28  153 1    
    60   29   30 am   BACKBONE|DICT|INTERRES
    61   29  154 1    
    62   30   31 2    
    63   30   32 1    
    64   32   33 1    
    65   32   34 1    
    66   32  155 1    
    67   33  156 1    
    68   33  157 1    
    69   33  158 1    
    70   34   35 am   BACKBONE|DICT|INTERRES
    71   34  159 1    
    72   35   36 2    
    73   35   37 1    
    74   37   38 1    
    75   37   39 1    
    76   37  160 1    
    77   38  161 1    
    78   38  162 1    
    79   38  163 1    
    80   39   40 am   BACKBONE|DICT|INTERRES
    81   39  164 1    
    82   40   41 2    
    83   40   42 1    
    84   42   43 1    
    85   42   44 1    
    86   42  165 1    
    87   43  166 1    
    88   43  167 1    
    89   43  168 1    
    90   44   45 am   BACKBONE|DICT|INTERRES
    91   44  169 1    
    92   45   46 2    
    93   45   47 1    
    94   47   48 1    
    95   47   49 1    
    96   47  170 1    
    97   48  171 1    
    98   48  172 1    
    99   48  173 1    
   100   49   50 am   BACKBONE|DICT|INTERRES
   101   49  174 1    
   102   50   51 2    
   103   50   52 1    
   104   52   53 1    
   105   52   54 1    
   106   52  175 1    
   107   53  176 1    
   108   53  177 1    
   109   53  178 1    
   110   54   55 am   BACKBONE|DICT|INTERRES
   111   54  179 1    
   112   55   56 2    
   113   55   57 1    
   114   57   58 1    
   115   57   59 1    
   116   57  180 1    
   117   58  181 1    
   118   58  182 1    
   119   58  183 1    
   120   59   60 am   BACKBONE|DICT|INTERRES
   121   59  184 1    
   122   60   61 2    
   123   60   62 1    
   124   62   63 1    
   125   62   64 1    
   126   62  185 1    
   127   63  186 1    
   128   63  187 1    
   129   63  188 1    
   130   64   65 am   BACKBONE|DICT|INTERRES
   131   64  189 1    
   132   65   66 2    
   133   67   68 2    
   134   67   69 am   BACKBONE|DICT|INTERRES
   135   69   70 1    
   136   69  190 1    
   137   70   71 1    
   138   70   72 1    
   139   70  191 1    
   140   71  192 1    
   141   71  193 1    
   142   71  194 1    
   143   72   73 2    
   144   72   74 am   BACKBONE|DICT|INTERRES
   145   74   75 1    
   146   74  195 1    
   147   75   76 1    
   148   75   77 1    
   149   75  196 1    
   150   76  197 1    
   151   76  198 1    
   152   76  199 1    
   153   77   78 2    
   154   77   79 am   BACKBONE|DICT|INTERRES
   155   79   80 1    
   156   79  200 1    
   157   80   81 1    
   158   80   82 1    
   159   80  201 1    
   160   81  202 1    
   161   81  203 1    
   162   81  204 1    
   163   82   83 2    
   164   82   84 am   BACKBONE|DICT|INTERRES
   165   84   85 1    
   166   84  205 1    
   167   85   86 1    
   168   85   87 1    
   169   85  206 1    
   170   86  207 1    
   171   86  208 1    
   172   86  209 1    
   173   87   88 2    
   174   87   89 am   BACKBONE|DICT|INTERRES
   175   89   90 1    
   176   89  210 1    
   177   90   91 1    
   178   90   92 1    
   179   90  211 1    
   180   91  212 1    
   181   91  213 1    
   182   91  214 1    
   183   92   93 2    
   184   92   94 am   BACKBONE|DICT|INTERRES
   185   94   95 1    
   186   94  215 1    
   187   95   96 1    
   188   95   97 1    
   189   95  216 1    
   190   96  217 1    
   191   96  218 1    
   192   96  219 1    
   193   97   98 2    
   194   97   99 am   BACKBONE|DICT|INTERRES
   195   99  100 1    
   196   99  220 1    
   197  100  101 1    
   198  100  102 1    
   199  100  221 1    
   200  101  222 1    
   201  101  223 1    
   202  101  224 1    
   203  102  103 2    
   204  102  104 am   BACKBONE|DICT|INTERRES
   205  104  105 1    
   206  104  225 1    
   207  105  106 1    
   208  105  107 1    
   209  105  226 1    
   210  106  227 1    
   211  106  228 1    
   212  106  229 1    
   213  107  108 2    
   214  107  109 am   BACKBONE|DICT|INTERRES
   215  109  110 1    
   216  109  230 1    
   217  110  111 1    
   218  110  112 1    
   219  110  231 1    
   220  111  232 1    
   221  111  233 1    
   222  111  234 1    
   223  112  113 2    
   224  112  114 am   BACKBONE|DICT|INTERRES
   225  114  115 1    
   226  114  235 1    
   227  115  116 1    
   228  115  117 1    
   229  115  236 1    
   230  116  237 1    
   231  116  238 1    
   232  116  239 1    
   233  117  118 2    
   234  117  119 am   BACKBONE|DICT|INTERRES
   235  119  120 1    
   236  119  240 1    
   237  120  121 1    
   238  120  124 1    
   239  120  241 1    
   240  121  122 am   BACKBONE|DICT|INTERRES
   241  121  123 2    
   242  122  242 1    
   243  122  243 1    
   244  124  125 1    
   245  124  244 1    
   246  124  245 1    
   247  125  126 1    
   248  126  246 1    
   249  126  247 1    
@<TRIPOS>SUBSTRUCTURE
     1 UNK         1 GROUP             0       ****    0 ROOT    
