@<TRIPOS>MOLECULE
3R540
247   249    1
SMALL
USER_CHARGES


@<TRIPOS>ATOM
      1 CA          3.9310  -11.4424  -49.2928 C.3       0 UNK        -0.1800 
      2 C           2.7028  -12.1781  -48.7798 C.2       0 UNK         0.5000 
      3 O           2.1074  -11.7604  -47.7873 O.2       0 UNK        -0.5000 
      4 N           2.2979  -13.2553  -49.4641 N.am      1 UNK        -0.5000 
      5 CA          1.1985  -14.1604  -49.0863 C.3       1 UNK         0.1400 
      6 C6          1.2496  -15.4920  -49.8757 C.3       23 UNK        -0.0398 
      7 S7          2.8345  -16.3693  -49.6471 S.3       23 UNK        -0.2404 
      8 C8          2.9840  -17.2643  -51.2243 C.3       23 UNK        -0.0205 
      9 C9          2.1014  -18.5022  -51.2472 C.ar      23 UNK        -0.0193 
     10 C10         0.7790  -18.4215  -51.6934 C.ar      23 UNK        -0.1150 
     11 C11        -0.0349  -19.5575  -51.7058 C.ar      23 UNK        -0.0193 
     12 C12         0.4844  -20.7787  -51.2703 C.ar      23 UNK        -0.1150 
     13 C13         1.8129  -20.8811  -50.8482 C.ar      23 UNK        -0.0193 
     14 C14         2.6153  -19.7360  -50.8367 C.ar      23 UNK        -0.1150 
     15 C15         2.3822  -22.2391  -50.4511 C.3       23 UNK        -0.0205 
     16 S16         3.1716  -22.2520  -48.8127 S.3       23 UNK        -0.2404 
     17 C17         1.7727  -21.8243  -47.7294 C.3       23 UNK        -0.0398 
     18 CA          1.2226  -23.0359  -46.9346 C.3       11 UNK         0.1400 
     19 N           0.8024  -22.6339  -45.5893 N.am      11 UNK        -0.5000 
     20 C           0.4429  -23.4642  -44.6023 C.2       10 UNK         0.5000 
     21 O           0.4712  -24.6898  -44.6973 O.2       10 UNK        -0.5000 
     22 CA         -0.0889  -22.8125  -43.3111 C.3       10 UNK         0.1400 
     23 CB          1.0624  -22.4057  -42.3798 C.3       10 UNK        -0.1800 
     24 N          -0.9429  -21.6540  -43.5843 N.am      10 UNK        -0.5000 
     25 C          -2.1266  -21.7323  -44.2100 C.2       9 UNK         0.5000 
     26 O          -2.6438  -22.7949  -44.5525 O.2       9 UNK        -0.5000 
     27 CA         -2.8302  -20.4092  -44.5581 C.3       9 UNK         0.1400 
     28 CB         -3.6241  -19.8865  -43.3525 C.3       9 UNK        -0.1800 
     29 N          -1.9037  -19.3790  -45.0298 N.am      9 UNK        -0.5000 
     30 C          -1.1743  -19.4692  -46.1511 C.2       8 UNK         0.5000 
     31 O          -1.2393  -20.4221  -46.9270 O.2       8 UNK        -0.5000 
     32 CA         -0.1600  -18.3416  -46.4228 C.3       8 UNK         0.1400 
     33 CB         -0.8434  -17.0961  -47.0038 C.3       8 UNK        -0.1800 
     34 N           0.5858  -17.9624  -45.2250 N.am      8 UNK        -0.5000 
     35 C           1.3982  -18.7770  -44.5390 C.2       7 UNK         0.5000 
     36 O           1.6168  -19.9466  -44.8487 O.2       7 UNK        -0.5000 
     37 CA          2.0345  -18.2007  -43.2652 C.3       7 UNK         0.1400 
     38 CB          3.2420  -17.3149  -43.6069 C.3       7 UNK        -0.1800 
     39 N           1.0655  -17.4375  -42.4811 N.am      7 UNK        -0.5000 
     40 C           0.0426  -17.9844  -41.8094 C.2       6 UNK         0.5000 
     41 O          -0.1693  -19.1963  -41.7490 O.2       6 UNK        -0.5000 
     42 CA         -0.9275  -17.0035  -41.1254 C.3       6 UNK         0.1400 
     43 CB         -0.3622  -16.5266  -39.7791 C.3       6 UNK        -0.1800 
     44 N          -1.2375  -15.8428  -41.9636 N.am      6 UNK        -0.5000 
     45 C          -1.9153  -15.9144  -43.1173 C.2       5 UNK         0.5000 
     46 O          -2.3573  -16.9615  -43.5846 O.2       5 UNK        -0.5000 
     47 CA         -2.0992  -14.6099  -43.9081 C.3       5 UNK         0.1400 
     48 CB         -3.3429  -13.8487  -43.4281 C.3       5 UNK        -0.1800 
     49 N          -0.9428  -13.7149  -43.8839 N.am      5 UNK        -0.5000 
     50 C           0.2898  -14.0180  -44.3089 C.2       4 UNK         0.5000 
     51 O           0.6269  -15.1465  -44.6694 O.2       4 UNK        -0.5000 
     52 CA          1.2932  -12.8493  -44.3635 C.3       4 UNK         0.1400 
     53 CB          2.7004  -13.2996  -44.7953 C.3       4 UNK        -0.1800 
     54 N           0.8372  -11.8010  -45.2772 N.am      4 UNK        -0.5000 
     55 C          -0.0958  -10.8769  -45.0097 C.2       3 UNK         0.5000 
     56 O          -0.6937  -10.8090  -43.9346 O.2       3 UNK        -0.5000 
     57 CA         -0.4371   -9.8837  -46.1306 C.3       3 UNK         0.1400 
     58 CB          0.6242   -8.7746  -46.2051 C.3       3 UNK        -0.1800 
     59 N          -0.5173  -10.5561  -47.4276 N.am      3 UNK        -0.5000 
     60 C          -1.6432  -10.7406  -48.1317 C.2       2 UNK         0.5000 
     61 O          -2.7546  -10.3711  -47.7520 O.2       2 UNK        -0.5000 
     62 CA         -1.5195  -11.4450  -49.4980 C.3       2 UNK         0.1400 
     63 CB         -1.5142  -10.4151  -50.6376 C.3       2 UNK        -0.1800 
     64 N          -0.3091  -12.2610  -49.5947 N.am      2 UNK        -0.5000 
     65 C          -0.2111  -13.5269  -49.1704 C.2       1 UNK         0.5000 
     66 O          -1.1903  -14.1985  -48.8504 O.2       1 UNK        -0.5000 
     67 C           0.0932  -23.7632  -47.7012 C.2       11 UNK         0.5000 
     68 O           0.3426  -24.7798  -48.3532 O.2       11 UNK        -0.5000 
     69 N          -1.1400  -23.2536  -47.5717 N.am      12 UNK        -0.5000 
     70 CA         -2.3543  -23.8668  -48.1084 C.3       12 UNK         0.1400 
     71 CB         -3.5292  -22.8897  -47.9727 C.3       12 UNK        -0.1800 
     72 C          -2.6821  -25.2077  -47.4293 C.2       12 UNK         0.5000 
     73 O          -2.9708  -26.1875  -48.1151 O.2       12 UNK        -0.5000 
     74 N          -2.5960  -25.2396  -46.0918 N.am      13 UNK        -0.5000 
     75 CA         -2.8102  -26.4353  -45.2744 C.3       13 UNK         0.1400 
     76 CB         -2.8046  -26.0478  -43.7882 C.3       13 UNK        -0.1800 
     77 C          -1.7862  -27.5533  -45.5484 C.2       13 UNK         0.5000 
     78 O          -2.1364  -28.7293  -45.4408 O.2       13 UNK        -0.5000 
     79 N          -0.5522  -27.1713  -45.9080 N.am      14 UNK        -0.5000 
     80 CA          0.5274  -28.0841  -46.2736 C.3       14 UNK         0.1400 
     81 CB          1.8557  -27.3174  -46.3679 C.3       14 UNK        -0.1800 
     82 C           0.2475  -28.8637  -47.5714 C.2       14 UNK         0.5000 
     83 O           0.4857  -30.0724  -47.5909 O.2       14 UNK        -0.5000 
     84 N          -0.2634  -28.1845  -48.6120 N.am      15 UNK        -0.5000 
     85 CA         -0.6075  -28.7990  -49.9006 C.3       15 UNK         0.1400 
     86 CB          0.6488  -29.3606  -50.6064 C.3       15 UNK        -0.1800 
     87 C          -1.3255  -27.8513  -50.8760 C.2       15 UNK         0.5000 
     88 O          -2.1626  -28.3218  -51.6483 O.2       15 UNK        -0.5000 
     89 N          -0.9272  -26.5720  -50.9049 N.am      16 UNK        -0.5000 
     90 CA         -1.2503  -25.6451  -51.9943 C.3       16 UNK         0.1400 
     91 CB         -0.3818  -24.3915  -51.8432 C.3       16 UNK        -0.1800 
     92 C          -2.7373  -25.2545  -52.1137 C.2       16 UNK         0.5000 
     93 O          -3.4567  -25.2002  -51.1156 O.2       16 UNK        -0.5000 
     94 N          -3.1503  -24.9346  -53.3462 N.am      17 UNK        -0.5000 
     95 CA         -4.4436  -24.3270  -53.6596 C.3       17 UNK         0.1400 
     96 CB         -4.7603  -24.5788  -55.1424 C.3       17 UNK        -0.1800 
     97 C          -4.4265  -22.8155  -53.3604 C.2       17 UNK         0.5000 
     98 O          -3.3574  -22.2023  -53.3608 O.2       17 UNK        -0.5000 
     99 N          -5.6134  -22.2440  -53.1282 N.am      18 UNK        -0.5000 
    100 CA        -5.8217  -20.8255  -52.8312 C.3       18 UNK         0.1400 
    101 CB        -7.2815  -20.6375  -52.3868 C.3       18 UNK        -0.1800 
    102 C         -5.5093  -19.8953  -54.0201 C.2       18 UNK         0.5000 
    103 O         -5.6659  -20.3000  -55.1751 O.2       18 UNK        -0.5000 
    104 N         -5.1341  -18.6484  -53.7082 N.am      19 UNK        -0.5000 
    105 CA        -4.9038  -17.5720  -54.6725 C.3       19 UNK         0.1400 
    106 CB        -3.5745  -17.7715  -55.4269 C.3       19 UNK        -0.1800 
    107 C         -4.9420  -16.2090  -53.9650 C.2       19 UNK         0.5000 
    108 O         -5.7311  -15.3444  -54.3479 O.2       19 UNK        -0.5000 
    109 N         -4.0954  -16.0549  -52.9392 N.am      20 UNK        -0.5000 
    110 CA        -3.9906  -14.8733  -52.0824 C.3       20 UNK         0.1400 
    111 CB        -2.4987  -14.5242  -51.9226 C.3       20 UNK        -0.1800 
    112 C         -4.7173  -15.1484  -50.7486 C.2       20 UNK         0.5000 
    113 O         -5.7950  -15.7486  -50.7686 O.2       20 UNK        -0.5000 
    114 N         -4.1247  -14.7726  -49.6017 N.am      21 UNK        -0.5000 
    115 CA        -4.6687  -15.0696  -48.2652 C.3       21 UNK         0.1400 
    116 CB        -3.9550  -14.2176  -47.2069 C.3       21 UNK        -0.1800 
    117 C         -4.6103  -16.5721  -47.9075 C.2       21 UNK         0.5000 
    118 O         -5.2957  -17.0105  -46.9841 O.2       21 UNK        -0.5000 
    119 N         -3.8367  -17.3319  -48.6917 N.am      22 UNK        -0.5000 
    120 CA        -3.8913  -18.7922  -48.8361 C.3       22 UNK         0.1400 
    121 C         -5.2607  -19.3405  -49.3416 C.2       22 UNK         0.5000 
    122 N         -6.1300  -18.5369  -49.9466 N.am      22 UNK        -0.7600 
    123 O         -5.5454  -20.5212  -49.1745 O.2       22 UNK        -0.5000 
    124 C124       -2.7208  -19.3047  -49.7241 C.3       23 UNK        -0.0398 
    125 S125       -2.5234  -18.3737  -51.2826 S.3       23 UNK        -0.2404 
    126 C126       -1.4557  -19.4847  -52.2439 C.3       23 UNK        -0.0205 
    127 H127        3.6756  -10.4111  -49.5359 H         1 UNK         0.0600 
    128 H128        4.3418  -11.9129  -50.1863 H         1 UNK         0.0600 
    129 H129        4.7057  -11.4312  -48.5263 H         1 UNK         0.0600 
    130 H130        2.8268  -13.5433  -50.2751 H         1 UNK         0.3000 
    131 H131        1.3406  -14.4041  -48.0310 H         1 UNK         0.0600 
    132 H132        0.4532  -16.1683  -49.5605 H         1 UNK         0.0800 
    133 H133        1.0860  -15.3015  -50.9375 H         1 UNK         0.0800 
    134 H134        4.0269  -17.5535  -51.3626 H         1 UNK         0.0800 
    135 H135        2.7424  -16.6048  -52.0591 H         1 UNK         0.0800 
    136 H136        0.3803  -17.4765  -52.0341 H         1 UNK         0.1150 
    137 H137       -0.1436  -21.6558  -51.2884 H         1 UNK         0.1150 
    138 H138        3.6429  -19.8068  -50.5087 H         1 UNK         0.1150 
    139 H139        1.6058  -23.0018  -50.4524 H         1 UNK         0.0800 
    140 H140        3.1156  -22.5436  -51.1987 H         1 UNK         0.0800 
    141 H141        0.9866  -21.3070  -48.2819 H         1 UNK         0.0800 
    142 H142        2.1730  -21.0761  -47.0468 H         1 UNK         0.0800 
    143 H143        2.0300  -23.7576  -46.7926 H         1 UNK         0.0600 
    144 H144        0.8043  -21.6366  -45.3964 H         1 UNK         0.3000 
    145 H145       -0.6935  -23.5567  -42.7892 H         1 UNK         0.0600 
    146 H146        0.6845  -21.9968  -41.4426 H         1 UNK         0.0600 
    147 H147        1.6848  -23.2665  -42.1323 H         1 UNK         0.0600 
    148 H148        1.7082  -21.6549  -42.8342 H         1 UNK         0.0600 
    149 H149       -0.5905  -20.7465  -43.3044 H         1 UNK         0.3000 
    150 H150       -3.5365  -20.6136  -45.3654 H         1 UNK         0.0600 
    151 H151       -4.3156  -20.6435  -42.9802 H         1 UNK         0.0600 
    152 H152       -4.2157  -19.0114  -43.6220 H         1 UNK         0.0600 
    153 H153       -2.9664  -19.6060  -42.5288 H         1 UNK         0.0600 
    154 H154       -1.8401  -18.5370  -44.4626 H         1 UNK         0.3000 
    155 H155        0.5622  -18.7059  -47.1568 H         1 UNK         0.0600 
    156 H156       -1.6863  -16.7724  -46.3933 H         1 UNK         0.0600 
    157 H157       -0.1481  -16.2607  -47.0795 H         1 UNK         0.0600 
    158 H158       -1.2142  -17.2888  -48.0084 H         1 UNK         0.0600 
    159 H159        0.4950  -16.9964  -44.9190 H         1 UNK         0.3000 
    160 H160        2.3871  -19.0361  -42.6565 H         1 UNK         0.0600 
    161 H161        2.9607  -16.4725  -44.2389 H         1 UNK         0.0600 
    162 H162        4.0009  -17.8853  -44.1437 H         1 UNK         0.0600 
    163 H163        3.7097  -16.9185  -42.7056 H         1 UNK         0.0600 
    164 H164        1.1283  -16.4316  -42.5355 H         1 UNK         0.3000 
    165 H165       -1.8591  -17.5400  -40.9323 H         1 UNK         0.0600 
    166 H166       -1.0789  -15.8969  -39.2518 H         1 UNK         0.0600 
    167 H167       -0.1357  -17.3734  -39.1298 H         1 UNK         0.0600 
    168 H168        0.5579  -15.9549  -39.9062 H         1 UNK         0.0600 
    169 H169       -0.9015  -14.9431  -41.6532 H         1 UNK         0.3000 
    170 H170       -2.2562  -14.8954  -44.9473 H         1 UNK         0.0600 
    171 H171       -4.2284  -14.4848  -43.4632 H         1 UNK         0.0600 
    172 H172       -3.2288  -13.4981  -42.4017 H         1 UNK         0.0600 
    173 H173       -3.5416  -12.9818  -44.0589 H         1 UNK         0.0600 
    174 H174       -1.1204  -12.7461  -43.6388 H         1 UNK         0.3000 
    175 H175        1.3700  -12.4338  -43.3567 H         1 UNK         0.0600 
    176 H176        2.6921  -13.7575  -45.7854 H         1 UNK         0.0600 
    177 H177        3.3921  -12.4576  -44.8239 H         1 UNK         0.0600 
    178 H178        3.1083  -14.0300  -44.0963 H         1 UNK         0.0600 
    179 H179        1.2855  -11.7907  -46.1909 H         1 UNK         0.3000 
    180 H180       -1.3918   -9.4178  -45.8781 H         1 UNK         0.0600 
    181 H181        1.6078   -9.1717  -46.4598 H         1 UNK         0.0600 
    182 H182        0.7153   -8.2554  -45.2501 H         1 UNK         0.0600 
    183 H183        0.3605   -8.0298  -46.9561 H         1 UNK         0.0600 
    184 H184        0.3539  -10.9353  -47.7832 H         1 UNK         0.3000 
    185 H185       -2.4026  -12.0753  -49.6157 H         1 UNK         0.0600 
    186 H186       -2.4144   -9.7995  -50.6124 H         1 UNK         0.0600 
    187 H187       -0.6559   -9.7453  -50.5716 H         1 UNK         0.0600 
    188 H188       -1.4841  -10.9055  -51.6107 H         1 UNK         0.0600 
    189 H189        0.5389  -11.7886  -49.8718 H         1 UNK         0.3000 
    190 H190       -1.2527  -22.3768  -47.0714 H         1 UNK         0.3000 
    191 H191       -2.1869  -24.0528  -49.1688 H         1 UNK         0.0600 
    192 H192       -3.2844  -21.9209  -48.4006 H         1 UNK         0.0600 
    193 H193       -3.8114  -22.7270  -46.9331 H         1 UNK         0.0600 
    194 H194       -4.4086  -23.2657  -48.4969 H         1 UNK         0.0600 
    195 H195       -2.4045  -24.3753  -45.5916 H         1 UNK         0.3000 
    196 H196       -3.7989  -26.8287  -45.5187 H         1 UNK         0.0600 
    197 H197       -3.0040  -26.9150  -43.1575 H         1 UNK         0.0600 
    198 H198       -3.5716  -25.3042  -43.5707 H         1 UNK         0.0600 
    199 H199       -1.8423  -25.6358  -43.4846 H         1 UNK         0.0600 
    200 H200       -0.3262  -26.1832  -45.8825 H         1 UNK         0.3000 
    201 H201        0.6247  -28.8135  -45.4667 H         1 UNK         0.0600 
    202 H202        2.0961  -26.8266  -45.4247 H         1 UNK         0.0600 
    203 H203        1.8315  -26.5551  -47.1456 H         1 UNK         0.0600 
    204 H204        2.6791  -27.9939  -46.6001 H         1 UNK         0.0600 
    205 H205       -0.5006  -27.2083  -48.4896 H         1 UNK         0.3000 
    206 H206       -1.2931  -29.6252  -49.7010 H         1 UNK         0.0600 
    207 H207        1.0753  -30.2107  -50.0757 H         1 UNK         0.0600 
    208 H208        0.4128  -29.7127  -51.6118 H         1 UNK         0.0600 
    209 H209        1.4257  -28.6011  -50.7011 H         1 UNK         0.0600 
    210 H210       -0.2527  -26.2442  -50.2279 H         1 UNK         0.3000 
    211 H211       -0.9634  -26.1366  -52.9267 H         1 UNK         0.0600 
    212 H212       -0.5722  -23.8946  -50.8927 H         1 UNK         0.0600 
    213 H213       -0.5813  -23.6722  -52.6389 H         1 UNK         0.0600 
    214 H214        0.6778  -24.6422  -51.8914 H         1 UNK         0.0600 
    215 H215       -2.4821  -24.9558  -54.1024 H         1 UNK         0.3000 
    216 H216       -5.2175  -24.7992  -53.0504 H         1 UNK         0.0600 
    217 H217       -5.7334  -24.1659  -55.4111 H         1 UNK         0.0600 
    218 H218       -4.7888  -25.6458  -55.3644 H         1 UNK         0.0600 
    219 H219       -4.0182  -24.1187  -55.7964 H         1 UNK         0.0600 
    220 H220       -6.4463  -22.8107  -53.1872 H         1 UNK         0.3000 
    221 H221       -5.1591  -20.5571  -52.0068 H         1 UNK         0.0600 
    222 H222       -7.9806  -20.9888  -53.1467 H         1 UNK         0.0600 
    223 H223       -7.4845  -21.1819  -51.4642 H         1 UNK         0.0600 
    224 H224       -7.5086  -19.5872  -52.2021 H         1 UNK         0.0600 
    225 H225       -5.0891  -18.3801  -52.7346 H         1 UNK         0.3000 
    226 H226       -5.7183  -17.5833  -55.4002 H         1 UNK         0.0600 
    227 H227       -3.5769  -18.6955  -56.0048 H         1 UNK         0.0600 
    228 H228       -3.3994  -16.9544  -56.1278 H         1 UNK         0.0600 
    229 H229       -2.7240  -17.8065  -54.7467 H         1 UNK         0.0600 
    230 H230       -3.4965  -16.8296  -52.6858 H         1 UNK         0.3000 
    231 H231       -4.4886  -14.0220  -52.5503 H         1 UNK         0.0600 
    232 H232       -2.3710  -13.5708  -51.4132 H         1 UNK         0.0600 
    233 H233       -2.0154  -14.4253  -52.8948 H         1 UNK         0.0600 
    234 H234       -1.9551  -15.2861  -51.3625 H         1 UNK         0.0600 
    235 H235       -3.2020  -14.3530  -49.6208 H         1 UNK         0.3000 
    236 H236       -5.7220  -14.7814  -48.2643 H         1 UNK         0.0600 
    237 H237       -3.9667  -13.1596  -47.4693 H         1 UNK         0.0600 
    238 H238       -4.4440  -14.3187  -46.2376 H         1 UNK         0.0600 
    239 H239       -2.9185  -14.5233  -47.0811 H         1 UNK         0.0600 
    240 H240       -3.3047  -16.8596  -49.4070 H         1 UNK         0.3000 
    241 H241       -3.7571  -19.2125  -47.8380 H         1 UNK         0.0600 
    242 H242       -5.9380  -17.5515  -50.0978 H         1 UNK         0.3800 
    243 H243       -7.0253  -18.9106  -50.2130 H         1 UNK         0.3800 
    244 H244       -1.7798  -19.2266  -49.1820 H         1 UNK         0.0800 
    245 H245       -2.8341  -20.3637  -49.9580 H         1 UNK         0.0800 
    246 H246       -1.4208  -19.1414  -53.2777 H         1 UNK         0.0800 
    247 H247       -1.9090  -20.4740  -52.2666 H         1 UNK         0.0800 
@<TRIPOS>BOND
     1    1    2 1    
     2    1  127 1    
     3    1  128 1    
     4    1  129 1    
     5    2    3 2    
     6    2    4 am   BACKBONE|DICT|INTERRES
     7    4    5 1    
     8    4  130 1    
     9    5    6 1    
    10    5   65 1    
    11    5  131 1    
    12    6    7 1    
    13    6  132 1    
    14    6  133 1    
    15    7    8 1    
    16    8    9 1    
    17    8  134 1    
    18    8  135 1    
    19    9   10 ar   
    20    9   14 ar   
    21   10   11 ar   
    22   10  136 1    
    23   11   12 ar   
    24   11  126 1    
    25   12   13 ar   
    26   12  137 1    
    27   13   14 ar   
    28   13   15 1    
    29   14  138 1    
    30   15   16 1    
    31   15  139 1    
    32   15  140 1    
    33   16   17 1    
    34   17   18 1    
    35   17  141 1    
    36   17  142 1    
    37   18   19 1    
    38   18   67 1    
    39   18  143 1    
    40   19   20 am   BACKBONE|DICT|INTERRES
    41   19  144 1    
    42   20   21 2    
    43   20   22 1    
    44   22   23 1    
    45   22   24 1    
    46   22  145 1    
    47   23  146 1    
    48   23  147 1    
    49   23  148 1    
    50   24   25 am   BACKBONE|DICT|INTERRES
    51   24  149 1    
    52   25   26 2    
    53   25   27 1    
    54   27   28 1    
    55   27   29 1    
    56   27  150 1    
    57   28  151 1    
    58   28  152 1    
    59   28  153 1    
    60   29   30 am   BACKBONE|DICT|INTERRES
    61   29  154 1    
    62   30   31 2    
    63   30   32 1    
    64   32   33 1    
    65   32   34 1    
    66   32  155 1    
    67   33  156 1    
    68   33  157 1    
    69   33  158 1    
    70   34   35 am   BACKBONE|DICT|INTERRES
    71   34  159 1    
    72   35   36 2    
    73   35   37 1    
    74   37   38 1    
    75   37   39 1    
    76   37  160 1    
    77   38  161 1    
    78   38  162 1    
    79   38  163 1    
    80   39   40 am   BACKBONE|DICT|INTERRES
    81   39  164 1    
    82   40   41 2    
    83   40   42 1    
    84   42   43 1    
    85   42   44 1    
    86   42  165 1    
    87   43  166 1    
    88   43  167 1    
    89   43  168 1    
    90   44   45 am   BACKBONE|DICT|INTERRES
    91   44  169 1    
    92   45   46 2    
    93   45   47 1    
    94   47   48 1    
    95   47   49 1    
    96   47  170 1    
    97   48  171 1    
    98   48  172 1    
    99   48  173 1    
   100   49   50 am   BACKBONE|DICT|INTERRES
   101   49  174 1    
   102   50   51 2    
   103   50   52 1    
   104   52   53 1    
   105   52   54 1    
   106   52  175 1    
   107   53  176 1    
   108   53  177 1    
   109   53  178 1    
   110   54   55 am   BACKBONE|DICT|INTERRES
   111   54  179 1    
   112   55   56 2    
   113   55   57 1    
   114   57   58 1    
   115   57   59 1    
   116   57  180 1    
   117   58  181 1    
   118   58  182 1    
   119   58  183 1    
   120   59   60 am   BACKBONE|DICT|INTERRES
   121   59  184 1    
   122   60   61 2    
   123   60   62 1    
   124   62   63 1    
   125   62   64 1    
   126   62  185 1    
   127   63  186 1    
   128   63  187 1    
   129   63  188 1    
   130   64   65 am   BACKBONE|DICT|INTERRES
   131   64  189 1    
   132   65   66 2    
   133   67   68 2    
   134   67   69 am   BACKBONE|DICT|INTERRES
   135   69   70 1    
   136   69  190 1    
   137   70   71 1    
   138   70   72 1    
   139   70  191 1    
   140   71  192 1    
   141   71  193 1    
   142   71  194 1    
   143   72   73 2    
   144   72   74 am   BACKBONE|DICT|INTERRES
   145   74   75 1    
   146   74  195 1    
   147   75   76 1    
   148   75   77 1    
   149   75  196 1    
   150   76  197 1    
   151   76  198 1    
   152   76  199 1    
   153   77   78 2    
   154   77   79 am   BACKBONE|DICT|INTERRES
   155   79   80 1    
   156   79  200 1    
   157   80   81 1    
   158   80   82 1    
   159   80  201 1    
   160   81  202 1    
   161   81  203 1    
   162   81  204 1    
   163   82   83 2    
   164   82   84 am   BACKBONE|DICT|INTERRES
   165   84   85 1    
   166   84  205 1    
   167   85   86 1    
   168   85   87 1    
   169   85  206 1    
   170   86  207 1    
   171   86  208 1    
   172   86  209 1    
   173   87   88 2    
   174   87   89 am   BACKBONE|DICT|INTERRES
   175   89   90 1    
   176   89  210 1    
   177   90   91 1    
   178   90   92 1    
   179   90  211 1    
   180   91  212 1    
   181   91  213 1    
   182   91  214 1    
   183   92   93 2    
   184   92   94 am   BACKBONE|DICT|INTERRES
   185   94   95 1    
   186   94  215 1    
   187   95   96 1    
   188   95   97 1    
   189   95  216 1    
   190   96  217 1    
   191   96  218 1    
   192   96  219 1    
   193   97   98 2    
   194   97   99 am   BACKBONE|DICT|INTERRES
   195   99  100 1    
   196   99  220 1    
   197  100  101 1    
   198  100  102 1    
   199  100  221 1    
   200  101  222 1    
   201  101  223 1    
   202  101  224 1    
   203  102  103 2    
   204  102  104 am   BACKBONE|DICT|INTERRES
   205  104  105 1    
   206  104  225 1    
   207  105  106 1    
   208  105  107 1    
   209  105  226 1    
   210  106  227 1    
   211  106  228 1    
   212  106  229 1    
   213  107  108 2    
   214  107  109 am   BACKBONE|DICT|INTERRES
   215  109  110 1    
   216  109  230 1    
   217  110  111 1    
   218  110  112 1    
   219  110  231 1    
   220  111  232 1    
   221  111  233 1    
   222  111  234 1    
   223  112  113 2    
   224  112  114 am   BACKBONE|DICT|INTERRES
   225  114  115 1    
   226  114  235 1    
   227  115  116 1    
   228  115  117 1    
   229  115  236 1    
   230  116  237 1    
   231  116  238 1    
   232  116  239 1    
   233  117  118 2    
   234  117  119 am   BACKBONE|DICT|INTERRES
   235  119  120 1    
   236  119  240 1    
   237  120  121 1    
   238  120  124 1    
   239  120  241 1    
   240  121  122 am   BACKBONE|DICT|INTERRES
   241  121  123 2    
   242  122  242 1    
   243  122  243 1    
   244  124  125 1    
   245  124  244 1    
   246  124  245 1    
   247  125  126 1    
   248  126  246 1    
   249  126  247 1    
@<TRIPOS>SUBSTRUCTURE
     1 UNK         1 GROUP             0       ****    0 ROOT    
