@<TRIPOS>MOLECULE
3R540
247   249    1
SMALL
USER_CHARGES


@<TRIPOS>ATOM
      1 CA         -0.7414  -12.8837  -52.1371 C.3       0 UNK        -0.1800 
      2 C          -0.6069  -13.1826  -50.6505 C.2       0 UNK         0.5000 
      3 O           0.4938  -13.4708  -50.1811 O.2       0 UNK        -0.5000 
      4 N          -1.7231  -13.1253  -49.9151 N.am      1 UNK        -0.5000 
      5 CA         -1.7935  -13.3596  -48.4704 C.3       1 UNK         0.1400 
      6 C6         -3.2547  -13.4820  -47.9810 C.3       23 UNK        -0.0398 
      7 S7         -4.0739  -14.9606  -48.6507 S.3       23 UNK        -0.2404 
      8 C8         -5.6049  -14.9413  -47.6736 C.3       23 UNK        -0.0205 
      9 C9         -6.4493  -16.1614  -47.9889 C.ar      23 UNK        -0.0193 
     10 C10        -7.3189  -16.1492  -49.0823 C.ar      23 UNK        -0.1150 
     11 C11        -8.0562  -17.2892  -49.4118 C.ar      23 UNK        -0.0193 
     12 C12        -7.9503  -18.4319  -48.6133 C.ar      23 UNK        -0.1150 
     13 C13        -7.0898  -18.4516  -47.5113 C.ar      23 UNK        -0.0193 
     14 C14        -6.3392  -17.3133  -47.2059 C.ar      23 UNK        -0.1150 
     15 C15        -6.9532  -19.7085  -46.6672 C.3       23 UNK        -0.0205 
     16 S16        -6.0318  -20.9898  -47.5678 S.3       23 UNK        -0.2404 
     17 C17        -5.8487  -22.2796  -46.2909 C.3       23 UNK        -0.0398 
     18 CA         -4.4992  -23.0124  -46.4537 C.3       11 UNK         0.1400 
     19 N          -3.3524  -22.1124  -46.2822 N.am      11 UNK        -0.5000 
     20 C          -2.0717  -22.4206  -46.5233 C.2       10 UNK         0.5000 
     21 O          -1.7136  -23.5117  -46.9690 O.2       10 UNK        -0.5000 
     22 CA         -1.0109  -21.3546  -46.2004 C.3       10 UNK         0.1400 
     23 CB         -0.5509  -20.6722  -47.4946 C.3       10 UNK        -0.1800 
     24 N          -1.4328  -20.3309  -45.2383 N.am      10 UNK        -0.5000 
     25 C          -1.8275  -20.5545  -43.9744 C.2       9 UNK         0.5000 
     26 O          -1.9866  -21.6837  -43.5071 O.2       9 UNK        -0.5000 
     27 CA         -2.1002  -19.3275  -43.0816 C.3       9 UNK         0.1400 
     28 CB         -1.2041  -19.3551  -41.8317 C.3       9 UNK        -0.1800 
     29 N          -1.8771  -18.0622  -43.7849 N.am      9 UNK        -0.5000 
     30 C          -2.8381  -17.2902  -44.3121 C.2       8 UNK         0.5000 
     31 O          -4.0365  -17.5653  -44.2601 O.2       8 UNK        -0.5000 
     32 CA         -2.3940  -15.9911  -45.0193 C.3       8 UNK         0.1400 
     33 CB         -2.6039  -14.7788  -44.0990 C.3       8 UNK        -0.1800 
     34 N          -0.9974  -16.0146  -45.4608 N.am      8 UNK        -0.5000 
     35 C          -0.5352  -16.7786  -46.4613 C.2       7 UNK         0.5000 
     36 O          -1.2559  -17.4734  -47.1735 O.2       7 UNK        -0.5000 
     37 CA          0.9905  -16.8156  -46.6595 C.3       7 UNK         0.1400 
     38 CB          1.4352  -15.8033  -47.7247 C.3       7 UNK        -0.1800 
     39 N           1.7257  -16.5625  -45.4208 N.am      7 UNK        -0.5000 
     40 C           1.7638  -17.3772  -44.3572 C.2       6 UNK         0.5000 
     41 O           1.1497  -18.4428  -44.3083 O.2       6 UNK        -0.5000 
     42 CA          2.5668  -16.8992  -43.1274 C.3       6 UNK         0.1400 
     43 CB          3.3455  -18.0451  -42.4508 C.3       6 UNK        -0.1800 
     44 N           3.4331  -15.7451  -43.3998 N.am      6 UNK        -0.5000 
     45 C           4.5085  -15.6857  -44.2024 C.2       5 UNK         0.5000 
     46 O           4.9948  -16.6614  -44.7739 O.2       5 UNK        -0.5000 
     47 CA          5.1091  -14.2896  -44.4633 C.3       5 UNK         0.1400 
     48 CB          4.8447  -13.8692  -45.9185 C.3       5 UNK        -0.1800 
     49 N           4.5564  -13.2622  -43.5782 N.am      5 UNK        -0.5000 
     50 C           5.0069  -12.9951  -42.3454 C.2       4 UNK         0.5000 
     51 O           5.9808  -13.5491  -41.8348 O.2       4 UNK        -0.5000 
     52 CA          4.2153  -11.9472  -41.5405 C.3       4 UNK         0.1400 
     53 CB          4.7776  -10.5394  -41.7904 C.3       4 UNK        -0.1800 
     54 N           2.7791  -11.9507  -41.8377 N.am      4 UNK        -0.5000 
     55 C           1.9367  -12.9488  -41.5325 C.2       3 UNK         0.5000 
     56 O           2.2876  -14.0050  -41.0078 O.2       3 UNK        -0.5000 
     57 CA          0.4605  -12.7464  -41.9128 C.3       3 UNK         0.1400 
     58 CB         -0.2772  -11.9502  -40.8260 C.3       3 UNK        -0.1800 
     59 N           0.3056  -12.0706  -43.2022 N.am      3 UNK        -0.5000 
     60 C           0.5115  -12.6647  -44.3821 C.2       2 UNK         0.5000 
     61 O           0.8550  -13.8446  -44.5087 O.2       2 UNK        -0.5000 
     62 CA          0.2856  -11.8121  -45.6343 C.3       2 UNK         0.1400 
     63 CB          1.6185  -11.2829  -46.1903 C.3       2 UNK        -0.1800 
     64 N          -0.3789  -12.6614  -46.6120 N.am      2 UNK        -0.5000 
     65 C          -1.0705  -12.2520  -47.6781 C.2       1 UNK         0.5000 
     66 O          -1.1951  -11.0706  -48.0102 O.2       1 UNK        -0.5000 
     67 C          -4.4195  -24.2756  -45.5676 C.2       11 UNK         0.5000 
     68 O          -4.9767  -25.3059  -45.9470 O.2       11 UNK        -0.5000 
     69 N          -3.6668  -24.2106  -44.4578 N.am      12 UNK        -0.5000 
     70 CA         -3.3187  -25.3613  -43.6188 C.3       12 UNK         0.1400 
     71 CB         -2.6887  -24.8507  -42.3142 C.3       12 UNK        -0.1800 
     72 C          -2.3746  -26.3692  -44.3130 C.2       12 UNK         0.5000 
     73 O          -2.3262  -27.5288  -43.9021 O.2       12 UNK        -0.5000 
     74 N          -1.6588  -25.9201  -45.3528 N.am      13 UNK        -0.5000 
     75 CA         -0.7439  -26.7048  -46.1810 C.3       13 UNK         0.1400 
     76 CB          0.6419  -26.0338  -46.1490 C.3       13 UNK        -0.1800 
     77 C          -1.2899  -26.8377  -47.6175 C.2       13 UNK         0.5000 
     78 O          -0.5092  -26.8626  -48.5707 O.2       13 UNK        -0.5000 
     79 N          -2.6248  -26.8896  -47.7561 N.am      14 UNK        -0.5000 
     80 CA         -3.3768  -27.0005  -49.0135 C.3       14 UNK         0.1400 
     81 CB         -3.1410  -28.3767  -49.6710 C.3       14 UNK        -0.1800 
     82 C          -3.1031  -25.8228  -49.9721 C.2       14 UNK         0.5000 
     83 O          -2.8702  -26.0271  -51.1645 O.2       14 UNK        -0.5000 
     84 N          -3.0920  -24.6080  -49.4057 N.am      15 UNK        -0.5000 
     85 CA         -2.7597  -23.3325  -50.0501 C.3       15 UNK         0.1400 
     86 CB         -3.7906  -22.9797  -51.1397 C.3       15 UNK        -0.1800 
     87 C          -1.3001  -23.3152  -50.5427 C.2       15 UNK         0.5000 
     88 O          -1.0311  -22.8807  -51.6615 O.2       15 UNK        -0.5000 
     89 N          -0.3956  -23.8440  -49.7031 N.am      16 UNK        -0.5000 
     90 CA          1.0184  -24.1269  -49.9796 C.3       16 UNK         0.1400 
     91 CB          1.8291  -22.8178  -50.0788 C.3       16 UNK        -0.1800 
     92 C           1.1908  -25.0336  -51.2168 C.2       16 UNK         0.5000 
     93 O           1.9560  -24.7053  -52.1230 O.2       16 UNK        -0.5000 
     94 N           0.4166  -26.1281  -51.2583 N.am      17 UNK        -0.5000 
     95 CA          0.2452  -27.0393  -52.3978 C.3       17 UNK         0.1400 
     96 CB          1.5154  -27.8885  -52.6085 C.3       17 UNK        -0.1800 
     97 C          -0.2122  -26.2983  -53.6767 C.2       17 UNK         0.5000 
     98 O           0.3523  -26.4971  -54.7537 O.2       17 UNK        -0.5000 
     99 N          -1.2136  -25.4250  -53.5036 N.am      18 UNK        -0.5000 
    100 CA        -1.8249  -24.5217  -54.4849 C.3       18 UNK         0.1400 
    101 CB        -2.4890  -25.3180  -55.6268 C.3       18 UNK        -0.1800 
    102 C         -0.9119  -23.3910  -55.0139 C.2       18 UNK         0.5000 
    103 O         -1.3192  -22.6857  -55.9387 O.2       18 UNK        -0.5000 
    104 N          0.2794  -23.1959  -54.4290 N.am      19 UNK        -0.5000 
    105 CA         1.2015  -22.1161  -54.7959 C.3       19 UNK         0.1400 
    106 CB         2.6196  -22.4642  -54.3211 C.3       19 UNK        -0.1800 
    107 C          0.7778  -20.7419  -54.2405 C.2       19 UNK         0.5000 
    108 O          1.1447  -19.7202  -54.8219 O.2       19 UNK        -0.5000 
    109 N          0.0184  -20.7358  -53.1389 N.am      20 UNK        -0.5000 
    110 CA        -0.4918  -19.5522  -52.4517 C.3       20 UNK         0.1400 
    111 CB         0.1242  -19.4841  -51.0421 C.3       20 UNK        -0.1800 
    112 C         -2.0290  -19.6033  -52.4278 C.2       20 UNK         0.5000 
    113 O         -2.6442  -19.4422  -51.3725 O.2       20 UNK        -0.5000 
    114 N         -2.6281  -19.8473  -53.6011 N.am      21 UNK        -0.5000 
    115 CA        -4.0716  -19.9252  -53.8316 C.3       21 UNK         0.1400 
    116 CB        -4.3164  -20.6251  -55.1798 C.3       21 UNK        -0.1800 
    117 C         -4.7450  -18.5394  -53.7483 C.2       21 UNK         0.5000 
    118 O         -5.0791  -17.9477  -54.7762 O.2       21 UNK        -0.5000 
    119 N         -4.8991  -18.0456  -52.5145 N.am      22 UNK        -0.5000 
    120 CA        -5.5029  -16.7543  -52.1372 C.3       22 UNK         0.1400 
    121 C         -4.6463  -15.5025  -52.5043 C.2       22 UNK         0.5000 
    122 N         -3.3824  -15.6496  -52.8832 N.am      22 UNK        -0.7600 
    123 O         -5.1233  -14.3737  -52.4254 O.2       22 UNK        -0.5000 
    124 C124       -6.9876  -16.5988  -52.5852 C.3       23 UNK        -0.0398 
    125 S125       -8.0742  -17.9847  -52.0891 S.3       23 UNK        -0.2404 
    126 C126       -8.9468  -17.2990  -50.6435 C.3       23 UNK        -0.0205 
    127 H127       -1.7686  -12.6403  -52.4106 H         1 UNK         0.0600 
    128 H128       -0.4271  -13.7475  -52.7232 H         1 UNK         0.0600 
    129 H129       -0.1086  -12.0383  -52.4080 H         1 UNK         0.0600 
    130 H130       -2.5971  -12.8822  -50.3585 H         1 UNK         0.3000 
    131 H131       -1.2863  -14.3060  -48.2700 H         1 UNK         0.0600 
    132 H132       -3.8335  -12.5989  -48.2585 H         1 UNK         0.0800 
    133 H133       -3.2928  -13.5444  -46.8923 H         1 UNK         0.0800 
    134 H134       -5.3649  -14.9157  -46.6095 H         1 UNK         0.0800 
    135 H135       -6.1658  -14.0306  -47.8897 H         1 UNK         0.0800 
    136 H136       -7.3920  -15.2630  -49.6970 H         1 UNK         0.1150 
    137 H137       -8.5158  -19.3181  -48.8657 H         1 UNK         0.1150 
    138 H138       -5.6579  -17.3274  -46.3669 H         1 UNK         0.1150 
    139 H139       -6.4433  -19.4827  -45.7289 H         1 UNK         0.0800 
    140 H140       -7.9429  -20.0856  -46.4049 H         1 UNK         0.0800 
    141 H141       -6.6854  -22.9730  -46.3954 H         1 UNK         0.0800 
    142 H142       -5.9291  -21.8404  -45.2951 H         1 UNK         0.0800 
    143 H143       -4.4640  -23.3730  -47.4813 H         1 UNK         0.0600 
    144 H144       -3.5594  -21.1865  -45.9379 H         1 UNK         0.3000 
    145 H145       -0.1563  -21.8778  -45.7672 H         1 UNK         0.0600 
    146 H146        0.2874  -20.0011  -47.3114 H         1 UNK         0.0600 
    147 H147       -0.2200  -21.4075  -48.2262 H         1 UNK         0.0600 
    148 H148       -1.3542  -20.0951  -47.9547 H         1 UNK         0.0600 
    149 H149       -1.3485  -19.3723  -45.5455 H         1 UNK         0.3000 
    150 H150       -3.1385  -19.3966  -42.7509 H         1 UNK         0.0600 
    151 H151       -1.3803  -20.2559  -41.2423 H         1 UNK         0.0600 
    152 H152       -1.4049  -18.5015  -41.1842 H         1 UNK         0.0600 
    153 H153       -0.1454  -19.3368  -42.0923 H         1 UNK         0.0600 
    154 H154       -0.9081  -17.7982  -43.9100 H         1 UNK         0.3000 
    155 H155       -3.0295  -15.8703  -45.8982 H         1 UNK         0.0600 
    156 H156       -3.6411  -14.7147  -43.7676 H         1 UNK         0.0600 
    157 H157       -2.3714  -13.8452  -44.6101 H         1 UNK         0.0600 
    158 H158       -1.9777  -14.8379  -43.2081 H         1 UNK         0.0600 
    159 H159       -0.3303  -15.4794  -44.9149 H         1 UNK         0.3000 
    160 H160        1.2529  -17.8153  -47.0104 H         1 UNK         0.0600 
    161 H161        1.2800  -14.7747  -47.4007 H         1 UNK         0.0600 
    162 H162        0.8831  -15.9434  -48.6553 H         1 UNK         0.0600 
    163 H163        2.4939  -15.9197  -47.9570 H         1 UNK         0.0600 
    164 H164        2.1869  -15.6678  -45.3416 H         1 UNK         0.3000 
    165 H165        1.8236  -16.5449  -42.4116 H         1 UNK         0.0600 
    166 H166        4.0525  -18.5167  -43.1336 H         1 UNK         0.0600 
    167 H167        3.9014  -17.6859  -41.5848 H         1 UNK         0.0600 
    168 H168        2.6670  -18.8234  -42.0994 H         1 UNK         0.0600 
    169 H169        3.1365  -14.8852  -42.9578 H         1 UNK         0.3000 
    170 H170        6.1890  -14.3564  -44.3152 H         1 UNK         0.0600 
    171 H171        5.3182  -14.5607  -46.6168 H         1 UNK         0.0600 
    172 H172        3.7786  -13.8572  -46.1461 H         1 UNK         0.0600 
    173 H173        5.2459  -12.8767  -46.1248 H         1 UNK         0.0600 
    174 H174        3.7521  -12.7548  -43.9155 H         1 UNK         0.3000 
    175 H175        4.3410  -12.1819  -40.4813 H         1 UNK         0.0600 
    176 H176        4.6574  -10.2357  -42.8312 H         1 UNK         0.0600 
    177 H177        4.2798   -9.7988  -41.1641 H         1 UNK         0.0600 
    178 H178        5.8424  -10.4971  -41.5570 H         1 UNK         0.0600 
    179 H179        2.4042  -11.1210  -42.2735 H         1 UNK         0.3000 
    180 H180       -0.0026  -13.7336  -41.9789 H         1 UNK         0.0600 
    181 H181        0.1240  -10.9415  -40.7196 H         1 UNK         0.0600 
    182 H182       -0.1915  -12.4420  -39.8560 H         1 UNK         0.0600 
    183 H183       -1.3402  -11.8666  -41.0534 H         1 UNK         0.0600 
    184 H184        0.0121  -11.1044  -43.1761 H         1 UNK         0.3000 
    185 H185       -0.3674  -10.9735  -45.3833 H         1 UNK         0.0600 
    186 H186        2.1602  -10.7095  -45.4371 H         1 UNK         0.0600 
    187 H187        2.2664  -12.0950  -46.5193 H         1 UNK         0.0600 
    188 H188        1.4564  -10.6239  -47.0433 H         1 UNK         0.0600 
    189 H189       -0.3332  -13.6451  -46.3855 H         1 UNK         0.3000 
    190 H190       -3.2194  -23.3323  -44.2185 H         1 UNK         0.3000 
    191 H191       -4.2401  -25.8917  -43.3697 H         1 UNK         0.0600 
    192 H192       -1.7586  -24.3126  -42.5019 H         1 UNK         0.0600 
    193 H193       -3.3640  -24.1774  -41.7861 H         1 UNK         0.0600 
    194 H194       -2.4599  -25.6769  -41.6398 H         1 UNK         0.0600 
    195 H195       -1.7829  -24.9591  -45.6540 H         1 UNK         0.3000 
    196 H196       -0.6411  -27.7176  -45.7873 H         1 UNK         0.0600 
    197 H197        1.0121  -25.9467  -45.1275 H         1 UNK         0.0600 
    198 H198        0.6141  -25.0325  -46.5805 H         1 UNK         0.0600 
    199 H199        1.3753  -26.6150  -46.7093 H         1 UNK         0.0600 
    200 H200       -3.1857  -26.8321  -46.9166 H         1 UNK         0.3000 
    201 H201       -4.4332  -26.9380  -48.7483 H         1 UNK         0.0600 
    202 H202       -3.7852  -28.5086  -50.5411 H         1 UNK         0.0600 
    203 H203       -3.3636  -29.1875  -48.9776 H         1 UNK         0.0600 
    204 H204       -2.1109  -28.4968  -50.0076 H         1 UNK         0.0600 
    205 H205       -3.1878  -24.5688  -48.4012 H         1 UNK         0.3000 
    206 H206       -2.8297  -22.5549  -49.2904 H         1 UNK         0.0600 
    207 H207       -4.7976  -22.9324  -50.7253 H         1 UNK         0.0600 
    208 H208       -3.7975  -23.7016  -51.9546 H         1 UNK         0.0600 
    209 H209       -3.5732  -22.0047  -51.5694 H         1 UNK         0.0600 
    210 H210       -0.7342  -24.1612  -48.8028 H         1 UNK         0.3000 
    211 H211        1.3987  -24.6916  -49.1273 H         1 UNK         0.0600 
    212 H212        1.7438  -22.2275  -49.1678 H         1 UNK         0.0600 
    213 H213        2.8894  -23.0264  -50.2255 H         1 UNK         0.0600 
    214 H214        1.5018  -22.1996  -50.9147 H         1 UNK         0.0600 
    215 H215       -0.1501  -26.3322  -50.4395 H         1 UNK         0.3000 
    216 H216       -0.5662  -27.7173  -52.1292 H         1 UNK         0.0600 
    217 H217        1.3574  -28.6414  -53.3815 H         1 UNK         0.0600 
    218 H218        2.3657  -27.2785  -52.9150 H         1 UNK         0.0600 
    219 H219        1.7923  -28.4147  -51.6950 H         1 UNK         0.0600 
    220 H220       -1.6230  -25.3785  -52.5748 H         1 UNK         0.3000 
    221 H221       -2.6226  -24.0109  -53.9463 H         1 UNK         0.0600 
    222 H222       -1.7509  -25.8040  -56.2653 H         1 UNK         0.0600 
    223 H223       -3.1548  -26.0873  -55.2355 H         1 UNK         0.0600 
    224 H224       -3.0893  -24.6661  -56.2624 H         1 UNK         0.0600 
    225 H225        0.5528  -23.7896  -53.6553 H         1 UNK         0.3000 
    226 H226        1.2258  -22.0404  -55.8851 H         1 UNK         0.0600 
    227 H227        2.9242  -23.4520  -54.6675 H         1 UNK         0.0600 
    228 H228        3.3444  -21.7454  -54.7049 H         1 UNK         0.0600 
    229 H229        2.6943  -22.4496  -53.2335 H         1 UNK         0.0600 
    230 H230       -0.2788  -21.6258  -52.7395 H         1 UNK         0.3000 
    231 H231       -0.2142  -18.6423  -52.9870 H         1 UNK         0.0600 
    232 H232       -0.2115  -18.5950  -50.5066 H         1 UNK         0.0600 
    233 H233        1.2125  -19.4449  -51.0886 H         1 UNK         0.0600 
    234 H234       -0.1538  -20.3521  -50.4448 H         1 UNK         0.0600 
    235 H235       -2.0425  -19.9733  -54.4142 H         1 UNK         0.3000 
    236 H236       -4.5204  -20.5478  -53.0563 H         1 UNK         0.0600 
    237 H237       -3.9157  -21.6390  -55.1744 H         1 UNK         0.0600 
    238 H238       -5.3834  -20.6996  -55.3935 H         1 UNK         0.0600 
    239 H239       -3.8511  -20.0863  -56.0061 H         1 UNK         0.0600 
    240 H240       -4.4918  -18.5746  -51.7509 H         1 UNK         0.3000 
    241 H241       -5.4968  -16.7646  -51.0481 H         1 UNK         0.0600 
    242 H242       -2.8423  -14.8367  -53.1283 H         1 UNK         0.3800 
    243 H243       -2.9765  -16.5676  -52.9497 H         1 UNK         0.3800 
    244 H244       -7.4076  -15.6718  -52.1928 H         1 UNK         0.0800 
    245 H245       -7.0429  -16.5056  -53.6705 H         1 UNK         0.0800 
    246 H246       -9.8313  -17.9072  -50.4478 H         1 UNK         0.0800 
    247 H247       -9.3138  -16.2959  -50.8660 H         1 UNK         0.0800 
@<TRIPOS>BOND
     1    1    2 1    
     2    1  127 1    
     3    1  128 1    
     4    1  129 1    
     5    2    3 2    
     6    2    4 am   BACKBONE|DICT|INTERRES
     7    4    5 1    
     8    4  130 1    
     9    5    6 1    
    10    5   65 1    
    11    5  131 1    
    12    6    7 1    
    13    6  132 1    
    14    6  133 1    
    15    7    8 1    
    16    8    9 1    
    17    8  134 1    
    18    8  135 1    
    19    9   10 ar   
    20    9   14 ar   
    21   10   11 ar   
    22   10  136 1    
    23   11   12 ar   
    24   11  126 1    
    25   12   13 ar   
    26   12  137 1    
    27   13   14 ar   
    28   13   15 1    
    29   14  138 1    
    30   15   16 1    
    31   15  139 1    
    32   15  140 1    
    33   16   17 1    
    34   17   18 1    
    35   17  141 1    
    36   17  142 1    
    37   18   19 1    
    38   18   67 1    
    39   18  143 1    
    40   19   20 am   BACKBONE|DICT|INTERRES
    41   19  144 1    
    42   20   21 2    
    43   20   22 1    
    44   22   23 1    
    45   22   24 1    
    46   22  145 1    
    47   23  146 1    
    48   23  147 1    
    49   23  148 1    
    50   24   25 am   BACKBONE|DICT|INTERRES
    51   24  149 1    
    52   25   26 2    
    53   25   27 1    
    54   27   28 1    
    55   27   29 1    
    56   27  150 1    
    57   28  151 1    
    58   28  152 1    
    59   28  153 1    
    60   29   30 am   BACKBONE|DICT|INTERRES
    61   29  154 1    
    62   30   31 2    
    63   30   32 1    
    64   32   33 1    
    65   32   34 1    
    66   32  155 1    
    67   33  156 1    
    68   33  157 1    
    69   33  158 1    
    70   34   35 am   BACKBONE|DICT|INTERRES
    71   34  159 1    
    72   35   36 2    
    73   35   37 1    
    74   37   38 1    
    75   37   39 1    
    76   37  160 1    
    77   38  161 1    
    78   38  162 1    
    79   38  163 1    
    80   39   40 am   BACKBONE|DICT|INTERRES
    81   39  164 1    
    82   40   41 2    
    83   40   42 1    
    84   42   43 1    
    85   42   44 1    
    86   42  165 1    
    87   43  166 1    
    88   43  167 1    
    89   43  168 1    
    90   44   45 am   BACKBONE|DICT|INTERRES
    91   44  169 1    
    92   45   46 2    
    93   45   47 1    
    94   47   48 1    
    95   47   49 1    
    96   47  170 1    
    97   48  171 1    
    98   48  172 1    
    99   48  173 1    
   100   49   50 am   BACKBONE|DICT|INTERRES
   101   49  174 1    
   102   50   51 2    
   103   50   52 1    
   104   52   53 1    
   105   52   54 1    
   106   52  175 1    
   107   53  176 1    
   108   53  177 1    
   109   53  178 1    
   110   54   55 am   BACKBONE|DICT|INTERRES
   111   54  179 1    
   112   55   56 2    
   113   55   57 1    
   114   57   58 1    
   115   57   59 1    
   116   57  180 1    
   117   58  181 1    
   118   58  182 1    
   119   58  183 1    
   120   59   60 am   BACKBONE|DICT|INTERRES
   121   59  184 1    
   122   60   61 2    
   123   60   62 1    
   124   62   63 1    
   125   62   64 1    
   126   62  185 1    
   127   63  186 1    
   128   63  187 1    
   129   63  188 1    
   130   64   65 am   BACKBONE|DICT|INTERRES
   131   64  189 1    
   132   65   66 2    
   133   67   68 2    
   134   67   69 am   BACKBONE|DICT|INTERRES
   135   69   70 1    
   136   69  190 1    
   137   70   71 1    
   138   70   72 1    
   139   70  191 1    
   140   71  192 1    
   141   71  193 1    
   142   71  194 1    
   143   72   73 2    
   144   72   74 am   BACKBONE|DICT|INTERRES
   145   74   75 1    
   146   74  195 1    
   147   75   76 1    
   148   75   77 1    
   149   75  196 1    
   150   76  197 1    
   151   76  198 1    
   152   76  199 1    
   153   77   78 2    
   154   77   79 am   BACKBONE|DICT|INTERRES
   155   79   80 1    
   156   79  200 1    
   157   80   81 1    
   158   80   82 1    
   159   80  201 1    
   160   81  202 1    
   161   81  203 1    
   162   81  204 1    
   163   82   83 2    
   164   82   84 am   BACKBONE|DICT|INTERRES
   165   84   85 1    
   166   84  205 1    
   167   85   86 1    
   168   85   87 1    
   169   85  206 1    
   170   86  207 1    
   171   86  208 1    
   172   86  209 1    
   173   87   88 2    
   174   87   89 am   BACKBONE|DICT|INTERRES
   175   89   90 1    
   176   89  210 1    
   177   90   91 1    
   178   90   92 1    
   179   90  211 1    
   180   91  212 1    
   181   91  213 1    
   182   91  214 1    
   183   92   93 2    
   184   92   94 am   BACKBONE|DICT|INTERRES
   185   94   95 1    
   186   94  215 1    
   187   95   96 1    
   188   95   97 1    
   189   95  216 1    
   190   96  217 1    
   191   96  218 1    
   192   96  219 1    
   193   97   98 2    
   194   97   99 am   BACKBONE|DICT|INTERRES
   195   99  100 1    
   196   99  220 1    
   197  100  101 1    
   198  100  102 1    
   199  100  221 1    
   200  101  222 1    
   201  101  223 1    
   202  101  224 1    
   203  102  103 2    
   204  102  104 am   BACKBONE|DICT|INTERRES
   205  104  105 1    
   206  104  225 1    
   207  105  106 1    
   208  105  107 1    
   209  105  226 1    
   210  106  227 1    
   211  106  228 1    
   212  106  229 1    
   213  107  108 2    
   214  107  109 am   BACKBONE|DICT|INTERRES
   215  109  110 1    
   216  109  230 1    
   217  110  111 1    
   218  110  112 1    
   219  110  231 1    
   220  111  232 1    
   221  111  233 1    
   222  111  234 1    
   223  112  113 2    
   224  112  114 am   BACKBONE|DICT|INTERRES
   225  114  115 1    
   226  114  235 1    
   227  115  116 1    
   228  115  117 1    
   229  115  236 1    
   230  116  237 1    
   231  116  238 1    
   232  116  239 1    
   233  117  118 2    
   234  117  119 am   BACKBONE|DICT|INTERRES
   235  119  120 1    
   236  119  240 1    
   237  120  121 1    
   238  120  124 1    
   239  120  241 1    
   240  121  122 am   BACKBONE|DICT|INTERRES
   241  121  123 2    
   242  122  242 1    
   243  122  243 1    
   244  124  125 1    
   245  124  244 1    
   246  124  245 1    
   247  125  126 1    
   248  126  246 1    
   249  126  247 1    
@<TRIPOS>SUBSTRUCTURE
     1 UNK         1 GROUP             0       ****    0 ROOT    
