@<TRIPOS>MOLECULE
3R540
247   249    1
SMALL
USER_CHARGES


@<TRIPOS>ATOM
      1 CA         -2.5019  -13.1971  -52.8446 C.3       0 UNK        -0.1800 
      2 C          -2.1645  -13.2238  -51.3603 C.2       0 UNK         0.5000 
      3 O          -2.2666  -12.1964  -50.6893 O.2       0 UNK        -0.5000 
      4 N          -1.7495  -14.3898  -50.8518 N.am      1 UNK        -0.5000 
      5 CA         -1.4446  -14.6347  -49.4397 C.3       1 UNK         0.1400 
      6 C6         -0.6119  -15.9289  -49.2359 C.3       23 UNK        -0.0398 
      7 S7         -1.2510  -17.4072  -50.1094 S.3       23 UNK        -0.2404 
      8 C8          0.0412  -17.6987  -51.3642 C.3       23 UNK        -0.0205 
      9 C9          1.1219  -18.6648  -50.8889 C.ar      23 UNK        -0.0193 
     10 C10         1.2811  -19.9013  -51.5230 C.ar      23 UNK        -0.1150 
     11 C11         2.2805  -20.7899  -51.1155 C.ar      23 UNK        -0.0193 
     12 C12         3.1330  -20.4329  -50.0679 C.ar      23 UNK        -0.1150 
     13 C13         2.9891  -19.1996  -49.4264 C.ar      23 UNK        -0.0193 
     14 C14         1.9851  -18.3206  -49.8432 C.ar      23 UNK        -0.1150 
     15 C15         3.9239  -18.8128  -48.2888 C.3       23 UNK        -0.0205 
     16 S16         3.6862  -19.8527  -46.8135 S.3       23 UNK        -0.2404 
     17 C17         1.9491  -19.5036  -46.3789 C.3       23 UNK        -0.0398 
     18 CA          0.9597  -20.5936  -46.8597 C.3       11 UNK         0.1400 
     19 N           1.3746  -21.9490  -46.4919 N.am      11 UNK        -0.5000 
     20 C           0.8893  -23.0693  -47.0426 C.2       10 UNK         0.5000 
     21 O           0.0394  -23.0808  -47.9312 O.2       10 UNK        -0.5000 
     22 CA          1.4105  -24.4023  -46.4740 C.3       10 UNK         0.1400 
     23 CB          2.7151  -24.8084  -47.1757 C.3       10 UNK        -0.1800 
     24 N           1.6343  -24.3528  -45.0279 N.am      10 UNK        -0.5000 
     25 C           0.6727  -24.1582  -44.1138 C.2       9 UNK         0.5000 
     26 O          -0.5225  -24.0686  -44.3908 O.2       9 UNK        -0.5000 
     27 CA          1.1279  -23.9676  -42.6536 C.3       9 UNK         0.1400 
     28 CB          1.1538  -25.3152  -41.9180 C.3       9 UNK        -0.1800 
     29 N           2.4376  -23.3183  -42.5253 N.am      9 UNK        -0.5000 
     30 C           2.7341  -22.0973  -42.9892 C.2       8 UNK         0.5000 
     31 O           1.9275  -21.3795  -43.5889 O.2       8 UNK        -0.5000 
     32 CA          4.1830  -21.6282  -42.8016 C.3       8 UNK         0.1400 
     33 CB          5.1347  -22.4065  -43.7296 C.3       8 UNK        -0.1800 
     34 N           4.2526  -20.2068  -43.1126 N.am      8 UNK        -0.5000 
     35 C           5.1908  -19.3479  -42.7015 C.2       7 UNK         0.5000 
     36 O           6.1353  -19.6644  -41.9770 O.2       7 UNK        -0.5000 
     37 CA          5.0635  -17.8898  -43.1863 C.3       7 UNK         0.1400 
     38 CB          6.0511  -17.6207  -44.3327 C.3       7 UNK        -0.1800 
     39 N           3.7130  -17.5507  -43.6425 N.am      7 UNK        -0.5000 
     40 C           2.6918  -17.2515  -42.8302 C.2       6 UNK         0.5000 
     41 O           2.7790  -17.2073  -41.6013 O.2       6 UNK        -0.5000 
     42 CA          1.3392  -16.9708  -43.5096 C.3       6 UNK         0.1400 
     43 CB          0.3141  -18.0583  -43.1569 C.3       6 UNK        -0.1800 
     44 N           0.7914  -15.6694  -43.1401 N.am      6 UNK        -0.5000 
     45 C           1.3361  -14.4826  -43.4428 C.2       5 UNK         0.5000 
     46 O           2.3957  -14.3626  -44.0598 O.2       5 UNK        -0.5000 
     47 CA          0.5650  -13.2169  -43.0153 C.3       5 UNK         0.1400 
     48 CB          0.3851  -12.2536  -44.2023 C.3       5 UNK        -0.1800 
     49 N          -0.7612  -13.5364  -42.4843 N.am      5 UNK        -0.5000 
     50 C          -1.1489  -13.3972  -41.2094 C.2       4 UNK         0.5000 
     51 O          -0.4124  -12.9835  -40.3134 O.2       4 UNK        -0.5000 
     52 CA         -2.6073  -13.7736  -40.8694 C.3       4 UNK         0.1400 
     53 CB         -3.4606  -12.5066  -40.7023 C.3       4 UNK        -0.1800 
     54 N          -3.2378  -14.6328  -41.8740 N.am      4 UNK        -0.5000 
     55 C          -2.9480  -15.9267  -42.0654 C.2       3 UNK         0.5000 
     56 O          -2.1568  -16.5570  -41.3657 O.2       3 UNK        -0.5000 
     57 CA         -3.6111  -16.6156  -43.2748 C.3       3 UNK         0.1400 
     58 CB         -4.8752  -17.3769  -42.8508 C.3       3 UNK        -0.1800 
     59 N          -3.9409  -15.6987  -44.3725 N.am      3 UNK        -0.5000 
     60 C          -3.0336  -15.0245  -45.0906 C.2       2 UNK         0.5000 
     61 O          -1.8259  -15.0299  -44.8425 O.2       2 UNK        -0.5000 
     62 CA         -3.5565  -14.1791  -46.2579 C.3       2 UNK         0.1400 
     63 CB         -3.7937  -12.7316  -45.7996 C.3       2 UNK        -0.1800 
     64 N          -2.5416  -14.1880  -47.3062 N.am      2 UNK        -0.5000 
     65 C          -2.7151  -14.6142  -48.5616 C.2       1 UNK         0.5000 
     66 O          -3.7972  -14.9887  -49.0207 O.2       1 UNK        -0.5000 
     67 C          -0.4578  -20.2975  -46.3367 C.2       11 UNK         0.5000 
     68 O          -1.2446  -19.6685  -47.0404 O.2       11 UNK        -0.5000 
     69 N          -0.7721  -20.7838  -45.1264 N.am      12 UNK        -0.5000 
     70 CA         -2.1058  -20.6962  -44.5292 C.3       12 UNK         0.1400 
     71 CB         -2.0417  -21.0959  -43.0480 C.3       12 UNK        -0.1800 
     72 C          -3.1385  -21.5458  -45.2926 C.2       12 UNK         0.5000 
     73 O          -4.2480  -21.0739  -45.5412 O.2       12 UNK        -0.5000 
     74 N          -2.7396  -22.7613  -45.6941 N.am      13 UNK        -0.5000 
     75 CA         -3.5269  -23.6564  -46.5427 C.3       13 UNK         0.1400 
     76 CB         -2.8330  -25.0230  -46.6388 C.3       13 UNK        -0.1800 
     77 C          -3.7795  -23.0689  -47.9428 C.2       13 UNK         0.5000 
     78 O          -4.8994  -23.1648  -48.4441 O.2       13 UNK        -0.5000 
     79 N          -2.7534  -22.4347  -48.5289 N.am      14 UNK        -0.5000 
     80 CA         -2.8555  -21.6916  -49.7830 C.3       14 UNK         0.1400 
     81 CB         -1.4641  -21.2629  -50.2607 C.3       14 UNK        -0.1800 
     82 C          -3.7879  -20.4767  -49.6642 C.2       14 UNK         0.5000 
     83 O          -4.6470  -20.2963  -50.5225 O.2       14 UNK        -0.5000 
     84 N          -3.6507  -19.6931  -48.5868 N.am      15 UNK        -0.5000 
     85 CA         -4.5073  -18.5451  -48.2862 C.3       15 UNK         0.1400 
     86 CB         -3.9994  -17.8361  -47.0267 C.3       15 UNK        -0.1800 
     87 C          -5.9906  -18.9278  -48.1328 C.2       15 UNK         0.5000 
     88 O          -6.8545  -18.2448  -48.6832 O.2       15 UNK        -0.5000 
     89 N          -6.2555  -20.0513  -47.4508 N.am      16 UNK        -0.5000 
     90 CA         -7.5852  -20.6519  -47.3108 C.3       16 UNK         0.1400 
     91 CB         -7.5142  -21.8026  -46.2960 C.3       16 UNK        -0.1800 
     92 C          -8.1899  -21.1366  -48.6466 C.2       16 UNK         0.5000 
     93 O          -9.4134  -21.1641  -48.7809 O.2       16 UNK        -0.5000 
     94 N          -7.3304  -21.4741  -49.6169 N.am      17 UNK        -0.5000 
     95 CA         -7.6887  -21.8428  -50.9880 C.3       17 UNK         0.1400 
     96 CB         -6.6797  -22.8874  -51.4973 C.3       17 UNK        -0.1800 
     97 C          -7.7660  -20.6263  -51.9393 C.2       17 UNK         0.5000 
     98 O          -7.9471  -20.8234  -53.1415 O.2       17 UNK        -0.5000 
     99 N          -7.6422  -19.4040  -51.3969 N.am      18 UNK        -0.5000 
    100 CA        -7.6364  -18.1106  -52.0890 C.3       18 UNK         0.1400 
    101 CB        -8.9597  -17.8609  -52.8442 C.3       18 UNK        -0.1800 
    102 C         -6.3775  -17.9002  -52.9564 C.2       18 UNK         0.5000 
    103 O         -6.4694  -17.3866  -54.0732 O.2       18 UNK        -0.5000 
    104 N         -5.2217  -18.2795  -52.3966 N.am      19 UNK        -0.5000 
    105 CA        -3.8749  -18.2072  -52.9625 C.3       19 UNK         0.1400 
    106 CB        -3.4756  -16.7534  -53.3013 C.3       19 UNK        -0.1800 
    107 C         -3.6725  -19.2222  -54.1053 C.2       19 UNK         0.5000 
    108 O         -4.2508  -20.3096  -54.0546 O.2       19 UNK        -0.5000 
    109 N         -2.8171  -18.8761  -55.0799 N.am      20 UNK        -0.5000 
    110 CA        -2.3040  -19.7305  -56.1560 C.3       20 UNK         0.1400 
    111 CB        -3.4267  -20.1718  -57.1221 C.3       20 UNK        -0.1800 
    112 C         -1.4761  -20.8917  -55.5715 C.2       20 UNK         0.5000 
    113 O         -0.3172  -20.6693  -55.2158 O.2       20 UNK        -0.5000 
    114 N         -2.0865  -22.0799  -55.4519 N.am      21 UNK        -0.5000 
    115 CA        -1.5655  -23.2956  -54.8202 C.3       21 UNK         0.1400 
    116 CB        -1.5020  -23.1095  -53.2882 C.3       21 UNK        -0.1800 
    117 C         -0.2319  -23.7576  -55.4412 C.2       21 UNK         0.5000 
    118 O         -0.2471  -24.4056  -56.4888 O.2       21 UNK        -0.5000 
    119 N          0.8864  -23.4092  -54.7943 N.am      22 UNK        -0.5000 
    120 CA         2.2541  -23.6456  -55.2755 C.3       22 UNK         0.1400 
    121 C          2.6781  -22.7605  -56.4870 C.2       22 UNK         0.5000 
    122 N          1.9831  -21.6691  -56.7882 N.am      22 UNK        -0.7600 
    123 O          3.6473  -23.0794  -57.1707 O.2       22 UNK        -0.5000 
    124 C124        3.2793  -23.5767  -54.1123 C.3       23 UNK        -0.0398 
    125 S125        3.4229  -21.9247  -53.3403 S.3       23 UNK        -0.2404 
    126 C126        2.4460  -22.1261  -51.8201 C.3       23 UNK        -0.0205 
    127 H127       -3.5826  -13.1686  -52.9830 H         1 UNK         0.0600 
    128 H128       -2.1118  -14.0729  -53.3630 H         1 UNK         0.0600 
    129 H129       -2.0728  -12.3114  -53.3134 H         1 UNK         0.0600 
    130 H130       -1.7254  -15.2108  -51.4376 H         1 UNK         0.3000 
    131 H131       -0.8210  -13.8020  -49.1058 H         1 UNK         0.0600 
    132 H132       -0.5173  -16.1727  -48.1759 H         1 UNK         0.0800 
    133 H133        0.4041  -15.7275  -49.5729 H         1 UNK         0.0800 
    134 H134       -0.4452  -18.0955  -52.2565 H         1 UNK         0.0800 
    135 H135        0.4983  -16.7568  -51.6698 H         1 UNK         0.0800 
    136 H136        0.6326  -20.1732  -52.3443 H         1 UNK         0.1150 
    137 H137        3.9106  -21.1131  -49.7496 H         1 UNK         0.1150 
    138 H138        1.8817  -17.3664  -49.3508 H         1 UNK         0.1150 
    139 H139        4.9559  -18.9137  -48.6272 H         1 UNK         0.0800 
    140 H140        3.7943  -17.7649  -48.0141 H         1 UNK         0.0800 
    141 H141        1.6631  -18.5294  -46.7795 H         1 UNK         0.0800 
    142 H142        1.9096  -19.4072  -45.2960 H         1 UNK         0.0800 
    143 H143        0.9178  -20.5467  -47.9497 H         1 UNK         0.0600 
    144 H144        2.0313  -22.0188  -45.7275 H         1 UNK         0.3000 
    145 H145        0.6585  -25.1681  -46.6743 H         1 UNK         0.0600 
    146 H146        3.0576  -25.7864  -46.8373 H         1 UNK         0.0600 
    147 H147        2.5737  -24.8700  -48.2557 H         1 UNK         0.0600 
    148 H148        3.5138  -24.0888  -46.9903 H         1 UNK         0.0600 
    149 H149        2.5900  -24.4191  -44.7114 H         1 UNK         0.3000 
    150 H150        0.3927  -23.3255  -42.1644 H         1 UNK         0.0600 
    151 H151        1.8962  -25.9921  -42.3427 H         1 UNK         0.0600 
    152 H152        0.1842  -25.8115  -41.9782 H         1 UNK         0.0600 
    153 H153        1.3841  -25.1835  -40.8606 H         1 UNK         0.0600 
    154 H154        3.1547  -23.8485  -42.0511 H         1 UNK         0.3000 
    155 H155        4.4636  -21.7869  -41.7584 H         1 UNK         0.0600 
    156 H156        4.8709  -22.2695  -44.7794 H         1 UNK         0.0600 
    157 H157        5.1095  -23.4761  -43.5195 H         1 UNK         0.0600 
    158 H158        6.1669  -22.0801  -43.6019 H         1 UNK         0.0600 
    159 H159        3.4746  -19.8683  -43.6615 H         1 UNK         0.3000 
    160 H160        5.3280  -17.2391  -42.3500 H         1 UNK         0.0600 
    161 H161        5.8425  -18.2471  -45.2008 H         1 UNK         0.0600 
    162 H162        7.0764  -17.8245  -44.0210 H         1 UNK         0.0600 
    163 H163        6.0112  -16.5790  -44.6519 H         1 UNK         0.0600 
    164 H164        3.5754  -17.5314  -44.6422 H         1 UNK         0.3000 
    165 H165        1.4786  -16.9743  -44.5925 H         1 UNK         0.0600 
    166 H166       -0.5902  -17.9525  -43.7552 H         1 UNK         0.0600 
    167 H167        0.7110  -19.0552  -43.3396 H         1 UNK         0.0600 
    168 H168        0.0311  -18.0175  -42.1046 H         1 UNK         0.0600 
    169 H169       -0.0681  -15.6783  -42.6106 H         1 UNK         0.3000 
    170 H170        1.1717  -12.7157  -42.2589 H         1 UNK         0.0600 
    171 H171        1.3485  -11.9348  -44.6019 H         1 UNK         0.0600 
    172 H172       -0.1714  -12.7194  -45.0164 H         1 UNK         0.0600 
    173 H173       -0.1524  -11.3543  -43.9012 H         1 UNK         0.0600 
    174 H174       -1.4080  -13.9330  -43.1569 H         1 UNK         0.3000 
    175 H175       -2.5954  -14.3070  -39.9165 H         1 UNK         0.0600 
    176 H176       -3.5166  -11.9341  -41.6291 H         1 UNK         0.0600 
    177 H177       -4.4776  -12.7530  -40.3965 H         1 UNK         0.0600 
    178 H178       -3.0429  -11.8515  -39.9366 H         1 UNK         0.0600 
    179 H179       -3.9026  -14.1941  -42.4939 H         1 UNK         0.3000 
    180 H180       -2.8969  -17.3449  -43.6607 H         1 UNK         0.0600 
    181 H181       -4.6543  -18.0856  -42.0514 H         1 UNK         0.0600 
    182 H182       -5.2886  -17.9481  -43.6826 H         1 UNK         0.0600 
    183 H183       -5.6497  -16.7008  -42.4868 H         1 UNK         0.0600 
    184 H184       -4.9188  -15.6217  -44.6131 H         1 UNK         0.3000 
    185 H185       -4.4975  -14.6003  -46.6167 H         1 UNK         0.0600 
    186 H186       -4.1406  -12.1113  -46.6263 H         1 UNK         0.0600 
    187 H187       -4.5538  -12.6867  -45.0187 H         1 UNK         0.0600 
    188 H188       -2.8848  -12.2783  -45.4012 H         1 UNK         0.0600 
    189 H189       -1.6091  -13.9705  -46.9821 H         1 UNK         0.3000 
    190 H190       -0.0609  -21.2781  -44.6019 H         1 UNK         0.3000 
    191 H191       -2.4291  -19.6549  -44.5823 H         1 UNK         0.0600 
    192 H192       -1.3388  -20.4700  -42.4984 H         1 UNK         0.0600 
    193 H193       -3.0172  -20.9818  -42.5738 H         1 UNK         0.0600 
    194 H194       -1.7356  -22.1341  -42.9209 H         1 UNK         0.0600 
    195 H195       -1.8334  -23.1054  -45.3886 H         1 UNK         0.3000 
    196 H196       -4.4972  -23.8008  -46.0633 H         1 UNK         0.0600 
    197 H197       -3.4184  -25.7161  -47.2441 H         1 UNK         0.0600 
    198 H198       -2.7115  -25.4733  -45.6534 H         1 UNK         0.0600 
    199 H199       -1.8456  -24.9427  -47.0934 H         1 UNK         0.0600 
    200 H200       -1.8391  -22.4606  -48.0890 H         1 UNK         0.3000 
    201 H201       -3.2779  -22.3622  -50.5339 H         1 UNK         0.0600 
    202 H202       -0.8181  -22.1245  -50.4280 H         1 UNK         0.0600 
    203 H203       -0.9706  -20.6110  -49.5406 H         1 UNK         0.0600 
    204 H204       -1.5336  -20.7143  -51.2005 H         1 UNK         0.0600 
    205 H205       -2.8729  -19.8577  -47.9524 H         1 UNK         0.3000 
    206 H206       -4.4283  -17.8473  -49.1227 H         1 UNK         0.0600 
    207 H207       -2.9836  -17.4656  -47.1652 H         1 UNK         0.0600 
    208 H208       -4.6347  -16.9823  -46.7963 H         1 UNK         0.0600 
    209 H209       -4.0027  -18.4919  -46.1569 H         1 UNK         0.0600 
    210 H210       -5.4880  -20.5318  -46.9893 H         1 UNK         0.3000 
    211 H211       -8.2528  -19.8867  -46.9098 H         1 UNK         0.0600 
    212 H212       -6.8454  -22.5949  -46.6327 H         1 UNK         0.0600 
    213 H213       -8.4976  -22.2471  -46.1386 H         1 UNK         0.0600 
    214 H214       -7.1561  -21.4527  -45.3275 H         1 UNK         0.0600 
    215 H215       -6.3380  -21.4233  -49.4217 H         1 UNK         0.3000 
    216 H216       -8.6757  -22.3092  -50.9858 H         1 UNK         0.0600 
    217 H217       -6.9733  -23.2724  -52.4744 H         1 UNK         0.0600 
    218 H218       -6.6161  -23.7388  -50.8194 H         1 UNK         0.0600 
    219 H219       -5.6794  -22.4673  -51.6010 H         1 UNK         0.0600 
    220 H220       -7.4721  -19.3493  -50.3996 H         1 UNK         0.3000 
    221 H221       -7.5763  -17.3590  -51.3005 H         1 UNK         0.0600 
    222 H222       -9.0683  -18.5163  -53.7084 H         1 UNK         0.0600 
    223 H223       -9.8206  -18.0152  -52.1938 H         1 UNK         0.0600 
    224 H224       -9.0096  -16.8345  -53.2091 H         1 UNK         0.0600 
    225 H225       -5.2724  -18.8321  -51.5450 H         1 UNK         0.3000 
    226 H226       -3.2125  -18.5402  -52.1632 H         1 UNK         0.0600 
    227 H227       -2.4054  -16.6708  -53.4923 H         1 UNK         0.0600 
    228 H228       -4.0008  -16.3771  -54.1797 H         1 UNK         0.0600 
    229 H229       -3.7025  -16.0870  -52.4690 H         1 UNK         0.0600 
    230 H230       -2.3862  -17.9648  -55.0199 H         1 UNK         0.3000 
    231 H231       -1.6073  -19.1181  -56.7304 H         1 UNK         0.0600 
    232 H232       -4.2076  -20.7514  -56.6302 H         1 UNK         0.0600 
    233 H233       -3.0246  -20.7824  -57.9314 H         1 UNK         0.0600 
    234 H234       -3.9038  -19.3055  -57.5803 H         1 UNK         0.0600 
    235 H235       -3.0439  -22.1371  -55.7690 H         1 UNK         0.3000 
    236 H236       -2.2895  -24.0863  -55.0228 H         1 UNK         0.0600 
    237 H237       -2.4949  -22.9146  -52.8827 H         1 UNK         0.0600 
    238 H238       -1.1218  -24.0052  -52.7955 H         1 UNK         0.0600 
    239 H239       -0.8639  -22.2741  -53.0014 H         1 UNK         0.0600 
    240 H240        0.8025  -22.8063  -53.9905 H         1 UNK         0.3000 
    241 H241        2.2788  -24.6716  -55.6478 H         1 UNK         0.0600 
    242 H242        2.2618  -21.1032  -57.5735 H         1 UNK         0.3800 
    243 H243        1.2057  -21.3761  -56.2038 H         1 UNK         0.3800 
    244 H244        3.0217  -24.3114  -53.3483 H         1 UNK         0.0800 
    245 H245        4.2683  -23.8676  -54.4703 H         1 UNK         0.0800 
    246 H246        1.4654  -22.5411  -52.0532 H         1 UNK         0.0800 
    247 H247        2.9380  -22.8455  -51.1635 H         1 UNK         0.0800 
@<TRIPOS>BOND
     1    1    2 1    
     2    1  127 1    
     3    1  128 1    
     4    1  129 1    
     5    2    3 2    
     6    2    4 am   BACKBONE|DICT|INTERRES
     7    4    5 1    
     8    4  130 1    
     9    5    6 1    
    10    5   65 1    
    11    5  131 1    
    12    6    7 1    
    13    6  132 1    
    14    6  133 1    
    15    7    8 1    
    16    8    9 1    
    17    8  134 1    
    18    8  135 1    
    19    9   10 ar   
    20    9   14 ar   
    21   10   11 ar   
    22   10  136 1    
    23   11   12 ar   
    24   11  126 1    
    25   12   13 ar   
    26   12  137 1    
    27   13   14 ar   
    28   13   15 1    
    29   14  138 1    
    30   15   16 1    
    31   15  139 1    
    32   15  140 1    
    33   16   17 1    
    34   17   18 1    
    35   17  141 1    
    36   17  142 1    
    37   18   19 1    
    38   18   67 1    
    39   18  143 1    
    40   19   20 am   BACKBONE|DICT|INTERRES
    41   19  144 1    
    42   20   21 2    
    43   20   22 1    
    44   22   23 1    
    45   22   24 1    
    46   22  145 1    
    47   23  146 1    
    48   23  147 1    
    49   23  148 1    
    50   24   25 am   BACKBONE|DICT|INTERRES
    51   24  149 1    
    52   25   26 2    
    53   25   27 1    
    54   27   28 1    
    55   27   29 1    
    56   27  150 1    
    57   28  151 1    
    58   28  152 1    
    59   28  153 1    
    60   29   30 am   BACKBONE|DICT|INTERRES
    61   29  154 1    
    62   30   31 2    
    63   30   32 1    
    64   32   33 1    
    65   32   34 1    
    66   32  155 1    
    67   33  156 1    
    68   33  157 1    
    69   33  158 1    
    70   34   35 am   BACKBONE|DICT|INTERRES
    71   34  159 1    
    72   35   36 2    
    73   35   37 1    
    74   37   38 1    
    75   37   39 1    
    76   37  160 1    
    77   38  161 1    
    78   38  162 1    
    79   38  163 1    
    80   39   40 am   BACKBONE|DICT|INTERRES
    81   39  164 1    
    82   40   41 2    
    83   40   42 1    
    84   42   43 1    
    85   42   44 1    
    86   42  165 1    
    87   43  166 1    
    88   43  167 1    
    89   43  168 1    
    90   44   45 am   BACKBONE|DICT|INTERRES
    91   44  169 1    
    92   45   46 2    
    93   45   47 1    
    94   47   48 1    
    95   47   49 1    
    96   47  170 1    
    97   48  171 1    
    98   48  172 1    
    99   48  173 1    
   100   49   50 am   BACKBONE|DICT|INTERRES
   101   49  174 1    
   102   50   51 2    
   103   50   52 1    
   104   52   53 1    
   105   52   54 1    
   106   52  175 1    
   107   53  176 1    
   108   53  177 1    
   109   53  178 1    
   110   54   55 am   BACKBONE|DICT|INTERRES
   111   54  179 1    
   112   55   56 2    
   113   55   57 1    
   114   57   58 1    
   115   57   59 1    
   116   57  180 1    
   117   58  181 1    
   118   58  182 1    
   119   58  183 1    
   120   59   60 am   BACKBONE|DICT|INTERRES
   121   59  184 1    
   122   60   61 2    
   123   60   62 1    
   124   62   63 1    
   125   62   64 1    
   126   62  185 1    
   127   63  186 1    
   128   63  187 1    
   129   63  188 1    
   130   64   65 am   BACKBONE|DICT|INTERRES
   131   64  189 1    
   132   65   66 2    
   133   67   68 2    
   134   67   69 am   BACKBONE|DICT|INTERRES
   135   69   70 1    
   136   69  190 1    
   137   70   71 1    
   138   70   72 1    
   139   70  191 1    
   140   71  192 1    
   141   71  193 1    
   142   71  194 1    
   143   72   73 2    
   144   72   74 am   BACKBONE|DICT|INTERRES
   145   74   75 1    
   146   74  195 1    
   147   75   76 1    
   148   75   77 1    
   149   75  196 1    
   150   76  197 1    
   151   76  198 1    
   152   76  199 1    
   153   77   78 2    
   154   77   79 am   BACKBONE|DICT|INTERRES
   155   79   80 1    
   156   79  200 1    
   157   80   81 1    
   158   80   82 1    
   159   80  201 1    
   160   81  202 1    
   161   81  203 1    
   162   81  204 1    
   163   82   83 2    
   164   82   84 am   BACKBONE|DICT|INTERRES
   165   84   85 1    
   166   84  205 1    
   167   85   86 1    
   168   85   87 1    
   169   85  206 1    
   170   86  207 1    
   171   86  208 1    
   172   86  209 1    
   173   87   88 2    
   174   87   89 am   BACKBONE|DICT|INTERRES
   175   89   90 1    
   176   89  210 1    
   177   90   91 1    
   178   90   92 1    
   179   90  211 1    
   180   91  212 1    
   181   91  213 1    
   182   91  214 1    
   183   92   93 2    
   184   92   94 am   BACKBONE|DICT|INTERRES
   185   94   95 1    
   186   94  215 1    
   187   95   96 1    
   188   95   97 1    
   189   95  216 1    
   190   96  217 1    
   191   96  218 1    
   192   96  219 1    
   193   97   98 2    
   194   97   99 am   BACKBONE|DICT|INTERRES
   195   99  100 1    
   196   99  220 1    
   197  100  101 1    
   198  100  102 1    
   199  100  221 1    
   200  101  222 1    
   201  101  223 1    
   202  101  224 1    
   203  102  103 2    
   204  102  104 am   BACKBONE|DICT|INTERRES
   205  104  105 1    
   206  104  225 1    
   207  105  106 1    
   208  105  107 1    
   209  105  226 1    
   210  106  227 1    
   211  106  228 1    
   212  106  229 1    
   213  107  108 2    
   214  107  109 am   BACKBONE|DICT|INTERRES
   215  109  110 1    
   216  109  230 1    
   217  110  111 1    
   218  110  112 1    
   219  110  231 1    
   220  111  232 1    
   221  111  233 1    
   222  111  234 1    
   223  112  113 2    
   224  112  114 am   BACKBONE|DICT|INTERRES
   225  114  115 1    
   226  114  235 1    
   227  115  116 1    
   228  115  117 1    
   229  115  236 1    
   230  116  237 1    
   231  116  238 1    
   232  116  239 1    
   233  117  118 2    
   234  117  119 am   BACKBONE|DICT|INTERRES
   235  119  120 1    
   236  119  240 1    
   237  120  121 1    
   238  120  124 1    
   239  120  241 1    
   240  121  122 am   BACKBONE|DICT|INTERRES
   241  121  123 2    
   242  122  242 1    
   243  122  243 1    
   244  124  125 1    
   245  124  244 1    
   246  124  245 1    
   247  125  126 1    
   248  126  246 1    
   249  126  247 1    
@<TRIPOS>SUBSTRUCTURE
     1 UNK         1 GROUP             0       ****    0 ROOT    
