@<TRIPOS>MOLECULE
3R540
247   249    1
SMALL
USER_CHARGES


@<TRIPOS>ATOM
      1 CA          4.9954  -14.2435  -48.7409 C.3       0 UNK        -0.1800 
      2 C           3.6181  -13.6226  -48.9243 C.2       0 UNK         0.5000 
      3 O           3.3922  -12.9150  -49.9053 O.2       0 UNK        -0.5000 
      4 N           2.7012  -13.8926  -47.9847 N.am      1 UNK        -0.5000 
      5 CA          1.2987  -13.4430  -47.9701 C.3       1 UNK         0.1400 
      6 C6          0.4365  -14.0265  -49.1255 C.3       23 UNK        -0.0398 
      7 S7          0.3266  -15.8458  -49.0550 S.3       23 UNK        -0.2404 
      8 C8          1.4637  -16.3200  -50.3873 C.3       23 UNK        -0.0205 
      9 C9          1.8742  -17.7750  -50.2565 C.ar      23 UNK        -0.0193 
     10 C10         1.1346  -18.7712  -50.8941 C.ar      23 UNK        -0.1150 
     11 C11         1.5237  -20.1099  -50.8048 C.ar      23 UNK        -0.0193 
     12 C12         2.6587  -20.4508  -50.0615 C.ar      23 UNK        -0.1150 
     13 C13         3.4072  -19.4600  -49.4171 C.ar      23 UNK        -0.0193 
     14 C14         3.0056  -18.1244  -49.5141 C.ar      23 UNK        -0.1150 
     15 C15         4.6736  -19.8173  -48.6518 C.3       23 UNK        -0.0205 
     16 S16         4.3562  -20.0941  -46.8812 S.3       23 UNK        -0.2404 
     17 C17         3.6699  -21.7825  -46.9037 C.3       23 UNK        -0.0398 
     18 CA          3.7288  -22.4670  -45.5143 C.3       11 UNK         0.1400 
     19 N           2.8448  -21.8069  -44.5450 N.am      11 UNK        -0.5000 
     20 C           2.8500  -21.9932  -43.2175 C.2       10 UNK         0.5000 
     21 O           3.6960  -22.6616  -42.6234 O.2       10 UNK        -0.5000 
     22 CA          1.6639  -21.3933  -42.4354 C.3       10 UNK         0.1400 
     23 CB          1.9564  -19.9485  -42.0022 C.3       10 UNK        -0.1800 
     24 N           0.4140  -21.4447  -43.2040 N.am      10 UNK        -0.5000 
     25 C          -0.2519  -22.5742  -43.4892 C.2       9 UNK         0.5000 
     26 O           0.0826  -23.6814  -43.0704 O.2       9 UNK        -0.5000 
     27 CA         -1.4548  -22.4706  -44.4439 C.3       9 UNK         0.1400 
     28 CB         -2.7577  -22.2382  -43.6655 C.3       9 UNK        -0.1800 
     29 N          -1.2738  -21.4176  -45.4429 N.am      9 UNK        -0.5000 
     30 C          -0.4932  -21.5416  -46.5277 C.2       8 UNK         0.5000 
     31 O           0.0977  -22.5838  -46.8203 O.2       8 UNK        -0.5000 
     32 CA         -0.3087  -20.2857  -47.4087 C.3       8 UNK         0.1400 
     33 CB         -1.3872  -20.2386  -48.4996 C.3       8 UNK        -0.1800 
     34 N          -0.3352  -19.0300  -46.6523 N.am      8 UNK        -0.5000 
     35 C           0.5178  -18.7245  -45.6617 C.2       7 UNK         0.5000 
     36 O           1.4637  -19.4427  -45.3491 O.2       7 UNK        -0.5000 
     37 CA          0.2319  -17.4702  -44.8080 C.3       7 UNK         0.1400 
     38 CB          1.1263  -16.3020  -45.2393 C.3       7 UNK        -0.1800 
     39 N          -1.1689  -17.0468  -44.8263 N.am      7 UNK        -0.5000 
     40 C          -2.2068  -17.8109  -44.4519 C.2       6 UNK         0.5000 
     41 O          -2.0735  -18.9258  -43.9465 O.2       6 UNK        -0.5000 
     42 CA         -3.6275  -17.2822  -44.7328 C.3       6 UNK         0.1400 
     43 CB         -4.2894  -16.8097  -43.4299 C.3       6 UNK        -0.1800 
     44 N          -3.6994  -16.1987  -45.7161 N.am      6 UNK        -0.5000 
     45 C          -3.2483  -16.2246  -46.9803 C.2       5 UNK         0.5000 
     46 O          -2.6918  -17.1942  -47.4959 O.2       5 UNK        -0.5000 
     47 CA         -3.3896  -14.9131  -47.7794 C.3       5 UNK         0.1400 
     48 CB         -4.6510  -14.9540  -48.6538 C.3       5 UNK        -0.1800 
     49 N          -3.4313  -13.7048  -46.9452 N.am      5 UNK        -0.5000 
     50 C          -2.4600  -13.3012  -46.1152 C.2       4 UNK         0.5000 
     51 O          -1.3929  -13.9014  -45.9602 O.2       4 UNK        -0.5000 
     52 CA         -2.7634  -12.0586  -45.2680 C.3       4 UNK         0.1400 
     53 CB         -3.6870  -12.4365  -44.0914 C.3       4 UNK        -0.1800 
     54 N          -1.5000  -11.5211  -44.7766 N.am      4 UNK        -0.5000 
     55 C          -1.3175  -10.3525  -44.1519 C.2       3 UNK         0.5000 
     56 O          -2.2187   -9.5478  -43.9134 O.2       3 UNK        -0.5000 
     57 CA          0.1281  -10.0245  -43.7406 C.3       3 UNK         0.1400 
     58 CB          0.5644  -10.8769  -42.5378 C.3       3 UNK        -0.1800 
     59 N           1.0619  -10.2296  -44.8476 N.am      3 UNK        -0.5000 
     60 C           1.2102   -9.3835  -45.8769 C.2       2 UNK         0.5000 
     61 O           0.6140   -8.3104  -45.9756 O.2       2 UNK        -0.5000 
     62 CA          2.1863   -9.8139  -46.9872 C.3       2 UNK         0.1400 
     63 CB          3.6216   -9.3853  -46.6455 C.3       2 UNK        -0.1800 
     64 N           2.1601  -11.2567  -47.2327 N.am      2 UNK        -0.5000 
     65 C           1.1498  -11.9095  -47.8264 C.2       1 UNK         0.5000 
     66 O           0.1302  -11.3470  -48.2290 O.2       1 UNK        -0.5000 
     67 C           3.4357  -23.9802  -45.6591 C.2       11 UNK         0.5000 
     68 O           4.2478  -24.6878  -46.2563 O.2       11 UNK        -0.5000 
     69 N           2.2944  -24.4458  -45.1260 N.am      12 UNK        -0.5000 
     70 CA          1.7858  -25.8200  -45.1507 C.3       12 UNK         0.1400 
     71 CB          2.7062  -26.7642  -44.3494 C.3       12 UNK        -0.1800 
     72 C           1.4889  -26.3219  -46.5778 C.2       12 UNK         0.5000 
     73 O           1.6895  -27.5012  -46.8739 O.2       12 UNK        -0.5000 
     74 N           1.0069  -25.4151  -47.4404 N.am      13 UNK        -0.5000 
     75 CA          0.6732  -25.7078  -48.8354 C.3       13 UNK         0.1400 
     76 CB          0.6143  -24.3882  -49.6151 C.3       13 UNK        -0.1800 
     77 C          -0.6492  -26.4819  -48.9951 C.2       13 UNK         0.5000 
     78 O          -0.8547  -27.1055  -50.0369 O.2       13 UNK        -0.5000 
     79 N          -1.5177  -26.4139  -47.9720 N.am      14 UNK        -0.5000 
     80 CA         -2.8569  -27.0139  -47.9013 C.3       14 UNK         0.1400 
     81 CB         -2.7677  -28.5542  -47.8699 C.3       14 UNK        -0.1800 
     82 C          -3.8055  -26.4807  -48.9975 C.2       14 UNK         0.5000 
     83 O          -4.5950  -27.2381  -49.5659 O.2       14 UNK        -0.5000 
     84 N          -3.6882  -25.1768  -49.2823 N.am      15 UNK        -0.5000 
     85 CA         -4.4812  -24.4506  -50.2705 C.3       15 UNK         0.1400 
     86 CB         -3.8843  -23.0470  -50.4373 C.3       15 UNK        -0.1800 
     87 C          -5.9658  -24.3569  -49.8750 C.2       15 UNK         0.5000 
     88 O          -6.2801  -24.2593  -48.6847 O.2       15 UNK        -0.5000 
     89 N          -6.8444  -24.3567  -50.8866 N.am      16 UNK        -0.5000 
     90 CA         -8.2986  -24.2537  -50.7515 C.3       16 UNK         0.1400 
     91 CB         -8.9404  -24.3032  -52.1466 C.3       16 UNK        -0.1800 
     92 C          -8.7132  -22.9748  -50.0034 C.2       16 UNK         0.5000 
     93 O          -8.3573  -21.8772  -50.4367 O.2       16 UNK        -0.5000 
     94 N          -9.3994  -23.1532  -48.8654 N.am      17 UNK        -0.5000 
     95 CA         -9.8428  -22.1147  -47.9240 C.3       17 UNK         0.1400 
     96 CB        -10.9456  -21.2477  -48.5672 C.3       17 UNK        -0.1800 
     97 C          -8.6957  -21.2598  -47.3334 C.2       17 UNK         0.5000 
     98 O          -8.9498  -20.1506  -46.8612 O.2       17 UNK        -0.5000 
     99 N          -7.4584  -21.7818  -47.3823 N.am      18 UNK        -0.5000 
    100 CA        -6.1994  -21.1123  -47.0409 C.3       18 UNK         0.1400 
    101 CB        -6.1037  -20.8516  -45.5226 C.3       18 UNK        -0.1800 
    102 C         -5.9333  -19.8493  -47.8908 C.2       18 UNK         0.5000 
    103 O         -5.3612  -18.8838  -47.3878 O.2       18 UNK        -0.5000 
    104 N         -6.3602  -19.8682  -49.1615 N.am      19 UNK        -0.5000 
    105 CA        -6.0827  -18.8162  -50.1389 C.3       19 UNK         0.1400 
    106 CB        -7.0277  -18.9970  -51.3368 C.3       19 UNK        -0.1800 
    107 C         -4.6167  -18.8502  -50.6094 C.2       19 UNK         0.5000 
    108 O         -3.9604  -19.8898  -50.5209 O.2       19 UNK        -0.5000 
    109 N         -4.1423  -17.7352  -51.1787 N.am      20 UNK        -0.5000 
    110 CA        -2.8003  -17.5858  -51.7500 C.3       20 UNK         0.1400 
    111 CB        -2.4300  -16.0923  -51.7707 C.3       20 UNK        -0.1800 
    112 C         -2.6897  -18.2503  -53.1418 C.2       20 UNK         0.5000 
    113 O         -2.3063  -17.6029  -54.1184 O.2       20 UNK        -0.5000 
    114 N         -3.0409  -19.5418  -53.2065 N.am      21 UNK        -0.5000 
    115 CA        -3.1551  -20.3617  -54.4183 C.3       21 UNK         0.1400 
    116 CB        -3.7289  -21.7328  -54.0290 C.3       21 UNK        -0.1800 
    117 C         -1.8436  -20.5308  -55.2106 C.2       21 UNK         0.5000 
    118 O         -1.8892  -20.8483  -56.3998 O.2       21 UNK        -0.5000 
    119 N         -0.7078  -20.3015  -54.5434 N.am      22 UNK        -0.5000 
    120 CA         0.6357  -20.2625  -55.1366 C.3       22 UNK         0.1400 
    121 C          0.8961  -19.0156  -56.0353 C.2       22 UNK         0.5000 
    122 N          0.0748  -17.9712  -55.9908 N.am      22 UNK        -0.7600 
    123 O          1.8634  -18.9983  -56.7915 O.2       22 UNK        -0.5000 
    124 C124        1.7421  -20.3832  -54.0575 C.3       23 UNK        -0.0398 
    125 S125        1.5723  -21.8532  -52.9814 S.3       23 UNK        -0.2404 
    126 C126        0.7149  -21.1817  -51.5177 C.3       23 UNK        -0.0205 
    127 H127        5.7541  -13.4634  -48.6788 H         1 UNK         0.0600 
    128 H128        5.2322  -14.8849  -49.5899 H         1 UNK         0.0600 
    129 H129        5.0518  -14.8470  -47.8345 H         1 UNK         0.0600 
    130 H130        2.9633  -14.4869  -47.2112 H         1 UNK         0.3000 
    131 H131        0.8938  -13.8334  -47.0388 H         1 UNK         0.0600 
    132 H132       -0.5863  -13.6531  -49.0658 H         1 UNK         0.0800 
    133 H133        0.8131  -13.7072  -50.0980 H         1 UNK         0.0800 
    134 H134        0.9851  -16.1434  -51.3514 H         1 UNK         0.0800 
    135 H135        2.3521  -15.6906  -50.3688 H         1 UNK         0.0800 
    136 H136        0.2626  -18.4988  -51.4700 H         1 UNK         0.1150 
    137 H137        2.9659  -21.4853  -49.9992 H         1 UNK         0.1150 
    138 H138        3.5806  -17.3539  -49.0198 H         1 UNK         0.1150 
    139 H139        5.1510  -20.6948  -49.0900 H         1 UNK         0.0800 
    140 H140        5.3963  -19.0059  -48.7496 H         1 UNK         0.0800 
    141 H141        2.6446  -21.7412  -47.2726 H         1 UNK         0.0800 
    142 H142        4.2360  -22.3590  -47.6376 H         1 UNK         0.0800 
    143 H143        4.7509  -22.3868  -45.1384 H         1 UNK         0.0600 
    144 H144        2.1844  -21.1356  -44.9297 H         1 UNK         0.3000 
    145 H145        1.5260  -21.9910  -41.5319 H         1 UNK         0.0600 
    146 H146        1.1107  -19.5156  -41.4677 H         1 UNK         0.0600 
    147 H147        2.1850  -19.3048  -42.8507 H         1 UNK         0.0600 
    148 H148        2.8162  -19.9149  -41.3321 H         1 UNK         0.0600 
    149 H149        0.0906  -20.5779  -43.6088 H         1 UNK         0.3000 
    150 H150       -1.5474  -23.4274  -44.9626 H         1 UNK         0.0600 
    151 H151       -2.9349  -23.0477  -42.9564 H         1 UNK         0.0600 
    152 H152       -3.6152  -22.2033  -44.3366 H         1 UNK         0.0600 
    153 H153       -2.7340  -21.3085  -43.0974 H         1 UNK         0.0600 
    154 H154       -1.6846  -20.5159  -45.2276 H         1 UNK         0.3000 
    155 H155        0.6672  -20.3593  -47.8911 H         1 UNK         0.0600 
    156 H156       -1.3773  -21.1450  -49.1061 H         1 UNK         0.0600 
    157 H157       -1.2289  -19.3954  -49.1716 H         1 UNK         0.0600 
    158 H158       -2.3871  -20.1372  -48.0749 H         1 UNK         0.0600 
    159 H159       -1.0896  -18.3855  -46.8685 H         1 UNK         0.3000 
    160 H160        0.4784  -17.7197  -43.7744 H         1 UNK         0.0600 
    161 H161        0.9249  -16.0169  -46.2691 H         1 UNK         0.0600 
    162 H162        2.1811  -16.5718  -45.1732 H         1 UNK         0.0600 
    163 H163        0.9701  -15.4260  -44.6093 H         1 UNK         0.0600 
    164 H164       -1.3612  -16.1465  -45.2473 H         1 UNK         0.3000 
    165 H165       -4.2051  -18.1195  -45.1261 H         1 UNK         0.0600 
    166 H166       -5.3304  -16.5306  -43.5941 H         1 UNK         0.0600 
    167 H167       -4.2825  -17.6001  -42.6780 H         1 UNK         0.0600 
    168 H168       -3.7717  -15.9481  -43.0061 H         1 UNK         0.0600 
    169 H169       -4.1289  -15.3439  -45.3977 H         1 UNK         0.3000 
    170 H170       -2.5205  -14.8397  -48.4333 H         1 UNK         0.0600 
    171 H171       -5.5593  -14.9630  -48.0501 H         1 UNK         0.0600 
    172 H172       -4.6969  -14.0949  -49.3233 H         1 UNK         0.0600 
    173 H173       -4.6649  -15.8493  -49.2729 H         1 UNK         0.0600 
    174 H174       -4.2773  -13.1561  -47.0040 H         1 UNK         0.3000 
    175 H175       -3.2457  -11.3099  -45.8995 H         1 UNK         0.0600 
    176 H176       -3.2137  -13.1628  -43.4292 H         1 UNK         0.0600 
    177 H177       -3.9547  -11.5659  -43.4932 H         1 UNK         0.0600 
    178 H178       -4.6205  -12.8747  -44.4458 H         1 UNK         0.0600 
    179 H179       -0.7091  -12.1257  -44.9575 H         1 UNK         0.3000 
    180 H180        0.1635   -8.9753  -43.4389 H         1 UNK         0.0600 
    181 H181        1.5612  -10.5954  -42.1979 H         1 UNK         0.0600 
    182 H182        0.5799  -11.9411  -42.7762 H         1 UNK         0.0600 
    183 H183       -0.1158  -10.7392  -41.6962 H         1 UNK         0.0600 
    184 H184        1.5975  -11.0846  -44.8453 H         1 UNK         0.3000 
    185 H185        1.8901   -9.3044  -47.9068 H         1 UNK         0.0600 
    186 H186        4.3079   -9.6234  -47.4585 H         1 UNK         0.0600 
    187 H187        3.6778   -8.3087  -46.4790 H         1 UNK         0.0600 
    188 H188        3.9865   -9.8766  -45.7427 H         1 UNK         0.0600 
    189 H189        2.9702  -11.7858  -46.9451 H         1 UNK         0.3000 
    190 H190        1.7013  -23.7831  -44.6454 H         1 UNK         0.3000 
    191 H191        0.8229  -25.7960  -44.6392 H         1 UNK         0.0600 
    192 H192        2.2540  -27.7505  -44.2398 H         1 UNK         0.0600 
    193 H193        2.8869  -26.3783  -43.3460 H         1 UNK         0.0600 
    194 H194        3.6724  -26.9008  -44.8358 H         1 UNK         0.0600 
    195 H195        0.8560  -24.4604  -47.1284 H         1 UNK         0.3000 
    196 H196        1.4704  -26.3196  -49.2631 H         1 UNK         0.0600 
    197 H197        0.4465  -24.5692  -50.6777 H         1 UNK         0.0600 
    198 H198        1.5487  -23.8340  -49.5226 H         1 UNK         0.0600 
    199 H199       -0.1943  -23.7483  -49.2599 H         1 UNK         0.0600 
    200 H200       -1.2381  -25.8683  -47.1699 H         1 UNK         0.3000 
    201 H201       -3.2864  -26.6930  -46.9512 H         1 UNK         0.0600 
    202 H202       -2.4046  -28.9598  -48.8145 H         1 UNK         0.0600 
    203 H203       -3.7452  -28.9982  -47.6784 H         1 UNK         0.0600 
    204 H204       -2.0978  -28.8937  -47.0799 H         1 UNK         0.0600 
    205 H205       -3.0249  -24.6326  -48.7529 H         1 UNK         0.3000 
    206 H206       -4.4025  -24.9805  -51.2221 H         1 UNK         0.0600 
    207 H207       -2.8523  -23.0901  -50.7861 H         1 UNK         0.0600 
    208 H208       -4.4508  -22.4690  -51.1678 H         1 UNK         0.0600 
    209 H209       -3.8990  -22.4882  -49.5005 H         1 UNK         0.0600 
    210 H210       -6.4942  -24.4061  -51.8318 H         1 UNK         0.3000 
    211 H211       -8.6401  -25.1242  -50.1877 H         1 UNK         0.0600 
    212 H212       -8.6033  -23.4774  -52.7747 H         1 UNK         0.0600 
    213 H213      -10.0272  -24.2404  -52.0780 H         1 UNK         0.0600 
    214 H214       -8.7014  -25.2351  -52.6594 H         1 UNK         0.0600 
    215 H215       -9.6055  -24.1011  -48.5811 H         1 UNK         0.3000 
    216 H216      -10.2881  -22.6410  -47.0786 H         1 UNK         0.0600 
    217 H217      -11.3940  -20.5745  -47.8358 H         1 UNK         0.0600 
    218 H218      -11.7484  -21.8651  -48.9702 H         1 UNK         0.0600 
    219 H219      -10.5545  -20.6337  -49.3792 H         1 UNK         0.0600 
    220 H220       -7.3485  -22.7026  -47.7948 H         1 UNK         0.3000 
    221 H221       -5.4063  -21.8150  -47.3005 H         1 UNK         0.0600 
    222 H222       -5.1155  -20.4783  -45.2522 H         1 UNK         0.0600 
    223 H223       -6.8320  -20.1112  -45.1910 H         1 UNK         0.0600 
    224 H224       -6.2704  -21.7663  -44.9539 H         1 UNK         0.0600 
    225 H225       -6.8549  -20.6823  -49.5070 H         1 UNK         0.3000 
    226 H226       -6.2805  -17.8474  -49.6758 H         1 UNK         0.0600 
    227 H227       -8.0713  -18.9802  -51.0216 H         1 UNK         0.0600 
    228 H228       -6.8967  -18.1991  -52.0686 H         1 UNK         0.0600 
    229 H229       -6.8494  -19.9441  -51.8483 H         1 UNK         0.0600 
    230 H230       -4.7565  -16.9410  -51.2815 H         1 UNK         0.3000 
    231 H231       -2.0868  -18.0888  -51.0947 H         1 UNK         0.0600 
    232 H232       -1.4235  -15.9431  -52.1630 H         1 UNK         0.0600 
    233 H233       -2.4466  -15.6699  -50.7665 H         1 UNK         0.0600 
    234 H234       -3.1153  -15.5143  -52.3915 H         1 UNK         0.0600 
    235 H235       -3.3449  -19.9725  -52.3371 H         1 UNK         0.3000 
    236 H236       -3.8683  -19.8671  -55.0806 H         1 UNK         0.0600 
    237 H237       -3.0642  -22.2652  -53.3477 H         1 UNK         0.0600 
    238 H238       -4.6999  -21.6311  -53.5438 H         1 UNK         0.0600 
    239 H239       -3.8709  -22.3627  -54.9081 H         1 UNK         0.0600 
    240 H240       -0.7756  -20.0451  -53.5725 H         1 UNK         0.3000 
    241 H241        0.7228  -21.1313  -55.7918 H         1 UNK         0.0600 
    242 H242        0.2575  -17.1761  -56.5821 H         1 UNK         0.3800 
    243 H243       -0.7295  -17.9575  -55.3730 H         1 UNK         0.3800 
    244 H244        1.7845  -19.4782  -53.4528 H         1 UNK         0.0800 
    245 H245        2.7192  -20.4561  -54.5383 H         1 UNK         0.0800 
    246 H246       -0.2653  -20.8016  -51.8061 H         1 UNK         0.0800 
    247 H247        0.5184  -21.9925  -50.8205 H         1 UNK         0.0800 
@<TRIPOS>BOND
     1    1    2 1    
     2    1  127 1    
     3    1  128 1    
     4    1  129 1    
     5    2    3 2    
     6    2    4 am   BACKBONE|DICT|INTERRES
     7    4    5 1    
     8    4  130 1    
     9    5    6 1    
    10    5   65 1    
    11    5  131 1    
    12    6    7 1    
    13    6  132 1    
    14    6  133 1    
    15    7    8 1    
    16    8    9 1    
    17    8  134 1    
    18    8  135 1    
    19    9   10 ar   
    20    9   14 ar   
    21   10   11 ar   
    22   10  136 1    
    23   11   12 ar   
    24   11  126 1    
    25   12   13 ar   
    26   12  137 1    
    27   13   14 ar   
    28   13   15 1    
    29   14  138 1    
    30   15   16 1    
    31   15  139 1    
    32   15  140 1    
    33   16   17 1    
    34   17   18 1    
    35   17  141 1    
    36   17  142 1    
    37   18   19 1    
    38   18   67 1    
    39   18  143 1    
    40   19   20 am   BACKBONE|DICT|INTERRES
    41   19  144 1    
    42   20   21 2    
    43   20   22 1    
    44   22   23 1    
    45   22   24 1    
    46   22  145 1    
    47   23  146 1    
    48   23  147 1    
    49   23  148 1    
    50   24   25 am   BACKBONE|DICT|INTERRES
    51   24  149 1    
    52   25   26 2    
    53   25   27 1    
    54   27   28 1    
    55   27   29 1    
    56   27  150 1    
    57   28  151 1    
    58   28  152 1    
    59   28  153 1    
    60   29   30 am   BACKBONE|DICT|INTERRES
    61   29  154 1    
    62   30   31 2    
    63   30   32 1    
    64   32   33 1    
    65   32   34 1    
    66   32  155 1    
    67   33  156 1    
    68   33  157 1    
    69   33  158 1    
    70   34   35 am   BACKBONE|DICT|INTERRES
    71   34  159 1    
    72   35   36 2    
    73   35   37 1    
    74   37   38 1    
    75   37   39 1    
    76   37  160 1    
    77   38  161 1    
    78   38  162 1    
    79   38  163 1    
    80   39   40 am   BACKBONE|DICT|INTERRES
    81   39  164 1    
    82   40   41 2    
    83   40   42 1    
    84   42   43 1    
    85   42   44 1    
    86   42  165 1    
    87   43  166 1    
    88   43  167 1    
    89   43  168 1    
    90   44   45 am   BACKBONE|DICT|INTERRES
    91   44  169 1    
    92   45   46 2    
    93   45   47 1    
    94   47   48 1    
    95   47   49 1    
    96   47  170 1    
    97   48  171 1    
    98   48  172 1    
    99   48  173 1    
   100   49   50 am   BACKBONE|DICT|INTERRES
   101   49  174 1    
   102   50   51 2    
   103   50   52 1    
   104   52   53 1    
   105   52   54 1    
   106   52  175 1    
   107   53  176 1    
   108   53  177 1    
   109   53  178 1    
   110   54   55 am   BACKBONE|DICT|INTERRES
   111   54  179 1    
   112   55   56 2    
   113   55   57 1    
   114   57   58 1    
   115   57   59 1    
   116   57  180 1    
   117   58  181 1    
   118   58  182 1    
   119   58  183 1    
   120   59   60 am   BACKBONE|DICT|INTERRES
   121   59  184 1    
   122   60   61 2    
   123   60   62 1    
   124   62   63 1    
   125   62   64 1    
   126   62  185 1    
   127   63  186 1    
   128   63  187 1    
   129   63  188 1    
   130   64   65 am   BACKBONE|DICT|INTERRES
   131   64  189 1    
   132   65   66 2    
   133   67   68 2    
   134   67   69 am   BACKBONE|DICT|INTERRES
   135   69   70 1    
   136   69  190 1    
   137   70   71 1    
   138   70   72 1    
   139   70  191 1    
   140   71  192 1    
   141   71  193 1    
   142   71  194 1    
   143   72   73 2    
   144   72   74 am   BACKBONE|DICT|INTERRES
   145   74   75 1    
   146   74  195 1    
   147   75   76 1    
   148   75   77 1    
   149   75  196 1    
   150   76  197 1    
   151   76  198 1    
   152   76  199 1    
   153   77   78 2    
   154   77   79 am   BACKBONE|DICT|INTERRES
   155   79   80 1    
   156   79  200 1    
   157   80   81 1    
   158   80   82 1    
   159   80  201 1    
   160   81  202 1    
   161   81  203 1    
   162   81  204 1    
   163   82   83 2    
   164   82   84 am   BACKBONE|DICT|INTERRES
   165   84   85 1    
   166   84  205 1    
   167   85   86 1    
   168   85   87 1    
   169   85  206 1    
   170   86  207 1    
   171   86  208 1    
   172   86  209 1    
   173   87   88 2    
   174   87   89 am   BACKBONE|DICT|INTERRES
   175   89   90 1    
   176   89  210 1    
   177   90   91 1    
   178   90   92 1    
   179   90  211 1    
   180   91  212 1    
   181   91  213 1    
   182   91  214 1    
   183   92   93 2    
   184   92   94 am   BACKBONE|DICT|INTERRES
   185   94   95 1    
   186   94  215 1    
   187   95   96 1    
   188   95   97 1    
   189   95  216 1    
   190   96  217 1    
   191   96  218 1    
   192   96  219 1    
   193   97   98 2    
   194   97   99 am   BACKBONE|DICT|INTERRES
   195   99  100 1    
   196   99  220 1    
   197  100  101 1    
   198  100  102 1    
   199  100  221 1    
   200  101  222 1    
   201  101  223 1    
   202  101  224 1    
   203  102  103 2    
   204  102  104 am   BACKBONE|DICT|INTERRES
   205  104  105 1    
   206  104  225 1    
   207  105  106 1    
   208  105  107 1    
   209  105  226 1    
   210  106  227 1    
   211  106  228 1    
   212  106  229 1    
   213  107  108 2    
   214  107  109 am   BACKBONE|DICT|INTERRES
   215  109  110 1    
   216  109  230 1    
   217  110  111 1    
   218  110  112 1    
   219  110  231 1    
   220  111  232 1    
   221  111  233 1    
   222  111  234 1    
   223  112  113 2    
   224  112  114 am   BACKBONE|DICT|INTERRES
   225  114  115 1    
   226  114  235 1    
   227  115  116 1    
   228  115  117 1    
   229  115  236 1    
   230  116  237 1    
   231  116  238 1    
   232  116  239 1    
   233  117  118 2    
   234  117  119 am   BACKBONE|DICT|INTERRES
   235  119  120 1    
   236  119  240 1    
   237  120  121 1    
   238  120  124 1    
   239  120  241 1    
   240  121  122 am   BACKBONE|DICT|INTERRES
   241  121  123 2    
   242  122  242 1    
   243  122  243 1    
   244  124  125 1    
   245  124  244 1    
   246  124  245 1    
   247  125  126 1    
   248  126  246 1    
   249  126  247 1    
@<TRIPOS>SUBSTRUCTURE
     1 UNK         1 GROUP             0       ****    0 ROOT    
