@<TRIPOS>MOLECULE
3R540
247   249    1
SMALL
USER_CHARGES


@<TRIPOS>ATOM
      1 CA         -0.6514   -8.9911  -45.7456 C.3       0 UNK        -0.1800 
      2 C           0.3102  -10.1561  -45.9302 C.2       0 UNK         0.5000 
      3 O           0.9053  -10.6155  -44.9549 O.2       0 UNK        -0.5000 
      4 N           0.4628  -10.6329  -47.1740 N.am      1 UNK        -0.5000 
      5 CA          1.3267  -11.7542  -47.5777 C.3       1 UNK         0.1400 
      6 C6          0.8350  -13.1260  -47.0271 C.3       23 UNK        -0.0398 
      7 S7         -0.9030  -13.4878  -47.4468 S.3       23 UNK        -0.2404 
      8 C8         -0.8687  -15.3007  -47.5947 C.3       23 UNK        -0.0205 
      9 C9         -0.3167  -15.7640  -48.9344 C.ar      23 UNK        -0.0193 
     10 C10        -1.0922  -15.6240  -50.0880 C.ar      23 UNK        -0.1150 
     11 C11        -0.6120  -16.0557  -51.3267 C.ar      23 UNK        -0.0193 
     12 C12         0.6530  -16.6440  -51.4032 C.ar      23 UNK        -0.1150 
     13 C13         1.4430  -16.7945  -50.2579 C.ar      23 UNK        -0.0193 
     14 C14         0.9521  -16.3454  -49.0254 C.ar      23 UNK        -0.1150 
     15 C15         2.8365  -17.4090  -50.3820 C.3       23 UNK        -0.0205 
     16 S16         3.2273  -18.6543  -49.1064 S.3       23 UNK        -0.2404 
     17 C17         1.8493  -19.8291  -49.3227 C.3       23 UNK        -0.0398 
     18 CA          2.1615  -21.2537  -48.8010 C.3       11 UNK         0.1400 
     19 N           2.4701  -21.2576  -47.3658 N.am      11 UNK        -0.5000 
     20 C           3.1176  -22.2341  -46.7182 C.2       10 UNK         0.5000 
     21 O           3.5509  -23.2475  -47.2676 O.2       10 UNK        -0.5000 
     22 CA          3.2921  -22.0596  -45.1974 C.3       10 UNK         0.1400 
     23 CB          4.4519  -21.1001  -44.8909 C.3       10 UNK        -0.1800 
     24 N           2.0782  -21.5937  -44.5203 N.am      10 UNK        -0.5000 
     25 C           0.9465  -22.3047  -44.4062 C.2       9 UNK         0.5000 
     26 O           0.7926  -23.4271  -44.8874 O.2       9 UNK        -0.5000 
     27 CA         -0.2203  -21.6451  -43.6467 C.3       9 UNK         0.1400 
     28 CB         -0.0038  -21.7221  -42.1281 C.3       9 UNK        -0.1800 
     29 N          -0.4226  -20.2532  -44.0402 N.am      9 UNK        -0.5000 
     30 C          -0.8524  -19.8677  -45.2482 C.2       8 UNK         0.5000 
     31 O          -1.2201  -20.6497  -46.1243 O.2       8 UNK        -0.5000 
     32 CA         -0.8304  -18.3587  -45.5475 C.3       8 UNK         0.1400 
     33 CB         -2.1227  -17.6892  -45.0595 C.3       8 UNK        -0.1800 
     34 N           0.3375  -17.6809  -44.9805 N.am      8 UNK        -0.5000 
     35 C           1.6024  -17.9737  -45.3141 C.2       7 UNK         0.5000 
     36 O           1.9031  -18.8369  -46.1323 O.2       7 UNK        -0.5000 
     37 CA          2.7217  -17.2224  -44.5811 C.3       7 UNK         0.1400 
     38 CB          2.9804  -15.8565  -45.2245 C.3       7 UNK        -0.1800 
     39 N           2.4313  -17.0695  -43.1577 N.am      7 UNK        -0.5000 
     40 C           2.4179  -18.0917  -42.2905 C.2       6 UNK         0.5000 
     41 O           2.7261  -19.2468  -42.5863 O.2       6 UNK        -0.5000 
     42 CA          1.9090  -17.7777  -40.8741 C.3       6 UNK         0.1400 
     43 CB          3.0244  -17.1741  -40.0076 C.3       6 UNK        -0.1800 
     44 N           0.7527  -16.8792  -40.9037 N.am      6 UNK        -0.5000 
     45 C          -0.4544  -17.2406  -41.3640 C.2       5 UNK         0.5000 
     46 O          -0.7139  -18.3727  -41.7717 O.2       5 UNK        -0.5000 
     47 CA         -1.5512  -16.1605  -41.4081 C.3       5 UNK         0.1400 
     48 CB         -2.3633  -16.1697  -40.1047 C.3       5 UNK        -0.1800 
     49 N          -1.0509  -14.8073  -41.6512 N.am      5 UNK        -0.5000 
     50 C          -0.4051  -14.3989  -42.7522 C.2       4 UNK         0.5000 
     51 O          -0.1222  -15.1445  -43.6916 O.2       4 UNK        -0.5000 
     52 CA          0.0093  -12.9119  -42.8156 C.3       4 UNK         0.1400 
     53 CB         -0.4120  -12.0843  -41.5808 C.3       4 UNK        -0.1800 
     54 N           1.4418  -12.7152  -43.0700 N.am      4 UNK        -0.5000 
     55 C           2.4636  -13.2749  -42.4043 C.2       3 UNK         0.5000 
     56 O           2.3132  -14.1199  -41.5198 O.2       3 UNK        -0.5000 
     57 CA          3.8846  -12.8381  -42.8122 C.3       3 UNK         0.1400 
     58 CB          4.9696  -13.7691  -42.2235 C.3       3 UNK        -0.1800 
     59 N           3.9996  -12.7699  -44.2699 N.am      3 UNK        -0.5000 
     60 C           5.0025  -12.2029  -44.9562 C.2       2 UNK         0.5000 
     61 O           5.9238  -11.5767  -44.4317 O.2       2 UNK        -0.5000 
     62 CA          4.9828  -12.3731  -46.4897 C.3       2 UNK         0.1400 
     63 CB          5.8013  -13.6054  -46.9064 C.3       2 UNK        -0.1800 
     64 N           3.6208  -12.5032  -47.0125 N.am      2 UNK        -0.5000 
     65 C           2.8153  -11.4589  -47.2511 C.2       1 UNK         0.5000 
     66 O           3.2129  -10.2906  -47.2199 O.2       1 UNK        -0.5000 
     67 C           0.9879  -22.1952  -49.1496 C.2       11 UNK         0.5000 
     68 O           0.7963  -22.5041  -50.3257 O.2       11 UNK        -0.5000 
     69 N           0.2066  -22.5984  -48.1363 N.am      12 UNK        -0.5000 
     70 CA         -1.0501  -23.3498  -48.2161 C.3       12 UNK         0.1400 
     71 CB         -0.8580  -24.7262  -48.8848 C.3       12 UNK        -0.1800 
     72 C          -2.2034  -22.5353  -48.8383 C.2       12 UNK         0.5000 
     73 O          -3.2016  -23.1101  -49.2666 O.2       12 UNK        -0.5000 
     74 N          -2.0909  -21.2005  -48.8145 N.am      13 UNK        -0.5000 
     75 CA         -3.1495  -20.2677  -49.2021 C.3       13 UNK         0.1400 
     76 CB         -2.5640  -18.8528  -49.3179 C.3       13 UNK        -0.1800 
     77 C          -4.3387  -20.2922  -48.2193 C.2       13 UNK         0.5000 
     78 O          -5.4548  -19.9493  -48.6059 O.2       13 UNK        -0.5000 
     79 N          -4.0807  -20.7247  -46.9768 N.am      14 UNK        -0.5000 
     80 CA         -5.0816  -20.9710  -45.9399 C.3       14 UNK         0.1400 
     81 CB         -4.3803  -20.9459  -44.5713 C.3       14 UNK        -0.1800 
     82 C          -5.8515  -22.2982  -46.1216 C.2       14 UNK         0.5000 
     83 O          -6.8508  -22.5012  -45.4298 O.2       14 UNK        -0.5000 
     84 N          -5.3789  -23.1904  -47.0061 N.am      15 UNK        -0.5000 
     85 CA         -6.0028  -24.4858  -47.2876 C.3       15 UNK         0.1400 
     86 CB         -4.9636  -25.4141  -47.9407 C.3       15 UNK        -0.1800 
     87 C          -7.2496  -24.3507  -48.1837 C.2       15 UNK         0.5000 
     88 O          -7.5347  -23.2691  -48.7062 O.2       15 UNK        -0.5000 
     89 N          -7.9586  -25.4733  -48.3698 N.am      16 UNK        -0.5000 
     90 CA         -9.1160  -25.6083  -49.2574 C.3       16 UNK         0.1400 
     91 CB         -9.6313  -27.0543  -49.2025 C.3       16 UNK        -0.1800 
     92 C          -8.7738  -25.2055  -50.7041 C.2       16 UNK         0.5000 
     93 O          -7.7871  -25.6994  -51.2568 O.2       16 UNK        -0.5000 
     94 N          -9.5575  -24.2666  -51.2539 N.am      17 UNK        -0.5000 
     95 CA         -9.3801  -23.6202  -52.5623 C.3       17 UNK         0.1400 
     96 CB         -9.6382  -24.6309  -53.7000 C.3       17 UNK        -0.1800 
     97 C          -8.0222  -22.8969  -52.7225 C.2       17 UNK         0.5000 
     98 O          -7.5510  -22.7307  -53.8485 O.2       17 UNK        -0.5000 
     99 N          -7.3893  -22.5244  -51.5971 N.am      18 UNK        -0.5000 
    100 CA        -6.0360  -21.9677  -51.4846 C.3       18 UNK         0.1400 
    101 CB        -5.9978  -20.5415  -52.0709 C.3       18 UNK        -0.1800 
    102 C         -4.9576  -22.8989  -52.0829 C.2       18 UNK         0.5000 
    103 O         -3.9753  -22.4223  -52.6567 O.2       18 UNK        -0.5000 
    104 N         -5.2030  -24.2174  -52.0055 N.am      19 UNK        -0.5000 
    105 CA        -4.4314  -25.3036  -52.6207 C.3       19 UNK         0.1400 
    106 CB        -3.0200  -25.3887  -52.0036 C.3       19 UNK        -0.1800 
    107 C         -4.4008  -25.2478  -54.1667 C.2       19 UNK         0.5000 
    108 O         -3.5472  -25.8894  -54.7801 O.2       19 UNK        -0.5000 
    109 N         -5.3239  -24.4774  -54.7667 N.am      20 UNK        -0.5000 
    110 CA        -5.4903  -24.1994  -56.1974 C.3       20 UNK         0.1400 
    111 CB        -5.8574  -25.4862  -56.9651 C.3       20 UNK        -0.1800 
    112 C         -4.3100  -23.4390  -56.8443 C.2       20 UNK         0.5000 
    113 O         -4.2244  -23.3967  -58.0732 O.2       20 UNK        -0.5000 
    114 N         -3.4278  -22.8458  -56.0278 N.am      21 UNK        -0.5000 
    115 CA        -2.2047  -22.1748  -56.4787 C.3       21 UNK         0.1400 
    116 CB        -1.0731  -23.2152  -56.5812 C.3       21 UNK        -0.1800 
    117 C         -1.7907  -20.9879  -55.5878 C.2       21 UNK         0.5000 
    118 O         -0.7604  -20.3713  -55.8632 O.2       21 UNK        -0.5000 
    119 N         -2.5723  -20.6847  -54.5425 N.am      22 UNK        -0.5000 
    120 CA        -2.2184  -19.7584  -53.4554 C.3       22 UNK         0.1400 
    121 C         -1.0713  -20.3259  -52.5723 C.2       22 UNK         0.5000 
    122 N         -1.2196  -21.5521  -52.0894 N.am      22 UNK        -0.7600 
    123 O         -0.0498  -19.6874  -52.3447 O.2       22 UNK        -0.5000 
    124 C124       -2.0214  -18.2871  -53.9252 C.3       23 UNK        -0.0398 
    125 S125       -2.7609  -17.0881  -52.7621 S.3       23 UNK        -0.2404 
    126 C126       -1.4477  -15.8399  -52.5802 C.3       23 UNK        -0.0205 
    127 H127       -1.1119   -8.6917  -46.6873 H         1 UNK         0.0600 
    128 H128       -0.1226   -8.1307  -45.3357 H         1 UNK         0.0600 
    129 H129       -1.4448   -9.2679  -45.0513 H         1 UNK         0.0600 
    130 H130       -0.0405  -10.1903  -47.9294 H         1 UNK         0.3000 
    131 H131        1.2702  -11.7989  -48.6663 H         1 UNK         0.0600 
    132 H132        0.9302  -13.1690  -45.9416 H         1 UNK         0.0800 
    133 H133        1.4454  -13.9353  -47.4274 H         1 UNK         0.0800 
    134 H134       -0.2893  -15.7121  -46.7690 H         1 UNK         0.0800 
    135 H135       -1.8843  -15.6817  -47.4797 H         1 UNK         0.0800 
    136 H136       -2.0710  -15.1698  -50.0222 H         1 UNK         0.1150 
    137 H137        1.0248  -16.9806  -52.3607 H         1 UNK         0.1150 
    138 H138        1.5563  -16.4583  -48.1370 H         1 UNK         0.1150 
    139 H139        2.9616  -17.8746  -51.3609 H         1 UNK         0.0800 
    140 H140        3.5749  -16.6085  -50.3257 H         1 UNK         0.0800 
    141 H141        0.9684  -19.4189  -48.8252 H         1 UNK         0.0800 
    142 H142        1.6129  -19.8648  -50.3866 H         1 UNK         0.0800 
    143 H143        3.0368  -21.6245  -49.3384 H         1 UNK         0.0600 
    144 H144        2.2045  -20.4171  -46.8515 H         1 UNK         0.3000 
    145 H145        3.5472  -23.0364  -44.7812 H         1 UNK         0.0600 
    146 H146        4.6271  -21.0221  -43.8178 H         1 UNK         0.0600 
    147 H147        4.2565  -20.0978  -45.2721 H         1 UNK         0.0600 
    148 H148        5.3786  -21.4494  -45.3478 H         1 UNK         0.0600 
    149 H149        2.1287  -20.6823  -44.0796 H         1 UNK         0.3000 
    150 H150       -1.1298  -22.1999  -43.8862 H         1 UNK         0.0600 
    151 H151        0.8749  -21.1571  -41.8156 H         1 UNK         0.0600 
    152 H152       -0.8637  -21.3244  -41.5886 H         1 UNK         0.0600 
    153 H153        0.1354  -22.7544  -41.8046 H         1 UNK         0.0600 
    154 H154       -0.2097  -19.5436  -43.3467 H         1 UNK         0.3000 
    155 H155       -0.7681  -18.2385  -46.6297 H         1 UNK         0.0600 
    156 H156       -2.9801  -18.0451  -45.6318 H         1 UNK         0.0600 
    157 H157       -2.0843  -16.6059  -45.1708 H         1 UNK         0.0600 
    158 H158       -2.3168  -17.9104  -44.0105 H         1 UNK         0.0600 
    159 H159        0.1642  -16.9138  -44.3364 H         1 UNK         0.3000 
    160 H160        3.6349  -17.8126  -44.6807 H         1 UNK         0.0600 
    161 H161        2.1395  -15.1779  -45.0872 H         1 UNK         0.0600 
    162 H162        3.1577  -15.9575  -46.2960 H         1 UNK         0.0600 
    163 H163        3.8698  -15.4027  -44.7919 H         1 UNK         0.0600 
    164 H164        2.1200  -16.1619  -42.8386 H         1 UNK         0.3000 
    165 H165        1.5977  -18.7186  -40.4150 H         1 UNK         0.0600 
    166 H166        2.6718  -16.9687  -38.9969 H         1 UNK         0.0600 
    167 H167        3.8656  -17.8633  -39.9248 H         1 UNK         0.0600 
    168 H168        3.4073  -16.2431  -40.4254 H         1 UNK         0.0600 
    169 H169        0.9127  -15.9153  -40.6415 H         1 UNK         0.3000 
    170 H170       -2.2267  -16.4100  -42.2273 H         1 UNK         0.0600 
    171 H171       -2.7745  -17.1608  -39.9078 H         1 UNK         0.0600 
    172 H172       -1.7502  -15.8921  -39.2463 H         1 UNK         0.0600 
    173 H173       -3.2029  -15.4763  -40.1572 H         1 UNK         0.0600 
    174 H174       -1.2199  -14.1303  -40.9218 H         1 UNK         0.3000 
    175 H175       -0.5166  -12.5027  -43.6789 H         1 UNK         0.0600 
    176 H176        0.0795  -12.4289  -40.6700 H         1 UNK         0.0600 
    177 H177       -0.1525  -11.0340  -41.7154 H         1 UNK         0.0600 
    178 H178       -1.4903  -12.1237  -41.4215 H         1 UNK         0.0600 
    179 H179        1.6359  -12.0038  -43.7690 H         1 UNK         0.3000 
    180 H180        4.0314  -11.8348  -42.4079 H         1 UNK         0.0600 
    181 H181        4.9042  -13.8091  -41.1355 H         1 UNK         0.0600 
    182 H182        5.9748  -13.4249  -42.4647 H         1 UNK         0.0600 
    183 H183        4.8672  -14.7890  -42.5954 H         1 UNK         0.0600 
    184 H184        3.2663  -13.2320  -44.7839 H         1 UNK         0.3000 
    185 H185        5.4595  -11.4938  -46.9285 H         1 UNK         0.0600 
    186 H186        6.8296  -13.5275  -46.5510 H         1 UNK         0.0600 
    187 H187        5.3857  -14.5284  -46.5024 H         1 UNK         0.0600 
    188 H188        5.8411  -13.7028  -47.9914 H         1 UNK         0.0600 
    189 H189        3.2740  -13.4417  -47.1364 H         1 UNK         0.3000 
    190 H190        0.4562  -22.2848  -47.2076 H         1 UNK         0.3000 
    191 H191       -1.3444  -23.5319  -47.1815 H         1 UNK         0.0600 
    192 H192       -1.7450  -25.3471  -48.7562 H         1 UNK         0.0600 
    193 H193       -0.0190  -25.2653  -48.4452 H         1 UNK         0.0600 
    194 H194       -0.6790  -24.6378  -49.9565 H         1 UNK         0.0600 
    195 H195       -1.2848  -20.8085  -48.3486 H         1 UNK         0.3000 
    196 H196       -3.5133  -20.5707  -50.1843 H         1 UNK         0.0600 
    197 H197       -3.3035  -18.1591  -49.7197 H         1 UNK         0.0600 
    198 H198       -1.7028  -18.8283  -49.9861 H         1 UNK         0.0600 
    199 H199       -2.2484  -18.4656  -48.3507 H         1 UNK         0.0600 
    200 H200       -3.1177  -20.9373  -46.7372 H         1 UNK         0.3000 
    201 H201       -5.8155  -20.1629  -45.9628 H         1 UNK         0.0600 
    202 H202       -5.0897  -21.1210  -43.7615 H         1 UNK         0.0600 
    203 H203       -3.9129  -19.9803  -44.3827 H         1 UNK         0.0600 
    204 H204       -3.6074  -21.7122  -44.5020 H         1 UNK         0.0600 
    205 H205       -4.5985  -22.9352  -47.5971 H         1 UNK         0.3000 
    206 H206       -6.3119  -24.9314  -46.3397 H         1 UNK         0.0600 
    207 H207       -4.0201  -25.4057  -47.3947 H         1 UNK         0.0600 
    208 H208       -5.3150  -26.4460  -47.9586 H         1 UNK         0.0600 
    209 H209       -4.7594  -25.1282  -48.9728 H         1 UNK         0.0600 
    210 H210       -7.6425  -26.3233  -47.9268 H         1 UNK         0.3000 
    211 H211       -9.8999  -24.9495  -48.8784 H         1 UNK         0.0600 
    212 H212       -8.8742  -27.7644  -49.5380 H         1 UNK         0.0600 
    213 H213      -10.5059  -27.1810  -49.8420 H         1 UNK         0.0600 
    214 H214       -9.9271  -27.3309  -48.1904 H         1 UNK         0.0600 
    215 H215      -10.3249  -23.9078  -50.7023 H         1 UNK         0.3000 
    216 H216      -10.1439  -22.8442  -52.6282 H         1 UNK         0.0600 
    217 H217      -10.5979  -25.1317  -53.5728 H         1 UNK         0.0600 
    218 H218       -8.8632  -25.3968  -53.7451 H         1 UNK         0.0600 
    219 H219       -9.6609  -24.1333  -54.6702 H         1 UNK         0.0600 
    220 H220       -7.8279  -22.7364  -50.7068 H         1 UNK         0.3000 
    221 H221       -5.8211  -21.9032  -50.4182 H         1 UNK         0.0600 
    222 H222       -5.0798  -20.0273  -51.7951 H         1 UNK         0.0600 
    223 H223       -6.0604  -20.5463  -53.1595 H         1 UNK         0.0600 
    224 H224       -6.8217  -19.9384  -51.6897 H         1 UNK         0.0600 
    225 H225       -6.0656  -24.5139  -51.5614 H         1 UNK         0.3000 
    226 H226       -4.9586  -26.2237  -52.3653 H         1 UNK         0.0600 
    227 H227       -3.0718  -25.4365  -50.9164 H         1 UNK         0.0600 
    228 H228       -2.4961  -26.2833  -52.3411 H         1 UNK         0.0600 
    229 H229       -2.4038  -24.5301  -52.2708 H         1 UNK         0.0600 
    230 H230       -5.9768  -23.9756  -54.1736 H         1 UNK         0.3000 
    231 H231       -6.3453  -23.5256  -56.2673 H         1 UNK         0.0600 
    232 H232       -6.1459  -25.2616  -57.9925 H         1 UNK         0.0600 
    233 H233       -6.7004  -25.9961  -56.4986 H         1 UNK         0.0600 
    234 H234       -5.0223  -26.1858  -57.0074 H         1 UNK         0.0600 
    235 H235       -3.5519  -22.9532  -55.0303 H         1 UNK         0.3000 
    236 H236       -2.3714  -21.7495  -57.4705 H         1 UNK         0.0600 
    237 H237       -1.3304  -24.0128  -57.2782 H         1 UNK         0.0600 
    238 H238       -0.1476  -22.7623  -56.9388 H         1 UNK         0.0600 
    239 H239       -0.8648  -23.6720  -55.6128 H         1 UNK         0.0600 
    240 H240       -3.3863  -21.2531  -54.3547 H         1 UNK         0.3000 
    241 H241       -3.0913  -19.7725  -52.8057 H         1 UNK         0.0600 
    242 H242       -2.0793  -22.0643  -52.2540 H         1 UNK         0.3800 
    243 H243       -0.4811  -21.9502  -51.5149 H         1 UNK         0.3800 
    244 H244       -2.5217  -18.1297  -54.8814 H         1 UNK         0.0800 
    245 H245       -0.9702  -18.0612  -54.1095 H         1 UNK         0.0800 
    246 H246       -1.9160  -14.8560  -52.5263 H         1 UNK         0.0800 
    247 H247       -0.8162  -15.8168  -53.4694 H         1 UNK         0.0800 
@<TRIPOS>BOND
     1    1    2 1    
     2    1  127 1    
     3    1  128 1    
     4    1  129 1    
     5    2    3 2    
     6    2    4 am   BACKBONE|DICT|INTERRES
     7    4    5 1    
     8    4  130 1    
     9    5    6 1    
    10    5   65 1    
    11    5  131 1    
    12    6    7 1    
    13    6  132 1    
    14    6  133 1    
    15    7    8 1    
    16    8    9 1    
    17    8  134 1    
    18    8  135 1    
    19    9   10 ar   
    20    9   14 ar   
    21   10   11 ar   
    22   10  136 1    
    23   11   12 ar   
    24   11  126 1    
    25   12   13 ar   
    26   12  137 1    
    27   13   14 ar   
    28   13   15 1    
    29   14  138 1    
    30   15   16 1    
    31   15  139 1    
    32   15  140 1    
    33   16   17 1    
    34   17   18 1    
    35   17  141 1    
    36   17  142 1    
    37   18   19 1    
    38   18   67 1    
    39   18  143 1    
    40   19   20 am   BACKBONE|DICT|INTERRES
    41   19  144 1    
    42   20   21 2    
    43   20   22 1    
    44   22   23 1    
    45   22   24 1    
    46   22  145 1    
    47   23  146 1    
    48   23  147 1    
    49   23  148 1    
    50   24   25 am   BACKBONE|DICT|INTERRES
    51   24  149 1    
    52   25   26 2    
    53   25   27 1    
    54   27   28 1    
    55   27   29 1    
    56   27  150 1    
    57   28  151 1    
    58   28  152 1    
    59   28  153 1    
    60   29   30 am   BACKBONE|DICT|INTERRES
    61   29  154 1    
    62   30   31 2    
    63   30   32 1    
    64   32   33 1    
    65   32   34 1    
    66   32  155 1    
    67   33  156 1    
    68   33  157 1    
    69   33  158 1    
    70   34   35 am   BACKBONE|DICT|INTERRES
    71   34  159 1    
    72   35   36 2    
    73   35   37 1    
    74   37   38 1    
    75   37   39 1    
    76   37  160 1    
    77   38  161 1    
    78   38  162 1    
    79   38  163 1    
    80   39   40 am   BACKBONE|DICT|INTERRES
    81   39  164 1    
    82   40   41 2    
    83   40   42 1    
    84   42   43 1    
    85   42   44 1    
    86   42  165 1    
    87   43  166 1    
    88   43  167 1    
    89   43  168 1    
    90   44   45 am   BACKBONE|DICT|INTERRES
    91   44  169 1    
    92   45   46 2    
    93   45   47 1    
    94   47   48 1    
    95   47   49 1    
    96   47  170 1    
    97   48  171 1    
    98   48  172 1    
    99   48  173 1    
   100   49   50 am   BACKBONE|DICT|INTERRES
   101   49  174 1    
   102   50   51 2    
   103   50   52 1    
   104   52   53 1    
   105   52   54 1    
   106   52  175 1    
   107   53  176 1    
   108   53  177 1    
   109   53  178 1    
   110   54   55 am   BACKBONE|DICT|INTERRES
   111   54  179 1    
   112   55   56 2    
   113   55   57 1    
   114   57   58 1    
   115   57   59 1    
   116   57  180 1    
   117   58  181 1    
   118   58  182 1    
   119   58  183 1    
   120   59   60 am   BACKBONE|DICT|INTERRES
   121   59  184 1    
   122   60   61 2    
   123   60   62 1    
   124   62   63 1    
   125   62   64 1    
   126   62  185 1    
   127   63  186 1    
   128   63  187 1    
   129   63  188 1    
   130   64   65 am   BACKBONE|DICT|INTERRES
   131   64  189 1    
   132   65   66 2    
   133   67   68 2    
   134   67   69 am   BACKBONE|DICT|INTERRES
   135   69   70 1    
   136   69  190 1    
   137   70   71 1    
   138   70   72 1    
   139   70  191 1    
   140   71  192 1    
   141   71  193 1    
   142   71  194 1    
   143   72   73 2    
   144   72   74 am   BACKBONE|DICT|INTERRES
   145   74   75 1    
   146   74  195 1    
   147   75   76 1    
   148   75   77 1    
   149   75  196 1    
   150   76  197 1    
   151   76  198 1    
   152   76  199 1    
   153   77   78 2    
   154   77   79 am   BACKBONE|DICT|INTERRES
   155   79   80 1    
   156   79  200 1    
   157   80   81 1    
   158   80   82 1    
   159   80  201 1    
   160   81  202 1    
   161   81  203 1    
   162   81  204 1    
   163   82   83 2    
   164   82   84 am   BACKBONE|DICT|INTERRES
   165   84   85 1    
   166   84  205 1    
   167   85   86 1    
   168   85   87 1    
   169   85  206 1    
   170   86  207 1    
   171   86  208 1    
   172   86  209 1    
   173   87   88 2    
   174   87   89 am   BACKBONE|DICT|INTERRES
   175   89   90 1    
   176   89  210 1    
   177   90   91 1    
   178   90   92 1    
   179   90  211 1    
   180   91  212 1    
   181   91  213 1    
   182   91  214 1    
   183   92   93 2    
   184   92   94 am   BACKBONE|DICT|INTERRES
   185   94   95 1    
   186   94  215 1    
   187   95   96 1    
   188   95   97 1    
   189   95  216 1    
   190   96  217 1    
   191   96  218 1    
   192   96  219 1    
   193   97   98 2    
   194   97   99 am   BACKBONE|DICT|INTERRES
   195   99  100 1    
   196   99  220 1    
   197  100  101 1    
   198  100  102 1    
   199  100  221 1    
   200  101  222 1    
   201  101  223 1    
   202  101  224 1    
   203  102  103 2    
   204  102  104 am   BACKBONE|DICT|INTERRES
   205  104  105 1    
   206  104  225 1    
   207  105  106 1    
   208  105  107 1    
   209  105  226 1    
   210  106  227 1    
   211  106  228 1    
   212  106  229 1    
   213  107  108 2    
   214  107  109 am   BACKBONE|DICT|INTERRES
   215  109  110 1    
   216  109  230 1    
   217  110  111 1    
   218  110  112 1    
   219  110  231 1    
   220  111  232 1    
   221  111  233 1    
   222  111  234 1    
   223  112  113 2    
   224  112  114 am   BACKBONE|DICT|INTERRES
   225  114  115 1    
   226  114  235 1    
   227  115  116 1    
   228  115  117 1    
   229  115  236 1    
   230  116  237 1    
   231  116  238 1    
   232  116  239 1    
   233  117  118 2    
   234  117  119 am   BACKBONE|DICT|INTERRES
   235  119  120 1    
   236  119  240 1    
   237  120  121 1    
   238  120  124 1    
   239  120  241 1    
   240  121  122 am   BACKBONE|DICT|INTERRES
   241  121  123 2    
   242  122  242 1    
   243  122  243 1    
   244  124  125 1    
   245  124  244 1    
   246  124  245 1    
   247  125  126 1    
   248  126  246 1    
   249  126  247 1    
@<TRIPOS>SUBSTRUCTURE
     1 UNK         1 GROUP             0       ****    0 ROOT    
