@<TRIPOS>MOLECULE
3R540
247   249    1
SMALL
USER_CHARGES


@<TRIPOS>ATOM
      1 CA         -0.0847  -11.9321  -53.6761 C.3       0 UNK        -0.1800 
      2 C          -0.3641  -12.4211  -52.2614 C.2       0 UNK         0.5000 
      3 O          -0.5333  -11.6050  -51.3550 O.2       0 UNK        -0.5000 
      4 N          -0.3893  -13.7441  -52.0678 N.am      1 UNK        -0.5000 
      5 CA         -0.6318  -14.4045  -50.7825 C.3       1 UNK         0.1400 
      6 C6         -0.1302  -15.8685  -50.8301 C.3       23 UNK        -0.0398 
      7 S7          0.3463  -16.5375  -49.1953 S.3       23 UNK        -0.2404 
      8 C8          1.9264  -17.3829  -49.5388 C.3       23 UNK        -0.0205 
      9 C9          1.7670  -18.8250  -50.0158 C.ar      23 UNK        -0.0193 
     10 C10         0.7968  -19.1819  -50.9565 C.ar      23 UNK        -0.1150 
     11 C11         0.6654  -20.4991  -51.4057 C.ar      23 UNK        -0.0193 
     12 C12         1.5281  -21.4733  -50.8916 C.ar      23 UNK        -0.1150 
     13 C13         2.5168  -21.1368  -49.9596 C.ar      23 UNK        -0.0193 
     14 C14         2.6297  -19.8105  -49.5308 C.ar      23 UNK        -0.1150 
     15 C15         3.4945  -22.1939  -49.4563 C.3       23 UNK        -0.0205 
     16 S16         3.6167  -22.2532  -47.6373 S.3       23 UNK        -0.2404 
     17 C17         1.9869  -22.9262  -47.1799 C.3       23 UNK        -0.0398 
     18 CA          2.0738  -23.8893  -45.9701 C.3       11 UNK         0.1400 
     19 N           2.4933  -23.1815  -44.7611 N.am      11 UNK        -0.5000 
     20 C           3.1627  -23.7210  -43.7376 C.2       10 UNK         0.5000 
     21 O           3.5389  -24.8949  -43.7151 O.2       10 UNK        -0.5000 
     22 CA          3.4502  -22.7861  -42.5418 C.3       10 UNK         0.1400 
     23 CB          4.5440  -23.3222  -41.5949 C.3       10 UNK        -0.1800 
     24 N           3.7333  -21.4046  -42.9461 N.am      10 UNK        -0.5000 
     25 C           4.7587  -20.9477  -43.6811 C.2       9 UNK         0.5000 
     26 O           5.6840  -21.6543  -44.0826 O.2       9 UNK        -0.5000 
     27 CA          4.7563  -19.4436  -44.0374 C.3       9 UNK         0.1400 
     28 CB          4.4594  -19.2449  -45.5325 C.3       9 UNK        -0.1800 
     29 N           3.7957  -18.6556  -43.2602 N.am      9 UNK        -0.5000 
     30 C           3.9467  -18.2991  -41.9772 C.2       8 UNK         0.5000 
     31 O           4.9607  -18.5310  -41.3182 O.2       8 UNK        -0.5000 
     32 CA          2.7423  -17.6084  -41.3047 C.3       8 UNK         0.1400 
     33 CB          2.7754  -16.0894  -41.5314 C.3       8 UNK        -0.1800 
     34 N           1.4571  -18.1479  -41.7587 N.am      8 UNK        -0.5000 
     35 C           1.0384  -19.3984  -41.5156 C.2       7 UNK         0.5000 
     36 O           1.6668  -20.2078  -40.8339 O.2       7 UNK        -0.5000 
     37 CA         -0.2694  -19.8443  -42.1890 C.3       7 UNK         0.1400 
     38 CB         -1.4902  -19.3929  -41.3734 C.3       7 UNK        -0.1800 
     39 N          -0.3818  -19.3697  -43.5702 N.am      7 UNK        -0.5000 
     40 C           0.4156  -19.7593  -44.5764 C.2       6 UNK         0.5000 
     41 O           1.2749  -20.6310  -44.4625 O.2       6 UNK        -0.5000 
     42 CA          0.2754  -19.0196  -45.9197 C.3       6 UNK         0.1400 
     43 CB         -0.7842  -19.6757  -46.8079 C.3       6 UNK        -0.1800 
     44 N          -0.0327  -17.6012  -45.7514 N.am      6 UNK        -0.5000 
     45 C           0.7975  -16.7118  -45.1914 C.2       5 UNK         0.5000 
     46 O           1.9403  -16.9850  -44.8261 O.2       5 UNK        -0.5000 
     47 CA          0.2315  -15.3064  -44.9260 C.3       5 UNK         0.1400 
     48 CB          0.3714  -14.3946  -46.1536 C.3       5 UNK        -0.1800 
     49 N          -1.1694  -15.3636  -44.5068 N.am      5 UNK        -0.5000 
     50 C          -1.5699  -15.7540  -43.2894 C.2       4 UNK         0.5000 
     51 O          -0.7904  -16.0523  -42.3842 O.2       4 UNK        -0.5000 
     52 CA         -3.0900  -15.8533  -43.0510 C.3       4 UNK         0.1400 
     53 CB         -3.6547  -14.4945  -42.6113 C.3       4 UNK        -0.1800 
     54 N          -3.8280  -16.3240  -44.2260 N.am      4 UNK        -0.5000 
     55 C          -3.7622  -17.5723  -44.7106 C.2       3 UNK         0.5000 
     56 O          -3.0952  -18.4657  -44.1923 O.2       3 UNK        -0.5000 
     57 CA         -4.5189  -17.8567  -46.0264 C.3       3 UNK         0.1400 
     58 CB         -5.9544  -18.3192  -45.7410 C.3       3 UNK        -0.1800 
     59 N          -4.5454  -16.7272  -46.9666 N.am      3 UNK        -0.5000 
     60 C          -3.4511  -16.1236  -47.4465 C.2       2 UNK         0.5000 
     61 O          -2.3085  -16.4173  -47.0840 O.2       2 UNK        -0.5000 
     62 CA         -3.6474  -14.9965  -48.4712 C.3       2 UNK         0.1400 
     63 CB         -4.1026  -13.6962  -47.7887 C.3       2 UNK        -0.1800 
     64 N          -2.3568  -14.7906  -49.1110 N.am      2 UNK        -0.5000 
     65 C          -2.1135  -14.3245  -50.3361 C.2       1 UNK         0.5000 
     66 O          -2.9894  -13.8866  -51.0857 O.2       1 UNK        -0.5000 
     67 C           0.7071  -24.5610  -45.7367 C.2       11 UNK         0.5000 
     68 O          -0.1115  -24.0481  -44.9705 O.2       11 UNK        -0.5000 
     69 N           0.4387  -25.6506  -46.4732 N.am      12 UNK        -0.5000 
     70 CA         -0.8607  -26.3408  -46.5079 C.3       12 UNK         0.1400 
     71 CB         -0.7317  -27.6206  -47.3461 C.3       12 UNK        -0.1800 
     72 C          -2.0075  -25.4598  -47.0475 C.2       12 UNK         0.5000 
     73 O          -3.1719  -25.6788  -46.7095 O.2       12 UNK        -0.5000 
     74 N          -1.6489  -24.4281  -47.8229 N.am      13 UNK        -0.5000 
     75 CA         -2.5277  -23.3661  -48.3082 C.3       13 UNK         0.1400 
     76 CB         -1.7936  -22.5814  -49.3979 C.3       13 UNK        -0.1800 
     77 C          -3.0944  -22.4459  -47.2047 C.2       13 UNK         0.5000 
     78 O          -3.9468  -21.6102  -47.5000 O.2       13 UNK        -0.5000 
     79 N          -2.6744  -22.6354  -45.9468 N.am      14 UNK        -0.5000 
     80 CA         -3.3684  -22.1124  -44.7708 C.3       14 UNK         0.1400 
     81 CB         -2.5166  -22.4018  -43.5302 C.3       14 UNK        -0.1800 
     82 C          -4.7692  -22.7359  -44.6021 C.2       14 UNK         0.5000 
     83 O          -5.6995  -22.0406  -44.1951 O.2       14 UNK        -0.5000 
     84 N          -4.8896  -24.0298  -44.9351 N.am      15 UNK        -0.5000 
     85 CA         -6.1359  -24.7916  -44.9032 C.3       15 UNK         0.1400 
     86 CB         -5.8474  -26.2126  -44.3941 C.3       15 UNK        -0.1800 
     87 C          -6.7928  -24.8385  -46.2920 C.2       15 UNK         0.5000 
     88 O          -8.0105  -24.6854  -46.3876 O.2       15 UNK        -0.5000 
     89 N          -5.9828  -25.0290  -47.3460 N.am      16 UNK        -0.5000 
     90 CA         -6.4436  -25.1195  -48.7385 C.3       16 UNK         0.1400 
     91 CB         -5.4483  -25.9587  -49.5587 C.3       16 UNK        -0.1800 
     92 C          -6.7445  -23.7538  -49.4006 C.2       16 UNK         0.5000 
     93 O          -7.1765  -23.7341  -50.5531 O.2       16 UNK        -0.5000 
     94 N          -6.5484  -22.6574  -48.6542 N.am      17 UNK        -0.5000 
     95 CA         -6.8852  -21.2653  -48.9612 C.3       17 UNK         0.1400 
     96 CB         -8.4039  -21.0943  -49.1731 C.3       17 UNK        -0.1800 
     97 C          -6.0540  -20.6638  -50.1111 C.2       17 UNK         0.5000 
     98 O          -6.5090  -20.6146  -51.2560 O.2       17 UNK        -0.5000 
     99 N          -4.8530  -20.1841  -49.7625 N.am      18 UNK        -0.5000 
    100 CA        -3.9909  -19.3384  -50.5926 C.3       18 UNK         0.1400 
    101 CB        -2.7206  -18.9810  -49.8055 C.3       18 UNK        -0.1800 
    102 C         -4.6812  -18.0393  -51.0507 C.2       18 UNK         0.5000 
    103 O         -5.5440  -17.5076  -50.3464 O.2       18 UNK        -0.5000 
    104 N         -4.2469  -17.5364  -52.2065 N.am      19 UNK        -0.5000 
    105 CA        -4.7266  -16.3165  -52.8423 C.3       19 UNK         0.1400 
    106 CB        -5.9774  -16.6382  -53.6834 C.3       19 UNK        -0.1800 
    107 C         -3.5893  -15.7373  -53.6971 C.2       19 UNK         0.5000 
    108 O         -2.4920  -16.2996  -53.7193 O.2       19 UNK        -0.5000 
    109 N         -3.8743  -14.6440  -54.4171 N.am      20 UNK        -0.5000 
    110 CA        -2.9275  -13.9088  -55.2649 C.3       20 UNK         0.1400 
    111 CB        -3.6011  -12.6192  -55.7583 C.3       20 UNK        -0.1800 
    112 C         -2.3347  -14.7077  -56.4471 C.2       20 UNK         0.5000 
    113 O         -1.3670  -14.2532  -57.0583 O.2       20 UNK        -0.5000 
    114 N         -2.9024  -15.8867  -56.7353 N.am      21 UNK        -0.5000 
    115 CA        -2.3676  -16.8850  -57.6621 C.3       21 UNK         0.1400 
    116 CB        -3.4466  -17.9517  -57.9067 C.3       21 UNK        -0.1800 
    117 C         -1.0581  -17.5453  -57.1741 C.2       21 UNK         0.5000 
    118 O         -0.3518  -18.1418  -57.9887 O.2       21 UNK        -0.5000 
    119 N         -0.7514  -17.4310  -55.8768 N.am      22 UNK        -0.5000 
    120 CA         0.4787  -17.9125  -55.2394 C.3       22 UNK         0.1400 
    121 C          1.0572  -16.8688  -54.2415 C.2       22 UNK         0.5000 
    122 N          2.1680  -17.1748  -53.5838 N.am      22 UNK        -0.7600 
    123 O          0.5433  -15.7620  -54.0810 O.2       22 UNK        -0.5000 
    124 C124        0.3204  -19.3493  -54.6639 C.3       23 UNK        -0.0398 
    125 S125       -1.0551  -19.5587  -53.4776 S.3       23 UNK        -0.2404 
    126 C126       -0.4109  -20.9046  -52.4171 C.3       23 UNK        -0.0205 
    127 H127        0.1723  -12.7544  -54.3450 H         1 UNK         0.0600 
    128 H128        0.7482  -11.2290  -53.6727 H         1 UNK         0.0600 
    129 H129       -0.9603  -11.4223  -54.0781 H         1 UNK         0.0600 
    130 H130       -0.2366  -14.3709  -52.8538 H         1 UNK         0.3000 
    131 H131       -0.0422  -13.8672  -50.0361 H         1 UNK         0.0600 
    132 H132       -0.8725  -16.5098  -51.3071 H         1 UNK         0.0800 
    133 H133        0.7557  -15.9234  -51.4595 H         1 UNK         0.0800 
    134 H134        2.5032  -17.3673  -48.6126 H         1 UNK         0.0800 
    135 H135        2.5100  -16.8206  -50.2678 H         1 UNK         0.0800 
    136 H136        0.1370  -18.4285  -51.3450 H         1 UNK         0.1150 
    137 H137        1.4369  -22.4961  -51.2294 H         1 UNK         0.1150 
    138 H138        3.3991  -19.5461  -48.8189 H         1 UNK         0.1150 
    139 H139        3.2310  -23.1839  -49.8314 H         1 UNK         0.0800 
    140 H140        4.4815  -21.9678  -49.8615 H         1 UNK         0.0800 
    141 H141        1.5694  -23.4361  -48.0496 H         1 UNK         0.0800 
    142 H142        1.3215  -22.0894  -46.9651 H         1 UNK         0.0800 
    143 H143        2.8023  -24.6701  -46.1993 H         1 UNK         0.0600 
    144 H144        2.1576  -22.2247  -44.6690 H         1 UNK         0.3000 
    145 H145        2.5211  -22.7421  -41.9719 H         1 UNK         0.0600 
    146 H146        4.7096  -22.6411  -40.7601 H         1 UNK         0.0600 
    147 H147        4.2572  -24.2863  -41.1737 H         1 UNK         0.0600 
    148 H148        5.4951  -23.4614  -42.1093 H         1 UNK         0.0600 
    149 H149        3.0179  -20.7351  -42.6961 H         1 UNK         0.3000 
    150 H150        5.7582  -19.0589  -43.8366 H         1 UNK         0.0600 
    151 H151        5.1979  -19.7574  -46.1501 H         1 UNK         0.0600 
    152 H152        4.4815  -18.1898  -45.8056 H         1 UNK         0.0600 
    153 H153        3.4804  -19.6404  -45.8021 H         1 UNK         0.0600 
    154 H154        2.9611  -18.3485  -43.7498 H         1 UNK         0.3000 
    155 H155        2.8169  -17.7884  -40.2302 H         1 UNK         0.0600 
    156 H156        3.6954  -15.6580  -41.1353 H         1 UNK         0.0600 
    157 H157        1.9420  -15.5973  -41.0296 H         1 UNK         0.0600 
    158 H158        2.7254  -15.8348  -42.5896 H         1 UNK         0.0600 
    159 H159        0.8634  -17.5296  -42.2982 H         1 UNK         0.3000 
    160 H160       -0.2585  -20.9347  -42.2034 H         1 UNK         0.0600 
    161 H161       -1.5380  -18.3089  -41.2795 H         1 UNK         0.0600 
    162 H162       -1.4570  -19.8061  -40.3647 H         1 UNK         0.0600 
    163 H163       -2.4206  -19.7272  -41.8310 H         1 UNK         0.0600 
    164 H164       -1.1313  -18.7157  -43.7683 H         1 UNK         0.3000 
    165 H165        1.2329  -19.0934  -46.4391 H         1 UNK         0.0600 
    166 H166       -0.7730  -19.2302  -47.8012 H         1 UNK         0.0600 
    167 H167       -0.5898  -20.7405  -46.9254 H         1 UNK         0.0600 
    168 H168       -1.7860  -19.5673  -46.3943 H         1 UNK         0.0600 
    169 H169       -0.9350  -17.2787  -46.0900 H         1 UNK         0.3000 
    170 H170        0.8193  -14.8650  -44.1183 H         1 UNK         0.0600 
    171 H171        1.3985  -14.3862  -46.5208 H         1 UNK         0.0600 
    172 H172       -0.2677  -14.7168  -46.9732 H         1 UNK         0.0600 
    173 H173        0.1036  -13.3666  -45.9097 H         1 UNK         0.0600 
    174 H174       -1.8631  -15.2221  -45.2273 H         1 UNK         0.3000 
    175 H175       -3.2511  -16.5668  -42.2399 H         1 UNK         0.0600 
    176 H176       -3.1379  -14.1260  -41.7240 H         1 UNK         0.0600 
    177 H177       -3.5458  -13.7403  -43.3917 H         1 UNK         0.0600 
    178 H178       -4.7132  -14.5696  -42.3614 H         1 UNK         0.0600 
    179 H179       -4.3955  -15.6470  -44.7139 H         1 UNK         0.3000 
    180 H180       -4.0007  -18.6786  -46.5239 H         1 UNK         0.0600 
    181 H181       -5.9593  -19.1902  -45.0836 H         1 UNK         0.0600 
    182 H182       -6.5410  -17.5372  -45.2575 H         1 UNK         0.0600 
    183 H183       -6.4666  -18.6052  -46.6596 H         1 UNK         0.0600 
    184 H184       -5.4529  -16.4435  -47.3072 H         1 UNK         0.3000 
    185 H185       -4.3819  -15.3127  -49.2138 H         1 UNK         0.0600 
    186 H186       -5.0688  -13.8256  -47.3000 H         1 UNK         0.0600 
    187 H187       -3.3893  -13.3691  -47.0309 H         1 UNK         0.0600 
    188 H188       -4.2123  -12.8893  -48.5135 H         1 UNK         0.0600 
    189 H189       -1.5964  -15.2214  -48.5942 H         1 UNK         0.3000 
    190 H190        1.1566  -26.0255  -47.0773 H         1 UNK         0.3000 
    191 H191       -1.1205  -26.6223  -45.4854 H         1 UNK         0.0600 
    192 H192       -0.4521  -27.4009  -48.3773 H         1 UNK         0.0600 
    193 H193       -1.6752  -28.1677  -47.3713 H         1 UNK         0.0600 
    194 H194        0.0195  -28.2916  -46.9291 H         1 UNK         0.0600 
    195 H195       -0.6730  -24.3401  -48.0586 H         1 UNK         0.3000 
    196 H196       -3.3894  -23.8379  -48.7744 H         1 UNK         0.0600 
    197 H197       -2.5025  -21.9647  -49.9475 H         1 UNK         0.0600 
    198 H198       -1.3300  -23.2479  -50.1256 H         1 UNK         0.0600 
    199 H199       -1.0151  -21.9365  -48.9895 H         1 UNK         0.0600 
    200 H200       -1.9205  -23.2882  -45.7663 H         1 UNK         0.3000 
    201 H201       -3.4766  -21.0322  -44.8831 H         1 UNK         0.0600 
    202 H202       -2.9329  -21.9196  -42.6458 H         1 UNK         0.0600 
    203 H203       -2.4499  -23.4709  -43.3243 H         1 UNK         0.0600 
    204 H204       -1.5026  -22.0347  -43.6703 H         1 UNK         0.0600 
    205 H205       -4.0806  -24.5186  -45.3006 H         1 UNK         0.3000 
    206 H206       -6.8411  -24.3251  -44.2119 H         1 UNK         0.0600 
    207 H207       -5.4241  -26.1910  -43.3898 H         1 UNK         0.0600 
    208 H208       -6.7629  -26.8038  -44.3484 H         1 UNK         0.0600 
    209 H209       -5.1465  -26.7420  -45.0406 H         1 UNK         0.0600 
    210 H210       -4.9961  -25.2011  -47.1779 H         1 UNK         0.3000 
    211 H211       -7.3887  -25.6669  -48.7407 H         1 UNK         0.0600 
    212 H212       -5.8279  -26.1367  -50.5655 H         1 UNK         0.0600 
    213 H213       -5.2872  -26.9345  -49.1001 H         1 UNK         0.0600 
    214 H214       -4.4791  -25.4775  -49.6621 H         1 UNK         0.0600 
    215 H215       -6.1335  -22.7967  -47.7442 H         1 UNK         0.3000 
    216 H216       -6.6336  -20.6991  -48.0630 H         1 UNK         0.0600 
    217 H217       -8.6583  -20.0428  -49.3115 H         1 UNK         0.0600 
    218 H218       -8.9644  -21.4539  -48.3101 H         1 UNK         0.0600 
    219 H219       -8.7605  -21.6321  -50.0519 H         1 UNK         0.0600 
    220 H220       -4.5279  -20.3728  -48.8189 H         1 UNK         0.3000 
    221 H221       -3.7099  -19.9112  -51.4787 H         1 UNK         0.0600 
    222 H222       -2.9569  -18.6183  -48.8067 H         1 UNK         0.0600 
    223 H223       -2.0545  -19.8316  -49.7002 H         1 UNK         0.0600 
    224 H224       -2.1459  -18.2027  -50.3061 H         1 UNK         0.0600 
    225 H225       -3.4578  -17.9599  -52.6807 H         1 UNK         0.3000 
    226 H226       -4.9762  -15.5783  -52.0775 H         1 UNK         0.0600 
    227 H227       -5.7486  -17.3344  -54.4914 H         1 UNK         0.0600 
    228 H228       -6.7592  -17.0874  -53.0705 H         1 UNK         0.0600 
    229 H229       -6.4023  -15.7393  -54.1306 H         1 UNK         0.0600 
    230 H230       -4.8010  -14.2492  -54.3486 H         1 UNK         0.3000 
    231 H231       -2.0866  -13.6328  -54.6295 H         1 UNK         0.0600 
    232 H232       -3.9235  -11.9978  -54.9225 H         1 UNK         0.0600 
    233 H233       -4.4737  -12.8339  -56.3764 H         1 UNK         0.0600 
    234 H234       -2.9131  -12.0207  -56.3570 H         1 UNK         0.0600 
    235 H235       -3.6940  -16.1713  -56.1789 H         1 UNK         0.3000 
    236 H236       -2.1515  -16.3886  -58.6102 H         1 UNK         0.0600 
    237 H237       -4.3553  -17.5088  -58.3147 H         1 UNK         0.0600 
    238 H238       -3.1021  -18.6999  -58.6218 H         1 UNK         0.0600 
    239 H239       -3.7099  -18.4744  -56.9861 H         1 UNK         0.0600 
    240 H240       -1.3635  -16.9096  -55.2552 H         1 UNK         0.3000 
    241 H241        1.2460  -17.9655  -56.0138 H         1 UNK         0.0600 
    242 H242        2.6324  -18.0603  -53.7033 H         1 UNK         0.3800 
    243 H243        2.5719  -16.4872  -52.9700 H         1 UNK         0.3800 
    244 H244        0.1443  -20.0424  -55.4874 H         1 UNK         0.0800 
    245 H245        1.2504  -19.6829  -54.2027 H         1 UNK         0.0800 
    246 H246       -1.2527  -21.3234  -51.8686 H         1 UNK         0.0800 
    247 H247       -0.0362  -21.7038  -53.0584 H         1 UNK         0.0800 
@<TRIPOS>BOND
     1    1    2 1    
     2    1  127 1    
     3    1  128 1    
     4    1  129 1    
     5    2    3 2    
     6    2    4 am   BACKBONE|DICT|INTERRES
     7    4    5 1    
     8    4  130 1    
     9    5    6 1    
    10    5   65 1    
    11    5  131 1    
    12    6    7 1    
    13    6  132 1    
    14    6  133 1    
    15    7    8 1    
    16    8    9 1    
    17    8  134 1    
    18    8  135 1    
    19    9   10 ar   
    20    9   14 ar   
    21   10   11 ar   
    22   10  136 1    
    23   11   12 ar   
    24   11  126 1    
    25   12   13 ar   
    26   12  137 1    
    27   13   14 ar   
    28   13   15 1    
    29   14  138 1    
    30   15   16 1    
    31   15  139 1    
    32   15  140 1    
    33   16   17 1    
    34   17   18 1    
    35   17  141 1    
    36   17  142 1    
    37   18   19 1    
    38   18   67 1    
    39   18  143 1    
    40   19   20 am   BACKBONE|DICT|INTERRES
    41   19  144 1    
    42   20   21 2    
    43   20   22 1    
    44   22   23 1    
    45   22   24 1    
    46   22  145 1    
    47   23  146 1    
    48   23  147 1    
    49   23  148 1    
    50   24   25 am   BACKBONE|DICT|INTERRES
    51   24  149 1    
    52   25   26 2    
    53   25   27 1    
    54   27   28 1    
    55   27   29 1    
    56   27  150 1    
    57   28  151 1    
    58   28  152 1    
    59   28  153 1    
    60   29   30 am   BACKBONE|DICT|INTERRES
    61   29  154 1    
    62   30   31 2    
    63   30   32 1    
    64   32   33 1    
    65   32   34 1    
    66   32  155 1    
    67   33  156 1    
    68   33  157 1    
    69   33  158 1    
    70   34   35 am   BACKBONE|DICT|INTERRES
    71   34  159 1    
    72   35   36 2    
    73   35   37 1    
    74   37   38 1    
    75   37   39 1    
    76   37  160 1    
    77   38  161 1    
    78   38  162 1    
    79   38  163 1    
    80   39   40 am   BACKBONE|DICT|INTERRES
    81   39  164 1    
    82   40   41 2    
    83   40   42 1    
    84   42   43 1    
    85   42   44 1    
    86   42  165 1    
    87   43  166 1    
    88   43  167 1    
    89   43  168 1    
    90   44   45 am   BACKBONE|DICT|INTERRES
    91   44  169 1    
    92   45   46 2    
    93   45   47 1    
    94   47   48 1    
    95   47   49 1    
    96   47  170 1    
    97   48  171 1    
    98   48  172 1    
    99   48  173 1    
   100   49   50 am   BACKBONE|DICT|INTERRES
   101   49  174 1    
   102   50   51 2    
   103   50   52 1    
   104   52   53 1    
   105   52   54 1    
   106   52  175 1    
   107   53  176 1    
   108   53  177 1    
   109   53  178 1    
   110   54   55 am   BACKBONE|DICT|INTERRES
   111   54  179 1    
   112   55   56 2    
   113   55   57 1    
   114   57   58 1    
   115   57   59 1    
   116   57  180 1    
   117   58  181 1    
   118   58  182 1    
   119   58  183 1    
   120   59   60 am   BACKBONE|DICT|INTERRES
   121   59  184 1    
   122   60   61 2    
   123   60   62 1    
   124   62   63 1    
   125   62   64 1    
   126   62  185 1    
   127   63  186 1    
   128   63  187 1    
   129   63  188 1    
   130   64   65 am   BACKBONE|DICT|INTERRES
   131   64  189 1    
   132   65   66 2    
   133   67   68 2    
   134   67   69 am   BACKBONE|DICT|INTERRES
   135   69   70 1    
   136   69  190 1    
   137   70   71 1    
   138   70   72 1    
   139   70  191 1    
   140   71  192 1    
   141   71  193 1    
   142   71  194 1    
   143   72   73 2    
   144   72   74 am   BACKBONE|DICT|INTERRES
   145   74   75 1    
   146   74  195 1    
   147   75   76 1    
   148   75   77 1    
   149   75  196 1    
   150   76  197 1    
   151   76  198 1    
   152   76  199 1    
   153   77   78 2    
   154   77   79 am   BACKBONE|DICT|INTERRES
   155   79   80 1    
   156   79  200 1    
   157   80   81 1    
   158   80   82 1    
   159   80  201 1    
   160   81  202 1    
   161   81  203 1    
   162   81  204 1    
   163   82   83 2    
   164   82   84 am   BACKBONE|DICT|INTERRES
   165   84   85 1    
   166   84  205 1    
   167   85   86 1    
   168   85   87 1    
   169   85  206 1    
   170   86  207 1    
   171   86  208 1    
   172   86  209 1    
   173   87   88 2    
   174   87   89 am   BACKBONE|DICT|INTERRES
   175   89   90 1    
   176   89  210 1    
   177   90   91 1    
   178   90   92 1    
   179   90  211 1    
   180   91  212 1    
   181   91  213 1    
   182   91  214 1    
   183   92   93 2    
   184   92   94 am   BACKBONE|DICT|INTERRES
   185   94   95 1    
   186   94  215 1    
   187   95   96 1    
   188   95   97 1    
   189   95  216 1    
   190   96  217 1    
   191   96  218 1    
   192   96  219 1    
   193   97   98 2    
   194   97   99 am   BACKBONE|DICT|INTERRES
   195   99  100 1    
   196   99  220 1    
   197  100  101 1    
   198  100  102 1    
   199  100  221 1    
   200  101  222 1    
   201  101  223 1    
   202  101  224 1    
   203  102  103 2    
   204  102  104 am   BACKBONE|DICT|INTERRES
   205  104  105 1    
   206  104  225 1    
   207  105  106 1    
   208  105  107 1    
   209  105  226 1    
   210  106  227 1    
   211  106  228 1    
   212  106  229 1    
   213  107  108 2    
   214  107  109 am   BACKBONE|DICT|INTERRES
   215  109  110 1    
   216  109  230 1    
   217  110  111 1    
   218  110  112 1    
   219  110  231 1    
   220  111  232 1    
   221  111  233 1    
   222  111  234 1    
   223  112  113 2    
   224  112  114 am   BACKBONE|DICT|INTERRES
   225  114  115 1    
   226  114  235 1    
   227  115  116 1    
   228  115  117 1    
   229  115  236 1    
   230  116  237 1    
   231  116  238 1    
   232  116  239 1    
   233  117  118 2    
   234  117  119 am   BACKBONE|DICT|INTERRES
   235  119  120 1    
   236  119  240 1    
   237  120  121 1    
   238  120  124 1    
   239  120  241 1    
   240  121  122 am   BACKBONE|DICT|INTERRES
   241  121  123 2    
   242  122  242 1    
   243  122  243 1    
   244  124  125 1    
   245  124  244 1    
   246  124  245 1    
   247  125  126 1    
   248  126  246 1    
   249  126  247 1    
@<TRIPOS>SUBSTRUCTURE
     1 UNK         1 GROUP             0       ****    0 ROOT    
