@<TRIPOS>MOLECULE
3R540
247   249    1
SMALL
USER_CHARGES


@<TRIPOS>ATOM
      1 CA          7.1623  -12.6985  -46.1688 C.3       0 UNK        -0.1800 
      2 C           5.7179  -13.1251  -45.9540 C.2       0 UNK         0.5000 
      3 O           5.1554  -12.8778  -44.8883 O.2       0 UNK        -0.5000 
      4 N           5.1085  -13.7584  -46.9624 N.am      1 UNK        -0.5000 
      5 CA          3.7284  -14.2568  -46.9775 C.3       1 UNK         0.1400 
      6 C6          3.5552  -15.4373  -47.9702 C.3       23 UNK        -0.0398 
      7 S7          4.2757  -15.1771  -49.6329 S.3       23 UNK        -0.2404 
      8 C8          2.8058  -14.9671  -50.6937 C.3       23 UNK        -0.0205 
      9 C9          1.7944  -16.0989  -50.5610 C.ar      23 UNK        -0.0193 
     10 C10         0.4691  -15.8147  -50.2156 C.ar      23 UNK        -0.1150 
     11 C11        -0.4756  -16.8402  -50.1165 C.ar      23 UNK        -0.0193 
     12 C12        -0.0761  -18.1588  -50.3479 C.ar      23 UNK        -0.1150 
     13 C13         1.2517  -18.4641  -50.6603 C.ar      23 UNK        -0.0193 
     14 C14         2.1787  -17.4257  -50.7807 C.ar      23 UNK        -0.1150 
     15 C15         1.6840  -19.9105  -50.8739 C.3       23 UNK        -0.0205 
     16 S16         1.9485  -20.7948  -49.2977 S.3       23 UNK        -0.2404 
     17 C17         0.2292  -20.9928  -48.7356 C.3       23 UNK        -0.0398 
     18 CA          0.0090  -22.1445  -47.7308 C.3       11 UNK         0.1400 
     19 N           0.6456  -21.9062  -46.4344 N.am      11 UNK        -0.5000 
     20 C           0.8362  -22.8545  -45.5061 C.2       10 UNK         0.5000 
     21 O           0.6076  -24.0496  -45.6939 O.2       10 UNK        -0.5000 
     22 CA          1.3267  -22.3898  -44.1211 C.3       10 UNK         0.1400 
     23 CB          2.8595  -22.2962  -44.0938 C.3       10 UNK        -0.1800 
     24 N           0.7544  -21.1081  -43.7053 N.am      10 UNK        -0.5000 
     25 C          -0.5527  -20.8694  -43.5220 C.2       9 UNK         0.5000 
     26 O          -1.4282  -21.7278  -43.6329 O.2       9 UNK        -0.5000 
     27 CA         -0.9526  -19.4117  -43.2228 C.3       9 UNK         0.1400 
     28 CB         -0.8295  -19.1069  -41.7234 C.3       9 UNK        -0.1800 
     29 N          -0.1730  -18.4391  -43.9916 N.am      9 UNK        -0.5000 
     30 C          -0.1510  -18.3619  -45.3304 C.2       8 UNK         0.5000 
     31 O          -0.8143  -19.0910  -46.0662 O.2       8 UNK        -0.5000 
     32 CA          0.8079  -17.3348  -45.9521 C.3       8 UNK         0.1400 
     33 CB          0.1654  -15.9417  -45.9791 C.3       8 UNK        -0.1800 
     34 N           2.0772  -17.2896  -45.2242 N.am      8 UNK        -0.5000 
     35 C           3.0491  -18.2030  -45.3687 C.2       7 UNK         0.5000 
     36 O           3.0085  -19.1125  -46.1954 O.2       7 UNK        -0.5000 
     37 CA          4.2568  -18.1075  -44.4149 C.3       7 UNK         0.1400 
     38 CB          5.3736  -17.2438  -45.0202 C.3       7 UNK        -0.1800 
     39 N           3.9074  -17.5844  -43.0937 N.am      7 UNK        -0.5000 
     40 C           3.1580  -18.2406  -42.1973 C.2       6 UNK         0.5000 
     41 O           2.7051  -19.3691  -42.3844 O.2       6 UNK        -0.5000 
     42 CA          2.8143  -17.4885  -40.8965 C.3       6 UNK         0.1400 
     43 CB          3.9080  -17.7134  -39.8421 C.3       6 UNK        -0.1800 
     44 N           2.6031  -16.0475  -41.0768 N.am      6 UNK        -0.5000 
     45 C           1.6947  -15.4988  -41.8945 C.2       5 UNK         0.5000 
     46 O           0.9699  -16.1549  -42.6456 O.2       5 UNK        -0.5000 
     47 CA          1.6465  -13.9607  -41.9269 C.3       5 UNK         0.1400 
     48 CB          2.7521  -13.4226  -42.8443 C.3       5 UNK        -0.1800 
     49 N           0.3664  -13.4469  -42.4101 N.am      5 UNK        -0.5000 
     50 C          -0.8067  -13.5459  -41.7711 C.2       4 UNK         0.5000 
     51 O          -0.9380  -14.0686  -40.6632 O.2       4 UNK        -0.5000 
     52 CA         -2.0371  -12.9337  -42.4689 C.3       4 UNK         0.1400 
     53 CB         -2.5261  -11.6939  -41.7026 C.3       4 UNK        -0.1800 
     54 N          -1.7550  -12.5380  -43.8506 N.am      4 UNK        -0.5000 
     55 C          -2.0372  -13.2572  -44.9402 C.2       3 UNK         0.5000 
     56 O          -2.5991  -14.3517  -44.9060 O.2       3 UNK        -0.5000 
     57 CA         -1.6291  -12.6600  -46.3033 C.3       3 UNK         0.1400 
     58 CB         -2.6004  -11.5419  -46.7251 C.3       3 UNK        -0.1800 
     59 N          -0.2322  -12.2109  -46.4141 N.am      3 UNK        -0.5000 
     60 C           0.4179  -11.2357  -45.7637 C.2       2 UNK         0.5000 
     61 O          -0.0772  -10.5841  -44.8422 O.2       2 UNK        -0.5000 
     62 CA          1.8676  -10.9471  -46.2224 C.3       2 UNK         0.1400 
     63 CB          2.5597   -9.8787  -45.3569 C.3       2 UNK        -0.1800 
     64 N           2.7243  -12.1354  -46.2549 N.am      2 UNK        -0.5000 
     65 C           2.6894  -13.1242  -47.1559 C.2       1 UNK         0.5000 
     66 O           1.8662  -13.1626  -48.0705 O.2       1 UNK        -0.5000 
     67 C          -1.5030  -22.3757  -47.5528 C.2       11 UNK         0.5000 
     68 O          -2.0330  -23.3545  -48.0803 O.2       11 UNK        -0.5000 
     69 N          -2.1730  -21.4661  -46.8286 N.am      12 UNK        -0.5000 
     70 CA         -3.6249  -21.4394  -46.6242 C.3       12 UNK         0.1400 
     71 CB         -4.0124  -20.1903  -45.8222 C.3       12 UNK        -0.1800 
     72 C          -4.1924  -22.7077  -45.9619 C.2       12 UNK         0.5000 
     73 O          -5.3196  -23.0906  -46.2732 O.2       12 UNK        -0.5000 
     74 N          -3.3825  -23.3803  -45.1330 N.am      13 UNK        -0.5000 
     75 CA         -3.6632  -24.6930  -44.5433 C.3       13 UNK         0.1400 
     76 CB         -2.5014  -25.0747  -43.6136 C.3       13 UNK        -0.1800 
     77 C          -3.9148  -25.8140  -45.5778 C.2       13 UNK         0.5000 
     78 O          -4.6303  -26.7672  -45.2682 O.2       13 UNK        -0.5000 
     79 N          -3.3498  -25.6692  -46.7841 N.am      14 UNK        -0.5000 
     80 CA         -3.5624  -26.5410  -47.9418 C.3       14 UNK         0.1400 
     81 CB         -2.1905  -27.0471  -48.4211 C.3       14 UNK        -0.1800 
     82 C          -4.3003  -25.8008  -49.0775 C.2       14 UNK         0.5000 
     83 O          -4.3260  -26.2945  -50.2072 O.2       14 UNK        -0.5000 
     84 N          -4.8362  -24.6041  -48.7861 N.am      15 UNK        -0.5000 
     85 CA         -5.4553  -23.6503  -49.7131 C.3       15 UNK         0.1400 
     86 CB         -6.8281  -24.1707  -50.1808 C.3       15 UNK        -0.1800 
     87 C          -4.5313  -23.2508  -50.8844 C.2       15 UNK         0.5000 
     88 O          -5.0132  -23.0295  -51.9961 O.2       15 UNK        -0.5000 
     89 N          -3.2187  -23.1799  -50.6161 N.am      16 UNK        -0.5000 
     90 CA         -2.1239  -22.9778  -51.5719 C.3       16 UNK         0.1400 
     91 CB         -2.1438  -21.5455  -52.1419 C.3       16 UNK        -0.1800 
     92 C          -2.0790  -24.0778  -52.6535 C.2       16 UNK         0.5000 
     93 O          -1.9175  -23.7802  -53.8368 O.2       16 UNK        -0.5000 
     94 N          -2.2409  -25.3308  -52.2026 N.am      17 UNK        -0.5000 
     95 CA         -2.3545  -26.5598  -52.9927 C.3       17 UNK         0.1400 
     96 CB         -1.0734  -26.8313  -53.8101 C.3       17 UNK        -0.1800 
     97 C          -3.6444  -26.5712  -53.8361 C.2       17 UNK         0.5000 
     98 O          -3.5956  -26.7829  -55.0493 O.2       17 UNK        -0.5000 
     99 N          -4.7765  -26.3383  -53.1535 N.am      18 UNK        -0.5000 
    100 CA        -6.1435  -26.3092  -53.6894 C.3       18 UNK         0.1400 
    101 CB        -6.5758  -27.7165  -54.1520 C.3       18 UNK        -0.1800 
    102 C         -6.3626  -25.2232  -54.7668 C.2       18 UNK         0.5000 
    103 O         -7.0700  -25.4563  -55.7487 O.2       18 UNK        -0.5000 
    104 N         -5.7618  -24.0472  -54.5509 N.am      19 UNK        -0.5000 
    105 CA        -5.8480  -22.8715  -55.4205 C.3       19 UNK         0.1400 
    106 CB        -4.4244  -22.3461  -55.6667 C.3       19 UNK        -0.1800 
    107 C         -6.7485  -21.7711  -54.8207 C.2       19 UNK         0.5000 
    108 O         -6.7886  -20.6666  -55.3630 O.2       19 UNK        -0.5000 
    109 N         -7.4403  -22.0841  -53.7133 N.am      20 UNK        -0.5000 
    110 CA        -8.3062  -21.2052  -52.9157 C.3       20 UNK         0.1400 
    111 CB        -9.5071  -20.6978  -53.7426 C.3       20 UNK        -0.1800 
    112 C         -7.5349  -20.0734  -52.1995 C.2       20 UNK         0.5000 
    113 O         -8.1013  -19.0060  -51.9599 O.2       20 UNK        -0.5000 
    114 N         -6.2739  -20.3639  -51.8426 N.am      21 UNK        -0.5000 
    115 CA        -5.2755  -19.5186  -51.1798 C.3       21 UNK         0.1400 
    116 CB        -5.7832  -18.9529  -49.8397 C.3       21 UNK        -0.1800 
    117 C         -4.7054  -18.4138  -52.0920 C.2       21 UNK         0.5000 
    118 O         -5.4467  -17.7210  -52.7896 O.2       21 UNK        -0.5000 
    119 N         -3.3739  -18.2773  -52.0513 N.am      22 UNK        -0.5000 
    120 CA        -2.5557  -17.3111  -52.8098 C.3       22 UNK         0.1400 
    121 C         -2.5198  -17.5536  -54.3528 C.2       22 UNK         0.5000 
    122 N         -2.9745  -18.6924  -54.8608 N.am      22 UNK        -0.7600 
    123 O         -2.0369  -16.7120  -55.1056 O.2       22 UNK        -0.5000 
    124 C124       -2.8550  -15.8230  -52.4577 C.3       23 UNK        -0.0398 
    125 S125       -2.7310  -15.2499  -50.7156 S.3       23 UNK        -0.2404 
    126 C126       -1.9177  -16.5471  -49.7178 C.3       23 UNK        -0.0205 
    127 H127        7.5258  -12.9815  -47.1570 H         1 UNK         0.0600 
    128 H128        7.8052  -13.1654  -45.4228 H         1 UNK         0.0600 
    129 H129        7.2520  -11.6168  -46.0695 H         1 UNK         0.0600 
    130 H130        5.6128  -13.9052  -47.8262 H         1 UNK         0.3000 
    131 H131        3.5194  -14.6676  -45.9883 H         1 UNK         0.0600 
    132 H132        4.0597  -16.3121  -47.5608 H         1 UNK         0.0800 
    133 H133        2.5100  -15.7352  -48.0435 H         1 UNK         0.0800 
    134 H134        2.3436  -14.0046  -50.4734 H         1 UNK         0.0800 
    135 H135        3.1321  -14.9127  -51.7329 H         1 UNK         0.0800 
    136 H136        0.1696  -14.7932  -50.0262 H         1 UNK         0.1150 
    137 H137       -0.8028  -18.9518  -50.2716 H         1 UNK         0.1150 
    138 H138        3.2058  -17.6486  -51.0335 H         1 UNK         0.1150 
    139 H139        0.9448  -20.4366  -51.4796 H         1 UNK         0.0800 
    140 H140        2.6130  -19.9401  -51.4451 H         1 UNK         0.0800 
    141 H141       -0.3834  -21.1599  -49.6217 H         1 UNK         0.0800 
    142 H142       -0.0954  -20.0449  -48.3082 H         1 UNK         0.0800 
    143 H143        0.4316  -23.0552  -48.1610 H         1 UNK         0.0600 
    144 H144        0.8629  -20.9463  -46.2050 H         1 UNK         0.3000 
    145 H145        1.0166  -23.1415  -43.3924 H         1 UNK         0.0600 
    146 H146        3.3150  -23.2430  -44.3864 H         1 UNK         0.0600 
    147 H147        3.2276  -21.5289  -44.7757 H         1 UNK         0.0600 
    148 H148        3.2220  -22.0568  -43.0939 H         1 UNK         0.0600 
    149 H149        1.4126  -20.3595  -43.5122 H         1 UNK         0.3000 
    150 H150       -1.9981  -19.2833  -43.5043 H         1 UNK         0.0600 
    151 H151       -1.0904  -18.0709  -41.5054 H         1 UNK         0.0600 
    152 H152        0.1814  -19.2839  -41.3589 H         1 UNK         0.0600 
    153 H153       -1.4998  -19.7422  -41.1433 H         1 UNK         0.0600 
    154 H154        0.3572  -17.7546  -43.4594 H         1 UNK         0.3000 
    155 H155        0.9972  -17.6363  -46.9853 H         1 UNK         0.0600 
    156 H156       -0.7918  -15.9677  -46.5005 H         1 UNK         0.0600 
    157 H157        0.7925  -15.2220  -46.4983 H         1 UNK         0.0600 
    158 H158       -0.0218  -15.5601  -44.9760 H         1 UNK         0.0600 
    159 H159        2.1311  -16.6382  -44.4530 H         1 UNK         0.3000 
    160 H160        4.6470  -19.1196  -44.2862 H         1 UNK         0.0600 
    161 H161        5.6352  -17.5842  -46.0230 H         1 UNK         0.0600 
    162 H162        6.2794  -17.2965  -44.4159 H         1 UNK         0.0600 
    163 H163        5.0833  -16.1963  -45.0899 H         1 UNK         0.0600 
    164 H164        4.2446  -16.6626  -42.8587 H         1 UNK         0.3000 
    165 H165        1.8835  -17.9070  -40.5110 H         1 UNK         0.0600 
    166 H166        3.6306  -17.2717  -38.8848 H         1 UNK         0.0600 
    167 H167        4.0723  -18.7783  -39.6709 H         1 UNK         0.0600 
    168 H168        4.8603  -17.2796  -40.1498 H         1 UNK         0.0600 
    169 H169        3.1759  -15.4400  -40.5086 H         1 UNK         0.3000 
    170 H170        1.8069  -13.5841  -40.9147 H         1 UNK         0.0600 
    171 H171        2.7525  -12.3328  -42.8693 H         1 UNK         0.0600 
    172 H172        3.7395  -13.7361  -42.5031 H         1 UNK         0.0600 
    173 H173        2.6297  -13.7816  -43.8661 H         1 UNK         0.0600 
    174 H174        0.3648  -13.0212  -43.3235 H         1 UNK         0.3000 
    175 H175       -2.8313  -13.6827  -42.4480 H         1 UNK         0.0600 
    176 H176       -1.7667  -10.9111  -41.6786 H         1 UNK         0.0600 
    177 H177       -3.4229  -11.2768  -42.1610 H         1 UNK         0.0600 
    178 H178       -2.7759  -11.9427  -40.6703 H         1 UNK         0.0600 
    179 H179       -1.2668  -11.6550  -43.9905 H         1 UNK         0.3000 
    180 H180       -1.7301  -13.4651  -47.0333 H         1 UNK         0.0600 
    181 H181       -2.3832  -11.1931  -47.7347 H         1 UNK         0.0600 
    182 H182       -2.5498  -10.6826  -46.0557 H         1 UNK         0.0600 
    183 H183       -3.6311  -11.8987  -46.7200 H         1 UNK         0.0600 
    184 H184        0.3093  -12.6827  -47.1349 H         1 UNK         0.3000 
    185 H185        1.7995  -10.5521  -47.2381 H         1 UNK         0.0600 
    186 H186        2.6639  -10.2058  -44.3217 H         1 UNK         0.0600 
    187 H187        3.5554   -9.6482  -45.7364 H         1 UNK         0.0600 
    188 H188        1.9931   -8.9467  -45.3533 H         1 UNK         0.0600 
    189 H189        3.4461  -12.1904  -45.5419 H         1 UNK         0.3000 
    190 H190       -1.6573  -20.6758  -46.4458 H         1 UNK         0.3000 
    191 H191       -4.0821  -21.3571  -47.6121 H         1 UNK         0.0600 
    192 H192       -3.6220  -20.2336  -44.8065 H         1 UNK         0.0600 
    193 H193       -5.0966  -20.0945  -45.7511 H         1 UNK         0.0600 
    194 H194       -3.6358  -19.2816  -46.2925 H         1 UNK         0.0600 
    195 H195       -2.5013  -22.9474  -44.8750 H         1 UNK         0.3000 
    196 H196       -4.5684  -24.5957  -43.9409 H         1 UNK         0.0600 
    197 H197       -2.6818  -26.0376  -43.1341 H         1 UNK         0.0600 
    198 H198       -2.3710  -24.3368  -42.8217 H         1 UNK         0.0600 
    199 H199       -1.5600  -25.1490  -44.1596 H         1 UNK         0.0600 
    200 H200       -2.7809  -24.8469  -46.9605 H         1 UNK         0.3000 
    201 H201       -4.1750  -27.4031  -47.6722 H         1 UNK         0.0600 
    202 H202       -1.6690  -27.5785  -47.6249 H         1 UNK         0.0600 
    203 H203       -1.5516  -26.2254  -48.7478 H         1 UNK         0.0600 
    204 H204       -2.2928  -27.7400  -49.2573 H         1 UNK         0.0600 
    205 H205       -4.8031  -24.2972  -47.8204 H         1 UNK         0.3000 
    206 H206       -5.6282  -22.7348  -49.1464 H         1 UNK         0.0600 
    207 H207       -7.3372  -23.4406  -50.8096 H         1 UNK         0.0600 
    208 H208       -6.7370  -25.0943  -50.7501 H         1 UNK         0.0600 
    209 H209       -7.4791  -24.3697  -49.3296 H         1 UNK         0.0600 
    210 H210       -2.9213  -23.3701  -49.6609 H         1 UNK         0.3000 
    211 H211       -1.1989  -23.0878  -51.0042 H         1 UNK         0.0600 
    212 H212       -3.0472  -21.3494  -52.7169 H         1 UNK         0.0600 
    213 H213       -1.2920  -21.3721  -52.8007 H         1 UNK         0.0600 
    214 H214       -2.0861  -20.8111  -51.3411 H         1 UNK         0.0600 
    215 H215       -2.4380  -25.4465  -51.2180 H         1 UNK         0.3000 
    216 H216       -2.4556  -27.3738  -52.2732 H         1 UNK         0.0600 
    217 H217       -1.1196  -27.8110  -54.2868 H         1 UNK         0.0600 
    218 H218       -0.1898  -26.8221  -53.1722 H         1 UNK         0.0600 
    219 H219       -0.9255  -26.0944  -54.5998 H         1 UNK         0.0600 
    220 H220       -4.6940  -26.1967  -52.1503 H         1 UNK         0.3000 
    221 H221       -6.7908  -26.0342  -52.8574 H         1 UNK         0.0600 
    222 H222       -6.0126  -28.0480  -55.0248 H         1 UNK         0.0600 
    223 H223       -6.4323  -28.4523  -53.3608 H         1 UNK         0.0600 
    224 H224       -7.6328  -27.7332  -54.4199 H         1 UNK         0.0600 
    225 H225       -5.2351  -23.9154  -53.6916 H         1 UNK         0.3000 
    226 H226       -6.2778  -23.1435  -56.3863 H         1 UNK         0.0600 
    227 H227       -3.7870  -23.1219  -56.0916 H         1 UNK         0.0600 
    228 H228       -4.4254  -21.5084  -56.3648 H         1 UNK         0.0600 
    229 H229       -3.9600  -22.0054  -54.7423 H         1 UNK         0.0600 
    230 H230       -7.3052  -23.0146  -53.3456 H         1 UNK         0.3000 
    231 H231       -8.7114  -21.8315  -52.1201 H         1 UNK         0.0600 
    232 H232       -9.2022  -19.9835  -54.5076 H         1 UNK         0.0600 
    233 H233      -10.0223  -21.5212  -54.2369 H         1 UNK         0.0600 
    234 H234      -10.2363  -20.1973  -53.1045 H         1 UNK         0.0600 
    235 H235       -5.9307  -21.2789  -52.1177 H         1 UNK         0.3000 
    236 H236       -4.4591  -20.1984  -50.9370 H         1 UNK         0.0600 
    237 H237       -6.5714  -18.2132  -49.9806 H         1 UNK         0.0600 
    238 H238       -6.1725  -19.7434  -49.1980 H         1 UNK         0.0600 
    239 H239       -4.9755  -18.4613  -49.2961 H         1 UNK         0.0600 
    240 H240       -2.8482  -18.9013  -51.4613 H         1 UNK         0.3000 
    241 H241       -1.5267  -17.5056  -52.5187 H         1 UNK         0.0600 
    242 H242       -2.9336  -18.8369  -55.8571 H         1 UNK         0.3800 
    243 H243       -3.3889  -19.3908  -54.2683 H         1 UNK         0.3800 
    244 H244       -2.1754  -15.1779  -53.0167 H         1 UNK         0.0800 
    245 H245       -3.8520  -15.5587  -52.8121 H         1 UNK         0.0800 
    246 H246       -2.5270  -17.4494  -49.7144 H         1 UNK         0.0800 
    247 H247       -1.9090  -16.2064  -48.6822 H         1 UNK         0.0800 
@<TRIPOS>BOND
     1    1    2 1    
     2    1  127 1    
     3    1  128 1    
     4    1  129 1    
     5    2    3 2    
     6    2    4 am   BACKBONE|DICT|INTERRES
     7    4    5 1    
     8    4  130 1    
     9    5    6 1    
    10    5   65 1    
    11    5  131 1    
    12    6    7 1    
    13    6  132 1    
    14    6  133 1    
    15    7    8 1    
    16    8    9 1    
    17    8  134 1    
    18    8  135 1    
    19    9   10 ar   
    20    9   14 ar   
    21   10   11 ar   
    22   10  136 1    
    23   11   12 ar   
    24   11  126 1    
    25   12   13 ar   
    26   12  137 1    
    27   13   14 ar   
    28   13   15 1    
    29   14  138 1    
    30   15   16 1    
    31   15  139 1    
    32   15  140 1    
    33   16   17 1    
    34   17   18 1    
    35   17  141 1    
    36   17  142 1    
    37   18   19 1    
    38   18   67 1    
    39   18  143 1    
    40   19   20 am   BACKBONE|DICT|INTERRES
    41   19  144 1    
    42   20   21 2    
    43   20   22 1    
    44   22   23 1    
    45   22   24 1    
    46   22  145 1    
    47   23  146 1    
    48   23  147 1    
    49   23  148 1    
    50   24   25 am   BACKBONE|DICT|INTERRES
    51   24  149 1    
    52   25   26 2    
    53   25   27 1    
    54   27   28 1    
    55   27   29 1    
    56   27  150 1    
    57   28  151 1    
    58   28  152 1    
    59   28  153 1    
    60   29   30 am   BACKBONE|DICT|INTERRES
    61   29  154 1    
    62   30   31 2    
    63   30   32 1    
    64   32   33 1    
    65   32   34 1    
    66   32  155 1    
    67   33  156 1    
    68   33  157 1    
    69   33  158 1    
    70   34   35 am   BACKBONE|DICT|INTERRES
    71   34  159 1    
    72   35   36 2    
    73   35   37 1    
    74   37   38 1    
    75   37   39 1    
    76   37  160 1    
    77   38  161 1    
    78   38  162 1    
    79   38  163 1    
    80   39   40 am   BACKBONE|DICT|INTERRES
    81   39  164 1    
    82   40   41 2    
    83   40   42 1    
    84   42   43 1    
    85   42   44 1    
    86   42  165 1    
    87   43  166 1    
    88   43  167 1    
    89   43  168 1    
    90   44   45 am   BACKBONE|DICT|INTERRES
    91   44  169 1    
    92   45   46 2    
    93   45   47 1    
    94   47   48 1    
    95   47   49 1    
    96   47  170 1    
    97   48  171 1    
    98   48  172 1    
    99   48  173 1    
   100   49   50 am   BACKBONE|DICT|INTERRES
   101   49  174 1    
   102   50   51 2    
   103   50   52 1    
   104   52   53 1    
   105   52   54 1    
   106   52  175 1    
   107   53  176 1    
   108   53  177 1    
   109   53  178 1    
   110   54   55 am   BACKBONE|DICT|INTERRES
   111   54  179 1    
   112   55   56 2    
   113   55   57 1    
   114   57   58 1    
   115   57   59 1    
   116   57  180 1    
   117   58  181 1    
   118   58  182 1    
   119   58  183 1    
   120   59   60 am   BACKBONE|DICT|INTERRES
   121   59  184 1    
   122   60   61 2    
   123   60   62 1    
   124   62   63 1    
   125   62   64 1    
   126   62  185 1    
   127   63  186 1    
   128   63  187 1    
   129   63  188 1    
   130   64   65 am   BACKBONE|DICT|INTERRES
   131   64  189 1    
   132   65   66 2    
   133   67   68 2    
   134   67   69 am   BACKBONE|DICT|INTERRES
   135   69   70 1    
   136   69  190 1    
   137   70   71 1    
   138   70   72 1    
   139   70  191 1    
   140   71  192 1    
   141   71  193 1    
   142   71  194 1    
   143   72   73 2    
   144   72   74 am   BACKBONE|DICT|INTERRES
   145   74   75 1    
   146   74  195 1    
   147   75   76 1    
   148   75   77 1    
   149   75  196 1    
   150   76  197 1    
   151   76  198 1    
   152   76  199 1    
   153   77   78 2    
   154   77   79 am   BACKBONE|DICT|INTERRES
   155   79   80 1    
   156   79  200 1    
   157   80   81 1    
   158   80   82 1    
   159   80  201 1    
   160   81  202 1    
   161   81  203 1    
   162   81  204 1    
   163   82   83 2    
   164   82   84 am   BACKBONE|DICT|INTERRES
   165   84   85 1    
   166   84  205 1    
   167   85   86 1    
   168   85   87 1    
   169   85  206 1    
   170   86  207 1    
   171   86  208 1    
   172   86  209 1    
   173   87   88 2    
   174   87   89 am   BACKBONE|DICT|INTERRES
   175   89   90 1    
   176   89  210 1    
   177   90   91 1    
   178   90   92 1    
   179   90  211 1    
   180   91  212 1    
   181   91  213 1    
   182   91  214 1    
   183   92   93 2    
   184   92   94 am   BACKBONE|DICT|INTERRES
   185   94   95 1    
   186   94  215 1    
   187   95   96 1    
   188   95   97 1    
   189   95  216 1    
   190   96  217 1    
   191   96  218 1    
   192   96  219 1    
   193   97   98 2    
   194   97   99 am   BACKBONE|DICT|INTERRES
   195   99  100 1    
   196   99  220 1    
   197  100  101 1    
   198  100  102 1    
   199  100  221 1    
   200  101  222 1    
   201  101  223 1    
   202  101  224 1    
   203  102  103 2    
   204  102  104 am   BACKBONE|DICT|INTERRES
   205  104  105 1    
   206  104  225 1    
   207  105  106 1    
   208  105  107 1    
   209  105  226 1    
   210  106  227 1    
   211  106  228 1    
   212  106  229 1    
   213  107  108 2    
   214  107  109 am   BACKBONE|DICT|INTERRES
   215  109  110 1    
   216  109  230 1    
   217  110  111 1    
   218  110  112 1    
   219  110  231 1    
   220  111  232 1    
   221  111  233 1    
   222  111  234 1    
   223  112  113 2    
   224  112  114 am   BACKBONE|DICT|INTERRES
   225  114  115 1    
   226  114  235 1    
   227  115  116 1    
   228  115  117 1    
   229  115  236 1    
   230  116  237 1    
   231  116  238 1    
   232  116  239 1    
   233  117  118 2    
   234  117  119 am   BACKBONE|DICT|INTERRES
   235  119  120 1    
   236  119  240 1    
   237  120  121 1    
   238  120  124 1    
   239  120  241 1    
   240  121  122 am   BACKBONE|DICT|INTERRES
   241  121  123 2    
   242  122  242 1    
   243  122  243 1    
   244  124  125 1    
   245  124  244 1    
   246  124  245 1    
   247  125  126 1    
   248  126  246 1    
   249  126  247 1    
@<TRIPOS>SUBSTRUCTURE
     1 UNK         1 GROUP             0       ****    0 ROOT    
