@<TRIPOS>MOLECULE
3R540
247   249    1
SMALL
USER_CHARGES


@<TRIPOS>ATOM
      1 CA         -3.6180  -16.5894  -43.5484 C.3       0 UNK        -0.1800 
      2 C          -3.2703  -15.5074  -44.5607 C.2       0 UNK         0.5000 
      3 O          -3.9866  -14.5111  -44.6636 O.2       0 UNK        -0.5000 
      4 N          -2.1786  -15.7011  -45.3080 N.am      1 UNK        -0.5000 
      5 CA         -1.6255  -14.7367  -46.2592 C.3       1 UNK         0.1400 
      6 C6         -0.6378  -15.4248  -47.2341 C.3       23 UNK        -0.0398 
      7 S7         -0.1681  -14.3714  -48.6509 S.3       23 UNK        -0.2404 
      8 C8          1.5057  -14.9818  -49.0322 C.3       23 UNK        -0.0205 
      9 C9          1.4763  -16.4165  -49.5368 C.ar      23 UNK        -0.0193 
     10 C10         0.9268  -16.7067  -50.7879 C.ar      23 UNK        -0.1150 
     11 C11         0.8394  -18.0272  -51.2385 C.ar      23 UNK        -0.0193 
     12 C12         1.3466  -19.0575  -50.4414 C.ar      23 UNK        -0.1150 
     13 C13         1.9053  -18.7809  -49.1899 C.ar      23 UNK        -0.0193 
     14 C14         1.9749  -17.4560  -48.7479 C.ar      23 UNK        -0.1150 
     15 C15         2.3976  -19.9144  -48.2964 C.3       23 UNK        -0.0205 
     16 S16         1.0800  -21.1053  -47.8696 S.3       23 UNK        -0.2404 
     17 C17        -0.2883  -19.9849  -47.4259 C.3       23 UNK        -0.0398 
     18 CA         -1.3522  -20.6335  -46.5064 C.3       11 UNK         0.1400 
     19 N          -0.8004  -20.9697  -45.1869 N.am      11 UNK        -0.5000 
     20 C          -1.3056  -21.8459  -44.3082 C.2       10 UNK         0.5000 
     21 O          -2.3016  -22.5342  -44.5335 O.2       10 UNK        -0.5000 
     22 CA         -0.6381  -21.9109  -42.9209 C.3       10 UNK         0.1400 
     23 CB          0.5613  -22.8707  -42.9215 C.3       10 UNK        -0.1800 
     24 N          -0.2226  -20.5883  -42.4492 N.am      10 UNK        -0.5000 
     25 C          -1.0742  -19.6238  -42.0679 C.2       9 UNK         0.5000 
     26 O          -2.2915  -19.7842  -41.9793 O.2       9 UNK        -0.5000 
     27 CA         -0.4741  -18.2394  -41.7561 C.3       9 UNK         0.1400 
     28 CB         -0.0456  -18.1488  -40.2842 C.3       9 UNK        -0.1800 
     29 N           0.6645  -17.9062  -42.6090 N.am      9 UNK        -0.5000 
     30 C           0.6107  -17.7300  -43.9350 C.2       8 UNK         0.5000 
     31 O          -0.4262  -17.7663  -44.5947 O.2       8 UNK        -0.5000 
     32 CA          1.9536  -17.5356  -44.6562 C.3       8 UNK         0.1400 
     33 CB          2.4143  -16.0746  -44.5865 C.3       8 UNK        -0.1800 
     34 N           3.0042  -18.4041  -44.1254 N.am      8 UNK        -0.5000 
     35 C           2.9960  -19.7407  -44.2142 C.2       7 UNK         0.5000 
     36 O           2.0974  -20.3767  -44.7593 O.2       7 UNK        -0.5000 
     37 CA          4.1651  -20.4881  -43.5498 C.3       7 UNK         0.1400 
     38 CB          5.3849  -20.5185  -44.4825 C.3       7 UNK        -0.1800 
     39 N           4.5439  -19.8910  -42.2686 N.am      7 UNK        -0.5000 
     40 C           3.7888  -19.9430  -41.1618 C.2       6 UNK         0.5000 
     41 O           2.7232  -20.5558  -41.0892 O.2       6 UNK        -0.5000 
     42 CA          4.2847  -19.1230  -39.9529 C.3       6 UNK         0.1400 
     43 CB          5.3181  -19.9204  -39.1432 C.3       6 UNK        -0.1800 
     44 N           4.8533  -17.8203  -40.3248 N.am      6 UNK        -0.5000 
     45 C           4.1735  -16.8607  -40.9664 C.2       5 UNK         0.5000 
     46 O           3.0003  -16.9936  -41.3195 O.2       5 UNK        -0.5000 
     47 CA          4.9423  -15.5722  -41.3251 C.3       5 UNK         0.1400 
     48 CB          5.9420  -15.8432  -42.4615 C.3       5 UNK        -0.1800 
     49 N           4.0333  -14.5102  -41.7597 N.am      5 UNK        -0.5000 
     50 C           3.1786  -13.8524  -40.9673 C.2       4 UNK         0.5000 
     51 O           3.1880  -13.9532  -39.7388 O.2       4 UNK        -0.5000 
     52 CA          2.1059  -12.9703  -41.6472 C.3       4 UNK         0.1400 
     53 CB          1.9283  -11.6184  -40.9254 C.3       4 UNK        -0.1800 
     54 N           2.2551  -12.7610  -43.0960 N.am      4 UNK        -0.5000 
     55 C           3.2377  -12.1022  -43.7339 C.2       3 UNK         0.5000 
     56 O           4.2715  -11.7166  -43.1884 O.2       3 UNK        -0.5000 
     57 CA          3.0215  -11.7924  -45.2326 C.3       3 UNK         0.1400 
     58 CB          3.7522  -12.8093  -46.1222 C.3       3 UNK        -0.1800 
     59 N           1.6101  -11.7405  -45.6237 N.am      3 UNK        -0.5000 
     60 C           0.7236  -10.8408  -45.1740 C.2       2 UNK         0.5000 
     61 O           1.0311   -9.8856  -44.4598 O.2       2 UNK        -0.5000 
     62 CA         -0.7567  -11.0343  -45.5637 C.3       2 UNK         0.1400 
     63 CB         -1.1907   -9.9524  -46.5656 C.3       2 UNK        -0.1800 
     64 N          -1.1151  -12.3463  -46.1151 N.am      2 UNK        -0.5000 
     65 C          -0.9978  -13.5368  -45.5102 C.2       1 UNK         0.5000 
     66 O          -0.4190  -13.7063  -44.4325 O.2       1 UNK        -0.5000 
     67 C          -2.6258  -19.7532  -46.4131 C.2       11 UNK         0.5000 
     68 O          -2.7487  -18.7638  -47.1372 O.2       11 UNK        -0.5000 
     69 N          -3.5629  -20.1225  -45.5315 N.am      12 UNK        -0.5000 
     70 CA         -4.8825  -19.5049  -45.4225 C.3       12 UNK         0.1400 
     71 CB         -5.4878  -19.8322  -44.0492 C.3       12 UNK        -0.1800 
     72 C          -5.8070  -19.9716  -46.5587 C.2       12 UNK         0.5000 
     73 O          -6.5070  -19.1537  -47.1564 O.2       12 UNK        -0.5000 
     74 N          -5.7597  -21.2708  -46.8656 N.am      13 UNK        -0.5000 
     75 CA         -6.4859  -21.9128  -47.9517 C.3       13 UNK         0.1400 
     76 CB         -7.9214  -22.2409  -47.5050 C.3       13 UNK        -0.1800 
     77 C          -5.7296  -23.1841  -48.3531 C.2       13 UNK         0.5000 
     78 O          -5.0344  -23.7718  -47.5195 O.2       13 UNK        -0.5000 
     79 N          -5.9139  -23.5926  -49.6127 N.am      14 UNK        -0.5000 
     80 CA         -5.3926  -24.8077  -50.2396 C.3       14 UNK         0.1400 
     81 CB         -6.0102  -26.0653  -49.5929 C.3       14 UNK        -0.1800 
     82 C          -3.8535  -24.8605  -50.3258 C.2       14 UNK         0.5000 
     83 O          -3.2750  -25.9458  -50.2456 O.2       14 UNK        -0.5000 
     84 N          -3.2082  -23.6994  -50.5230 N.am      15 UNK        -0.5000 
     85 CA         -1.7577  -23.5994  -50.7312 C.3       15 UNK         0.1400 
     86 CB         -1.3026  -22.1496  -50.5188 C.3       15 UNK        -0.1800 
     87 C          -1.2856  -24.1241  -52.1063 C.2       15 UNK         0.5000 
     88 O          -0.0807  -24.2920  -52.2965 O.2       15 UNK        -0.5000 
     89 N          -2.2286  -24.3817  -53.0268 N.am      16 UNK        -0.5000 
     90 CA         -2.0389  -24.9850  -54.3497 C.3       16 UNK         0.1400 
     91 CB         -1.4743  -26.4168  -54.2357 C.3       16 UNK        -0.1800 
     92 C          -1.2569  -24.0967  -55.3368 C.2       16 UNK         0.5000 
     93 O          -0.5757  -24.6132  -56.2245 O.2       16 UNK        -0.5000 
     94 N          -1.4110  -22.7734  -55.2003 N.am      17 UNK        -0.5000 
     95 CA         -0.9871  -21.7957  -56.2052 C.3       17 UNK         0.1400 
     96 CB         -0.8112  -20.4199  -55.5478 C.3       17 UNK        -0.1800 
     97 C          -2.0053  -21.7305  -57.3578 C.2       17 UNK         0.5000 
     98 O          -1.6139  -21.6022  -58.5182 O.2       17 UNK        -0.5000 
     99 N          -3.2890  -21.8715  -57.0101 N.am      18 UNK        -0.5000 
    100 CA        -4.4152  -22.0231  -57.9187 C.3       18 UNK         0.1400 
    101 CB        -4.8772  -20.6542  -58.4536 C.3       18 UNK        -0.1800 
    102 C         -5.4979  -22.7991  -57.1572 C.2       18 UNK         0.5000 
    103 O         -6.5135  -22.2259  -56.7579 O.2       18 UNK        -0.5000 
    104 N         -5.2129  -24.0889  -56.9214 N.am      19 UNK        -0.5000 
    105 CA        -6.0301  -25.0712  -56.2022 C.3       19 UNK         0.1400 
    106 CB        -7.2928  -25.4267  -57.0186 C.3       19 UNK        -0.1800 
    107 C         -6.3306  -24.6314  -54.7552 C.2       19 UNK         0.5000 
    108 O         -5.4710  -24.7843  -53.8863 O.2       19 UNK        -0.5000 
    109 N         -7.5330  -24.0880  -54.5256 N.am      20 UNK        -0.5000 
    110 CA        -7.9885  -23.5593  -53.2406 C.3       20 UNK         0.1400 
    111 CB        -9.4957  -23.2759  -53.3220 C.3       20 UNK        -0.1800 
    112 C         -7.2279  -22.2979  -52.7889 C.2       20 UNK         0.5000 
    113 O         -7.1642  -22.0424  -51.5860 O.2       20 UNK        -0.5000 
    114 N         -6.6637  -21.5444  -53.7409 N.am      21 UNK        -0.5000 
    115 CA        -5.8067  -20.3932  -53.4766 C.3       21 UNK         0.1400 
    116 CB        -6.0352  -19.3486  -54.5767 C.3       21 UNK        -0.1800 
    117 C         -4.3255  -20.8295  -53.4523 C.2       21 UNK         0.5000 
    118 O         -3.9600  -21.7610  -54.1728 O.2       21 UNK        -0.5000 
    119 N         -3.4356  -20.1551  -52.7146 N.am      22 UNK        -0.5000 
    120 CA        -3.6822  -19.0988  -51.7195 C.3       22 UNK         0.1400 
    121 C         -4.4028  -19.6246  -50.4477 C.2       22 UNK         0.5000 
    122 N         -5.1999  -18.7842  -49.8023 N.am      22 UNK        -0.7600 
    123 O         -4.2299  -20.7727  -50.0465 O.2       22 UNK        -0.5000 
    124 C124       -2.3648  -18.3939  -51.3107 C.3       23 UNK        -0.0398 
    125 S125       -1.4957  -17.6374  -52.7282 S.3       23 UNK        -0.2404 
    126 C126        0.1777  -18.3503  -52.5723 C.3       23 UNK        -0.0205 
    127 H127       -3.0711  -17.5126  -43.7426 H         1 UNK         0.0600 
    128 H128       -4.6839  -16.8133  -43.5852 H         1 UNK         0.0600 
    129 H129       -3.3759  -16.2518  -42.5411 H         1 UNK         0.0600 
    130 H130       -1.6064  -16.5262  -45.1344 H         1 UNK         0.3000 
    131 H131       -2.4639  -14.3623  -46.8509 H         1 UNK         0.0600 
    132 H132        0.2540  -15.7633  -46.7108 H         1 UNK         0.0800 
    133 H133       -1.0966  -16.3266  -47.6441 H         1 UNK         0.0800 
    134 H134        2.1397  -14.8879  -48.1493 H         1 UNK         0.0800 
    135 H135        1.9493  -14.3430  -49.7971 H         1 UNK         0.0800 
    136 H136        0.5326  -15.9048  -51.3964 H         1 UNK         0.1150 
    137 H137        1.2825  -20.0826  -50.7780 H         1 UNK         0.1150 
    138 H138        2.4071  -17.2314  -47.7847 H         1 UNK         0.1150 
    139 H139        3.2052  -20.4449  -48.8020 H         1 UNK         0.0800 
    140 H140        2.8214  -19.5202  -47.3719 H         1 UNK         0.0800 
    141 H141       -0.7348  -19.6626  -48.3684 H         1 UNK         0.0800 
    142 H142        0.1139  -19.0872  -46.9553 H         1 UNK         0.0800 
    143 H143       -1.6697  -21.5644  -46.9808 H         1 UNK         0.0600 
    144 H144        0.0513  -20.4814  -44.9322 H         1 UNK         0.3000 
    145 H145       -1.3755  -22.3022  -42.2167 H         1 UNK         0.0600 
    146 H146        1.0258  -22.9224  -41.9366 H         1 UNK         0.0600 
    147 H147        0.2477  -23.8807  -43.1877 H         1 UNK         0.0600 
    148 H148        1.3262  -22.5700  -43.6362 H         1 UNK         0.0600 
    149 H149        0.7683  -20.3858  -42.4663 H         1 UNK         0.3000 
    150 H150       -1.2501  -17.4923  -41.9308 H         1 UNK         0.0600 
    151 H151       -0.8833  -18.3618  -39.6190 H         1 UNK         0.0600 
    152 H152        0.3190  -17.1505  -40.0411 H         1 UNK         0.0600 
    153 H153        0.7487  -18.8592  -40.0526 H         1 UNK         0.0600 
    154 H154        1.5608  -17.7830  -42.1423 H         1 UNK         0.3000 
    155 H155        1.8031  -17.8001  -45.7025 H         1 UNK         0.0600 
    156 H156        2.5005  -15.7368  -43.5571 H         1 UNK         0.0600 
    157 H157        1.7049  -15.4088  -45.0734 H         1 UNK         0.0600 
    158 H158        3.3807  -15.9420  -45.0723 H         1 UNK         0.0600 
    159 H159        3.7455  -17.9592  -43.6077 H         1 UNK         0.3000 
    160 H160        3.8456  -21.5172  -43.3711 H         1 UNK         0.0600 
    161 H161        5.7673  -19.5168  -44.6827 H         1 UNK         0.0600 
    162 H162        5.1297  -20.9703  -45.4422 H         1 UNK         0.0600 
    163 H163        6.1949  -21.1076  -44.0522 H         1 UNK         0.0600 
    164 H164        5.4087  -19.3717  -42.2399 H         1 UNK         0.3000 
    165 H165        3.4215  -18.9352  -39.3107 H         1 UNK         0.0600 
    166 H166        5.6023  -19.3893  -38.2346 H         1 UNK         0.0600 
    167 H167        4.9141  -20.8872  -38.8396 H         1 UNK         0.0600 
    168 H168        6.2244  -20.1096  -39.7198 H         1 UNK         0.0600 
    169 H169        5.8161  -17.6566  -40.0679 H         1 UNK         0.3000 
    170 H170        5.4856  -15.2329  -40.4409 H         1 UNK         0.0600 
    171 H171        6.6766  -16.5959  -42.1732 H         1 UNK         0.0600 
    172 H172        5.4431  -16.1991  -43.3638 H         1 UNK         0.0600 
    173 H173        6.4945  -14.9398  -42.7212 H         1 UNK         0.0600 
    174 H174        3.9577  -14.3567  -42.7529 H         1 UNK         0.3000 
    175 H175        1.1706  -13.5206  -41.5346 H         1 UNK         0.0600 
    176 H176        2.8447  -11.0279  -40.9421 H         1 UNK         0.0600 
    177 H177        1.1392  -11.0257  -41.3886 H         1 UNK         0.0600 
    178 H178        1.6519  -11.7622  -39.8803 H         1 UNK         0.0600 
    179 H179        1.4523  -13.0486  -43.6465 H         1 UNK         0.3000 
    180 H180        3.4557  -10.8082  -45.4204 H         1 UNK         0.0600 
    181 H181        3.3024  -13.7982  -46.0586 H         1 UNK         0.0600 
    182 H182        4.8004  -12.9031  -45.8348 H         1 UNK         0.0600 
    183 H183        3.7299  -12.5019  -47.1678 H         1 UNK         0.0600 
    184 H184        1.2699  -12.4838  -46.2147 H         1 UNK         0.3000 
    185 H185       -1.3383  -10.9026  -44.6492 H         1 UNK         0.0600 
    186 H186       -2.2616  -10.0026  -46.7633 H         1 UNK         0.0600 
    187 H187       -0.9817   -8.9528  -46.1818 H         1 UNK         0.0600 
    188 H188       -0.6671  -10.0547  -47.5170 H         1 UNK         0.0600 
    189 H189       -1.5637  -12.3219  -47.0199 H         1 UNK         0.3000 
    190 H190       -3.3868  -20.9521  -44.9746 H         1 UNK         0.3000 
    191 H191       -4.7752  -18.4216  -45.5022 H         1 UNK         0.0600 
    192 H192       -5.6159  -20.9062  -43.9086 H         1 UNK         0.0600 
    193 H193       -6.4666  -19.3651  -43.9336 H         1 UNK         0.0600 
    194 H194       -4.8541  -19.4644  -43.2420 H         1 UNK         0.0600 
    195 H195       -5.1173  -21.8837  -46.3794 H         1 UNK         0.3000 
    196 H196       -6.5253  -21.2440  -48.8131 H         1 UNK         0.0600 
    197 H197       -8.4754  -22.7335  -48.3051 H         1 UNK         0.0600 
    198 H198       -8.4707  -21.3374  -47.2403 H         1 UNK         0.0600 
    199 H199       -7.9300  -22.9050  -46.6399 H         1 UNK         0.0600 
    200 H200       -6.4529  -22.9885  -50.2323 H         1 UNK         0.3000 
    201 H201       -5.7393  -24.7775  -51.2714 H         1 UNK         0.0600 
    202 H202       -7.0983  -26.0034  -49.5716 H         1 UNK         0.0600 
    203 H203       -5.6614  -26.2078  -48.5698 H         1 UNK         0.0600 
    204 H204       -5.7497  -26.9628  -50.1551 H         1 UNK         0.0600 
    205 H205       -3.7327  -22.8308  -50.5182 H         1 UNK         0.3000 
    206 H206       -1.2687  -24.2108  -49.9700 H         1 UNK         0.0600 
    207 H207       -1.6511  -21.7587  -49.5633 H         1 UNK         0.0600 
    208 H208       -0.2144  -22.0812  -50.5217 H         1 UNK         0.0600 
    209 H209       -1.6681  -21.4969  -51.3064 H         1 UNK         0.0600 
    210 H210       -3.1896  -24.1766  -52.7876 H         1 UNK         0.3000 
    211 H211       -3.0361  -25.0734  -54.7793 H         1 UNK         0.0600 
    212 H212       -0.4405  -26.4204  -53.8896 H         1 UNK         0.0600 
    213 H213       -1.4963  -26.9243  -55.2007 H         1 UNK         0.0600 
    214 H214       -2.0633  -27.0173  -53.5422 H         1 UNK         0.0600 
    215 H215       -2.0533  -22.4468  -54.4882 H         1 UNK         0.3000 
    216 H216       -0.0230  -22.0978  -56.6200 H         1 UNK         0.0600 
    217 H217       -0.4948  -19.6758  -56.2798 H         1 UNK         0.0600 
    218 H218       -0.0450  -20.4587  -54.7752 H         1 UNK         0.0600 
    219 H219       -1.7356  -20.0605  -55.0957 H         1 UNK         0.0600 
    220 H220       -3.5194  -21.9546  -56.0224 H         1 UNK         0.3000 
    221 H221       -4.1148  -22.6376  -58.7701 H         1 UNK         0.0600 
    222 H222       -5.0925  -19.9521  -57.6508 H         1 UNK         0.0600 
    223 H223       -4.1133  -20.2041  -59.0876 H         1 UNK         0.0600 
    224 H224       -5.7801  -20.7552  -59.0568 H         1 UNK         0.0600 
    225 H225       -4.3281  -24.4380  -57.2609 H         1 UNK         0.3000 
    226 H226       -5.4281  -25.9778  -56.1236 H         1 UNK         0.0600 
    227 H227       -7.0211  -25.8645  -57.9791 H         1 UNK         0.0600 
    228 H228       -7.9054  -26.1613  -56.4940 H         1 UNK         0.0600 
    229 H229       -7.9182  -24.5571  -57.2221 H         1 UNK         0.0600 
    230 H230       -8.1564  -23.9662  -55.3106 H         1 UNK         0.3000 
    231 H231       -7.8285  -24.3293  -52.4835 H         1 UNK         0.0600 
    232 H232       -9.8757  -22.9058  -52.3688 H         1 UNK         0.0600 
    233 H233      -10.0550  -24.1796  -53.5644 H         1 UNK         0.0600 
    234 H234       -9.7231  -22.5252  -54.0800 H         1 UNK         0.0600 
    235 H235       -6.7097  -21.8569  -54.7050 H         1 UNK         0.3000 
    236 H236       -6.0992  -19.9462  -52.5283 H         1 UNK         0.0600 
    237 H237       -7.0697  -19.0050  -54.5840 H         1 UNK         0.0600 
    238 H238       -5.4011  -18.4733  -54.4316 H         1 UNK         0.0600 
    239 H239       -5.8137  -19.7558  -55.5609 H         1 UNK         0.0600 
    240 H240       -2.4723  -20.4380  -52.7741 H         1 UNK         0.3000 
    241 H241       -4.3250  -18.3502  -52.1857 H         1 UNK         0.0600 
    242 H242       -5.6599  -19.0810  -48.9495 H         1 UNK         0.3800 
    243 H243       -5.3361  -17.8365  -50.1159 H         1 UNK         0.3800 
    244 H244       -2.5631  -17.5977  -50.5905 H         1 UNK         0.0800 
    245 H245       -1.7030  -19.0953  -50.8006 H         1 UNK         0.0800 
    246 H246        0.8033  -17.9705  -53.3808 H         1 UNK         0.0800 
    247 H247        0.1101  -19.4296  -52.7099 H         1 UNK         0.0800 
@<TRIPOS>BOND
     1    1    2 1    
     2    1  127 1    
     3    1  128 1    
     4    1  129 1    
     5    2    3 2    
     6    2    4 am   BACKBONE|DICT|INTERRES
     7    4    5 1    
     8    4  130 1    
     9    5    6 1    
    10    5   65 1    
    11    5  131 1    
    12    6    7 1    
    13    6  132 1    
    14    6  133 1    
    15    7    8 1    
    16    8    9 1    
    17    8  134 1    
    18    8  135 1    
    19    9   10 ar   
    20    9   14 ar   
    21   10   11 ar   
    22   10  136 1    
    23   11   12 ar   
    24   11  126 1    
    25   12   13 ar   
    26   12  137 1    
    27   13   14 ar   
    28   13   15 1    
    29   14  138 1    
    30   15   16 1    
    31   15  139 1    
    32   15  140 1    
    33   16   17 1    
    34   17   18 1    
    35   17  141 1    
    36   17  142 1    
    37   18   19 1    
    38   18   67 1    
    39   18  143 1    
    40   19   20 am   BACKBONE|DICT|INTERRES
    41   19  144 1    
    42   20   21 2    
    43   20   22 1    
    44   22   23 1    
    45   22   24 1    
    46   22  145 1    
    47   23  146 1    
    48   23  147 1    
    49   23  148 1    
    50   24   25 am   BACKBONE|DICT|INTERRES
    51   24  149 1    
    52   25   26 2    
    53   25   27 1    
    54   27   28 1    
    55   27   29 1    
    56   27  150 1    
    57   28  151 1    
    58   28  152 1    
    59   28  153 1    
    60   29   30 am   BACKBONE|DICT|INTERRES
    61   29  154 1    
    62   30   31 2    
    63   30   32 1    
    64   32   33 1    
    65   32   34 1    
    66   32  155 1    
    67   33  156 1    
    68   33  157 1    
    69   33  158 1    
    70   34   35 am   BACKBONE|DICT|INTERRES
    71   34  159 1    
    72   35   36 2    
    73   35   37 1    
    74   37   38 1    
    75   37   39 1    
    76   37  160 1    
    77   38  161 1    
    78   38  162 1    
    79   38  163 1    
    80   39   40 am   BACKBONE|DICT|INTERRES
    81   39  164 1    
    82   40   41 2    
    83   40   42 1    
    84   42   43 1    
    85   42   44 1    
    86   42  165 1    
    87   43  166 1    
    88   43  167 1    
    89   43  168 1    
    90   44   45 am   BACKBONE|DICT|INTERRES
    91   44  169 1    
    92   45   46 2    
    93   45   47 1    
    94   47   48 1    
    95   47   49 1    
    96   47  170 1    
    97   48  171 1    
    98   48  172 1    
    99   48  173 1    
   100   49   50 am   BACKBONE|DICT|INTERRES
   101   49  174 1    
   102   50   51 2    
   103   50   52 1    
   104   52   53 1    
   105   52   54 1    
   106   52  175 1    
   107   53  176 1    
   108   53  177 1    
   109   53  178 1    
   110   54   55 am   BACKBONE|DICT|INTERRES
   111   54  179 1    
   112   55   56 2    
   113   55   57 1    
   114   57   58 1    
   115   57   59 1    
   116   57  180 1    
   117   58  181 1    
   118   58  182 1    
   119   58  183 1    
   120   59   60 am   BACKBONE|DICT|INTERRES
   121   59  184 1    
   122   60   61 2    
   123   60   62 1    
   124   62   63 1    
   125   62   64 1    
   126   62  185 1    
   127   63  186 1    
   128   63  187 1    
   129   63  188 1    
   130   64   65 am   BACKBONE|DICT|INTERRES
   131   64  189 1    
   132   65   66 2    
   133   67   68 2    
   134   67   69 am   BACKBONE|DICT|INTERRES
   135   69   70 1    
   136   69  190 1    
   137   70   71 1    
   138   70   72 1    
   139   70  191 1    
   140   71  192 1    
   141   71  193 1    
   142   71  194 1    
   143   72   73 2    
   144   72   74 am   BACKBONE|DICT|INTERRES
   145   74   75 1    
   146   74  195 1    
   147   75   76 1    
   148   75   77 1    
   149   75  196 1    
   150   76  197 1    
   151   76  198 1    
   152   76  199 1    
   153   77   78 2    
   154   77   79 am   BACKBONE|DICT|INTERRES
   155   79   80 1    
   156   79  200 1    
   157   80   81 1    
   158   80   82 1    
   159   80  201 1    
   160   81  202 1    
   161   81  203 1    
   162   81  204 1    
   163   82   83 2    
   164   82   84 am   BACKBONE|DICT|INTERRES
   165   84   85 1    
   166   84  205 1    
   167   85   86 1    
   168   85   87 1    
   169   85  206 1    
   170   86  207 1    
   171   86  208 1    
   172   86  209 1    
   173   87   88 2    
   174   87   89 am   BACKBONE|DICT|INTERRES
   175   89   90 1    
   176   89  210 1    
   177   90   91 1    
   178   90   92 1    
   179   90  211 1    
   180   91  212 1    
   181   91  213 1    
   182   91  214 1    
   183   92   93 2    
   184   92   94 am   BACKBONE|DICT|INTERRES
   185   94   95 1    
   186   94  215 1    
   187   95   96 1    
   188   95   97 1    
   189   95  216 1    
   190   96  217 1    
   191   96  218 1    
   192   96  219 1    
   193   97   98 2    
   194   97   99 am   BACKBONE|DICT|INTERRES
   195   99  100 1    
   196   99  220 1    
   197  100  101 1    
   198  100  102 1    
   199  100  221 1    
   200  101  222 1    
   201  101  223 1    
   202  101  224 1    
   203  102  103 2    
   204  102  104 am   BACKBONE|DICT|INTERRES
   205  104  105 1    
   206  104  225 1    
   207  105  106 1    
   208  105  107 1    
   209  105  226 1    
   210  106  227 1    
   211  106  228 1    
   212  106  229 1    
   213  107  108 2    
   214  107  109 am   BACKBONE|DICT|INTERRES
   215  109  110 1    
   216  109  230 1    
   217  110  111 1    
   218  110  112 1    
   219  110  231 1    
   220  111  232 1    
   221  111  233 1    
   222  111  234 1    
   223  112  113 2    
   224  112  114 am   BACKBONE|DICT|INTERRES
   225  114  115 1    
   226  114  235 1    
   227  115  116 1    
   228  115  117 1    
   229  115  236 1    
   230  116  237 1    
   231  116  238 1    
   232  116  239 1    
   233  117  118 2    
   234  117  119 am   BACKBONE|DICT|INTERRES
   235  119  120 1    
   236  119  240 1    
   237  120  121 1    
   238  120  124 1    
   239  120  241 1    
   240  121  122 am   BACKBONE|DICT|INTERRES
   241  121  123 2    
   242  122  242 1    
   243  122  243 1    
   244  124  125 1    
   245  124  244 1    
   246  124  245 1    
   247  125  126 1    
   248  126  246 1    
   249  126  247 1    
@<TRIPOS>SUBSTRUCTURE
     1 UNK         1 GROUP             0       ****    0 ROOT    
