@<TRIPOS>MOLECULE
3R540
247   249    1
SMALL
USER_CHARGES


@<TRIPOS>ATOM
      1 CA          5.6656  -11.1559  -48.9204 C.3       0 UNK        -0.1800 
      2 C           4.7622  -12.0458  -48.0795 C.2       0 UNK         0.5000 
      3 O           4.9057  -12.0895  -46.8576 O.2       0 UNK        -0.5000 
      4 N           3.8148  -12.7404  -48.7207 N.am      1 UNK        -0.5000 
      5 CA          2.8522  -13.6734  -48.1172 C.3       1 UNK         0.1400 
      6 C6          2.3675  -14.7333  -49.1417 C.3       23 UNK        -0.0398 
      7 S7          1.6201  -14.0265  -50.6541 S.3       23 UNK        -0.2404 
      8 C8          1.6656  -15.4598  -51.7753 C.3       23 UNK        -0.0205 
      9 C9          0.8000  -16.6060  -51.2728 C.ar      23 UNK        -0.0193 
     10 C10        -0.5904  -16.5483  -51.4054 C.ar      23 UNK        -0.1150 
     11 C11        -1.3921  -17.6002  -50.9522 C.ar      23 UNK        -0.0193 
     12 C12        -0.7921  -18.7172  -50.3633 C.ar      23 UNK        -0.1150 
     13 C13         0.5973  -18.7845  -50.2230 C.ar      23 UNK        -0.0193 
     14 C14         1.3884  -17.7275  -50.6808 C.ar      23 UNK        -0.1150 
     15 C15         1.2430  -20.0025  -49.5850 C.3       23 UNK        -0.0205 
     16 S16         1.4547  -19.7740  -47.7919 S.3       23 UNK        -0.2404 
     17 C17         1.9435  -21.4616  -47.2902 C.3       23 UNK        -0.0398 
     18 CA          0.8283  -22.3408  -46.6644 C.3       11 UNK         0.1400 
     19 N           0.4996  -21.9924  -45.2796 N.am      11 UNK        -0.5000 
     20 C          -0.1598  -22.8206  -44.4531 C.2       10 UNK         0.5000 
     21 O          -0.5392  -23.9466  -44.7789 O.2       10 UNK        -0.5000 
     22 CA         -0.4919  -22.2996  -43.0443 C.3       10 UNK         0.1400 
     23 CB          0.7493  -22.3212  -42.1406 C.3       10 UNK        -0.1800 
     24 N          -1.0700  -20.9579  -43.0595 N.am      10 UNK        -0.5000 
     25 C          -2.2299  -20.6327  -43.6474 C.2       9 UNK         0.5000 
     26 O          -2.9510  -21.4360  -44.2379 O.2       9 UNK        -0.5000 
     27 CA         -2.6296  -19.1498  -43.6004 C.3       9 UNK         0.1400 
     28 CB         -3.2970  -18.7980  -42.2621 C.3       9 UNK        -0.1800 
     29 N          -1.4750  -18.2818  -43.8225 N.am      9 UNK        -0.5000 
     30 C          -0.8787  -18.1264  -45.0123 C.2       8 UNK         0.5000 
     31 O          -1.2785  -18.6571  -46.0474 O.2       8 UNK        -0.5000 
     32 CA          0.3881  -17.2529  -45.0397 C.3       8 UNK         0.1400 
     33 CB          0.0068  -15.7684  -45.1141 C.3       8 UNK        -0.1800 
     34 N           1.2605  -17.4759  -43.8841 N.am      8 UNK        -0.5000 
     35 C           1.9003  -18.6265  -43.6272 C.2       7 UNK         0.5000 
     36 O           1.8476  -19.6188  -44.3524 O.2       7 UNK        -0.5000 
     37 CA          2.6970  -18.7024  -42.3104 C.3       7 UNK         0.1400 
     38 CB          4.1230  -18.1697  -42.5155 C.3       7 UNK        -0.1800 
     39 N           2.0790  -17.9901  -41.1896 N.am      7 UNK        -0.5000 
     40 C           0.8301  -18.1560  -40.7305 C.2       6 UNK         0.5000 
     41 O           0.0296  -18.9477  -41.2292 O.2       6 UNK        -0.5000 
     42 CA          0.3880  -17.2999  -39.5221 C.3       6 UNK         0.1400 
     43 CB         -0.1129  -18.1956  -38.3773 C.3       6 UNK        -0.1800 
     44 N           1.4224  -16.4011  -38.9953 N.am      6 UNK        -0.5000 
     45 C           1.8741  -15.2947  -39.5983 C.2       5 UNK         0.5000 
     46 O           1.4814  -14.9141  -40.7056 O.2       5 UNK        -0.5000 
     47 CA          2.9973  -14.5382  -38.8608 C.3       5 UNK         0.1400 
     48 CB          4.3227  -15.3108  -38.9673 C.3       5 UNK        -0.1800 
     49 N           3.1941  -13.2143  -39.4387 N.am      5 UNK        -0.5000 
     50 C           2.4138  -12.1499  -39.2297 C.2       4 UNK         0.5000 
     51 O           1.5653  -12.0859  -38.3392 O.2       4 UNK        -0.5000 
     52 CA          2.5649  -10.9858  -40.2292 C.3       4 UNK         0.1400 
     53 CB          3.8279  -10.1472  -39.9527 C.3       4 UNK        -0.1800 
     54 N           2.4845  -11.4333  -41.6290 N.am      4 UNK        -0.5000 
     55 C           3.3494  -12.1853  -42.3306 C.2       3 UNK         0.5000 
     56 O           4.4564  -12.5213  -41.9074 O.2       3 UNK        -0.5000 
     57 CA          2.8715  -12.6982  -43.7043 C.3       3 UNK         0.1400 
     58 CB          3.3711  -14.1302  -43.9733 C.3       3 UNK        -0.1800 
     59 N           1.4042  -12.6906  -43.7700 N.am      3 UNK        -0.5000 
     60 C           0.5766  -11.9798  -44.5543 C.2       2 UNK         0.5000 
     61 O          -0.6344  -11.9837  -44.3425 O.2       2 UNK        -0.5000 
     62 CA          1.1011  -11.1617  -45.7568 C.3       2 UNK         0.1400 
     63 CB          1.7231   -9.8226  -45.3234 C.3       2 UNK        -0.1800 
     64 N           2.0216  -11.9033  -46.6170 N.am      2 UNK        -0.5000 
     65 C           1.6954  -12.9642  -47.3656 C.2       1 UNK         0.5000 
     66 O           0.5407  -13.3796  -47.4686 O.2       1 UNK        -0.5000 
     67 C          -0.4338  -22.4551  -47.5430 C.2       11 UNK         0.5000 
     68 O          -0.5105  -23.3749  -48.3555 O.2       11 UNK        -0.5000 
     69 N          -1.4169  -21.5629  -47.3407 N.am      12 UNK        -0.5000 
     70 CA         -2.7072  -21.6025  -48.0284 C.3       12 UNK         0.1400 
     71 CB         -3.5137  -20.3326  -47.7244 C.3       12 UNK        -0.1800 
     72 C          -3.5169  -22.8637  -47.6862 C.2       12 UNK         0.5000 
     73 O          -4.0923  -23.4668  -48.5897 O.2       12 UNK        -0.5000 
     74 N          -3.5159  -23.2707  -46.4100 N.am      13 UNK        -0.5000 
     75 CA         -4.1344  -24.5132  -45.9481 C.3       13 UNK         0.1400 
     76 CB         -4.1231  -24.5590  -44.4126 C.3       13 UNK        -0.1800 
     77 C          -3.4592  -25.7634  -46.5422 C.2       13 UNK         0.5000 
     78 O          -4.1575  -26.6719  -46.9935 O.2       13 UNK        -0.5000 
     79 N          -2.1189  -25.7742  -46.5576 N.am      14 UNK        -0.5000 
     80 CA         -1.3047  -26.8635  -47.0979 C.3       14 UNK         0.1400 
     81 CB          0.1615  -26.6533  -46.6901 C.3       14 UNK        -0.1800 
     82 C          -1.4253  -27.0159  -48.6261 C.2       14 UNK         0.5000 
     83 O          -1.5449  -28.1394  -49.1161 O.2       14 UNK        -0.5000 
     84 N          -1.3929  -25.8893  -49.3494 N.am      15 UNK        -0.5000 
     85 CA         -1.4053  -25.8361  -50.8131 C.3       15 UNK         0.1400 
     86 CB         -0.5793  -24.6217  -51.2692 C.3       15 UNK        -0.1800 
     87 C          -2.8205  -25.7943  -51.4229 C.2       15 UNK         0.5000 
     88 O          -2.9331  -25.6641  -52.6424 O.2       15 UNK        -0.5000 
     89 N          -3.8683  -25.8708  -50.5881 N.am      16 UNK        -0.5000 
     90 CA         -5.2915  -25.8182  -50.9485 C.3       16 UNK         0.1400 
     91 CB         -5.7005  -27.0791  -51.7381 C.3       16 UNK        -0.1800 
     92 C          -5.6520  -24.5079  -51.6783 C.2       16 UNK         0.5000 
     93 O          -6.1385  -24.5292  -52.8110 O.2       16 UNK        -0.5000 
     94 N          -5.3361  -23.3845  -51.0199 N.am      17 UNK        -0.5000 
     95 CA         -5.4527  -22.0047  -51.4994 C.3       17 UNK         0.1400 
     96 CB         -6.9358  -21.6068  -51.6560 C.3       17 UNK        -0.1800 
     97 C          -4.6063  -21.7569  -52.7642 C.2       17 UNK         0.5000 
     98 O          -5.0590  -21.0746  -53.6824 O.2       17 UNK        -0.5000 
     99 N          -3.4037  -22.3539  -52.7879 N.am      18 UNK        -0.5000 
    100 CA        -2.4478  -22.3834  -53.9008 C.3       18 UNK         0.1400 
    101 CB        -1.8483  -20.9830  -54.1408 C.3       18 UNK        -0.1800 
    102 C         -3.0674  -23.0073  -55.1677 C.2       18 UNK         0.5000 
    103 O         -3.0484  -22.3951  -56.2351 O.2       18 UNK        -0.5000 
    104 N         -3.6581  -24.2005  -55.0035 N.am      19 UNK        -0.5000 
    105 CA        -4.4661  -24.9260  -55.9908 C.3       19 UNK         0.1400 
    106 CB        -3.5807  -25.4597  -57.1358 C.3       19 UNK        -0.1800 
    107 C         -5.6649  -24.0861  -56.4852 C.2       19 UNK         0.5000 
    108 O         -5.9024  -23.9788  -57.6895 O.2       19 UNK        -0.5000 
    109 N         -6.3693  -23.4763  -55.5220 N.am      20 UNK        -0.5000 
    110 CA        -7.5124  -22.5678  -55.6581 C.3       20 UNK         0.1400 
    111 CB        -8.6983  -23.2713  -56.3496 C.3       20 UNK        -0.1800 
    112 C         -7.2047  -21.1931  -56.2943 C.2       20 UNK         0.5000 
    113 O         -8.1353  -20.4022  -56.4623 O.2       20 UNK        -0.5000 
    114 N         -5.9349  -20.8891  -56.6051 N.am      21 UNK        -0.5000 
    115 CA        -5.5091  -19.6170  -57.2001 C.3       21 UNK         0.1400 
    116 CB        -4.0394  -19.7082  -57.6331 C.3       21 UNK        -0.1800 
    117 C         -5.7228  -18.3971  -56.2824 C.2       21 UNK         0.5000 
    118 O         -5.9627  -17.3001  -56.7893 O.2       21 UNK        -0.5000 
    119 N         -5.6623  -18.6074  -54.9616 N.am      22 UNK        -0.5000 
    120 CA        -5.9857  -17.5998  -53.9382 C.3       22 UNK         0.1400 
    121 C         -7.5156  -17.4141  -53.6999 C.2       22 UNK         0.5000 
    122 N         -8.4006  -18.1663  -54.3458 N.am      22 UNK        -0.7600 
    123 O         -7.9131  -16.5569  -52.9155 O.2       22 UNK        -0.5000 
    124 C124       -5.2434  -17.8628  -52.6009 C.3       23 UNK        -0.0398 
    125 S125       -3.4301  -17.9291  -52.7843 S.3       23 UNK        -0.2404 
    126 C126       -2.9040  -17.5225  -51.0927 C.3       23 UNK        -0.0205 
    127 H127        6.7056  -11.4605  -48.8030 H         1 UNK         0.0600 
    128 H128        5.5743  -10.1183  -48.5987 H         1 UNK         0.0600 
    129 H129        5.4130  -11.2076  -49.9798 H         1 UNK         0.0600 
    130 H130        3.7178  -12.6290  -49.7205 H         1 UNK         0.3000 
    131 H131        3.3892  -14.2284  -47.3455 H         1 UNK         0.0600 
    132 H132        3.2174  -15.3487  -49.4399 H         1 UNK         0.0800 
    133 H133        1.6567  -15.4231  -48.6822 H         1 UNK         0.0800 
    134 H134        2.6989  -15.7838  -51.9090 H         1 UNK         0.0800 
    135 H135        1.3152  -15.1484  -52.7603 H         1 UNK         0.0800 
    136 H136       -1.0496  -15.6825  -51.8618 H         1 UNK         0.1150 
    137 H137       -1.4050  -19.5338  -50.0101 H         1 UNK         0.1150 
    138 H138        2.4627  -17.7781  -50.5720 H         1 UNK         0.1150 
    139 H139        0.6318  -20.8849  -49.7794 H         1 UNK         0.0800 
    140 H140        2.2146  -20.1951  -50.0425 H         1 UNK         0.0800 
    141 H141        2.3650  -21.9745  -48.1562 H         1 UNK         0.0800 
    142 H142        2.7698  -21.3702  -46.5840 H         1 UNK         0.0800 
    143 H143        1.2489  -23.3481  -46.6216 H         1 UNK         0.0600 
    144 H144        0.8119  -21.0822  -44.9483 H         1 UNK         0.3000 
    145 H145       -1.2362  -22.9702  -42.6099 H         1 UNK         0.0600 
    146 H146        0.5157  -21.9636  -41.1375 H         1 UNK         0.0600 
    147 H147        1.5492  -21.6996  -42.5408 H         1 UNK         0.0600 
    148 H148        1.1410  -23.3344  -42.0438 H         1 UNK         0.0600 
    149 H149       -0.5625  -20.2329  -42.5607 H         1 UNK         0.3000 
    150 H150       -3.3559  -18.9717  -44.3964 H         1 UNK         0.0600 
    151 H151       -4.1850  -19.4101  -42.0997 H         1 UNK         0.0600 
    152 H152       -3.6134  -17.7550  -42.2420 H         1 UNK         0.0600 
    153 H153       -2.6288  -18.9621  -41.4165 H         1 UNK         0.0600 
    154 H154       -1.0454  -17.8777  -43.0027 H         1 UNK         0.3000 
    155 H155        0.9488  -17.5041  -45.9416 H         1 UNK         0.0600 
    156 H156       -0.6610  -15.5774  -45.9554 H         1 UNK         0.0600 
    157 H157        0.8861  -15.1453  -45.2599 H         1 UNK         0.0600 
    158 H158       -0.4992  -15.4306  -44.2090 H         1 UNK         0.0600 
    159 H159        1.3452  -16.7211  -43.2192 H         1 UNK         0.3000 
    160 H160        2.7655  -19.7535  -42.0265 H         1 UNK         0.0600 
    161 H161        4.1256  -17.1060  -42.7565 H         1 UNK         0.0600 
    162 H162        4.6217  -18.6927  -43.3328 H         1 UNK         0.0600 
    163 H163        4.7307  -18.3127  -41.6218 H         1 UNK         0.0600 
    164 H164        2.6564  -17.3099  -40.7202 H         1 UNK         0.3000 
    165 H165       -0.4497  -16.6878  -39.8625 H         1 UNK         0.0600 
    166 H166       -0.4923  -17.6000  -37.5469 H         1 UNK         0.0600 
    167 H167       -0.9285  -18.8401  -38.7083 H         1 UNK         0.0600 
    168 H168        0.6799  -18.8399  -37.9955 H         1 UNK         0.0600 
    169 H169        1.8149  -16.6596  -38.1010 H         1 UNK         0.3000 
    170 H170        2.7235  -14.4366  -37.8086 H         1 UNK         0.0600 
    171 H171        4.6252  -15.4499  -40.0064 H         1 UNK         0.0600 
    172 H172        5.1269  -14.7824  -38.4548 H         1 UNK         0.0600 
    173 H173        4.2457  -16.2984  -38.5112 H         1 UNK         0.0600 
    174 H174        3.8234  -13.1615  -40.2346 H         1 UNK         0.3000 
    175 H175        1.7047  -10.3310  -40.0809 H         1 UNK         0.0600 
    176 H176        4.7410  -10.7386  -40.0197 H         1 UNK         0.0600 
    177 H177        3.9120   -9.3187  -40.6560 H         1 UNK         0.0600 
    178 H178        3.7941   -9.7204  -38.9497 H         1 UNK         0.0600 
    179 H179        1.5963  -11.2459  -42.0724 H         1 UNK         0.3000 
    180 H180        3.3266  -12.0403  -44.4396 H         1 UNK         0.0600 
    181 H181        2.9858  -14.8345  -43.2351 H         1 UNK         0.0600 
    182 H182        4.4601  -14.1827  -43.9431 H         1 UNK         0.0600 
    183 H183        3.0687  -14.4771  -44.9593 H         1 UNK         0.0600 
    184 H184        0.9721  -13.2323  -43.0343 H         1 UNK         0.3000 
    185 H185        0.2301  -10.9165  -46.3686 H         1 UNK         0.0600 
    186 H186        2.6486   -9.9459  -44.7632 H         1 UNK         0.0600 
    187 H187        1.9437   -9.1986  -46.1896 H         1 UNK         0.0600 
    188 H188        1.0334   -9.2618  -44.6914 H         1 UNK         0.0600 
    189 H189        3.0041  -11.6553  -46.5709 H         1 UNK         0.3000 
    190 H190       -1.2718  -20.8065  -46.6821 H         1 UNK         0.3000 
    191 H191       -2.5083  -21.6239  -49.1019 H         1 UNK         0.0600 
    192 H192       -2.9810  -19.4396  -48.0511 H         1 UNK         0.0600 
    193 H193       -3.7148  -20.2293  -46.6578 H         1 UNK         0.0600 
    194 H194       -4.4741  -20.3449  -48.2411 H         1 UNK         0.0600 
    195 H195       -3.0695  -22.6909  -45.7046 H         1 UNK         0.3000 
    196 H196       -5.1755  -24.5105  -46.2775 H         1 UNK         0.0600 
    197 H197       -4.6770  -23.7202  -43.9907 H         1 UNK         0.0600 
    198 H198       -3.1090  -24.5219  -44.0142 H         1 UNK         0.0600 
    199 H199       -4.5884  -25.4743  -44.0450 H         1 UNK         0.0600 
    200 H200       -1.6195  -25.0001  -46.1307 H         1 UNK         0.3000 
    201 H201       -1.6498  -27.7949  -46.6441 H         1 UNK         0.0600 
    202 H202        0.2683  -26.6219  -45.6057 H         1 UNK         0.0600 
    203 H203        0.5613  -25.7219  -47.0920 H         1 UNK         0.0600 
    204 H204        0.7900  -27.4662  -47.0560 H         1 UNK         0.0600 
    205 H205       -1.2490  -25.0014  -48.8724 H         1 UNK         0.3000 
    206 H206       -0.9175  -26.7309  -51.2050 H         1 UNK         0.0600 
    207 H207        0.4103  -24.6232  -50.8119 H         1 UNK         0.0600 
    208 H208       -1.0656  -23.6808  -51.0089 H         1 UNK         0.0600 
    209 H209       -0.4308  -24.6340  -52.3490 H         1 UNK         0.0600 
    210 H210       -3.6693  -25.9237  -49.5982 H         1 UNK         0.3000 
    211 H211       -5.8502  -25.8176  -50.0114 H         1 UNK         0.0600 
    212 H212       -5.1992  -27.1369  -52.7047 H         1 UNK         0.0600 
    213 H213       -6.7745  -27.0873  -51.9275 H         1 UNK         0.0600 
    214 H214       -5.4615  -27.9856  -51.1822 H         1 UNK         0.0600 
    215 H215       -4.9091  -23.4858  -50.0974 H         1 UNK         0.3000 
    216 H216       -5.0228  -21.3688  -50.7244 H         1 UNK         0.0600 
    217 H217       -7.0449  -20.5747  -51.9878 H         1 UNK         0.0600 
    218 H218       -7.4634  -21.6962  -50.7066 H         1 UNK         0.0600 
    219 H219       -7.4520  -22.2359  -52.3790 H         1 UNK         0.0600 
    220 H220       -3.1626  -22.9286  -51.9948 H         1 UNK         0.3000 
    221 H221       -1.6331  -23.0419  -53.6014 H         1 UNK         0.0600 
    222 H222       -2.5999  -20.2769  -54.4932 H         1 UNK         0.0600 
    223 H223       -1.4120  -20.5774  -53.2277 H         1 UNK         0.0600 
    224 H224       -1.0587  -21.0199  -54.8918 H         1 UNK         0.0600 
    225 H225       -3.5879  -24.6450  -54.0905 H         1 UNK         0.3000 
    226 H226       -4.8875  -25.7863  -55.4685 H         1 UNK         0.0600 
    227 H227       -2.7593  -26.0627  -56.7489 H         1 UNK         0.0600 
    228 H228       -4.1574  -26.0921  -57.8116 H         1 UNK         0.0600 
    229 H229       -3.1529  -24.6517  -57.7299 H         1 UNK         0.0600 
    230 H230       -6.0973  -23.6689  -54.5611 H         1 UNK         0.3000 
    231 H231       -7.8247  -22.3467  -54.6383 H         1 UNK         0.0600 
    232 H232       -9.6001  -22.6601  -56.2983 H         1 UNK         0.0600 
    233 H233       -8.9269  -24.2228  -55.8695 H         1 UNK         0.0600 
    234 H234       -8.4984  -23.4647  -57.4036 H         1 UNK         0.0600 
    235 H235       -5.2055  -21.5585  -56.3934 H         1 UNK         0.3000 
    236 H236       -6.1123  -19.4601  -58.0966 H         1 UNK         0.0600 
    237 H237       -3.3753  -19.8094  -56.7746 H         1 UNK         0.0600 
    238 H238       -3.8715  -20.5597  -58.2928 H         1 UNK         0.0600 
    239 H239       -3.7368  -18.8111  -58.1744 H         1 UNK         0.0600 
    240 H240       -5.4455  -19.5408  -54.6158 H         1 UNK         0.3000 
    241 H241       -5.6341  -16.6339  -54.3055 H         1 UNK         0.0600 
    242 H242       -9.3834  -18.0208  -54.1781 H         1 UNK         0.3800 
    243 H243       -8.1092  -18.8598  -55.0236 H         1 UNK         0.3800 
    244 H244       -5.5767  -18.7975  -52.1523 H         1 UNK         0.0800 
    245 H245       -5.4816  -17.0778  -51.8810 H         1 UNK         0.0800 
    246 H246       -3.3863  -18.2041  -50.3902 H         1 UNK         0.0800 
    247 H247       -3.2445  -16.5183  -50.8355 H         1 UNK         0.0800 
@<TRIPOS>BOND
     1    1    2 1    
     2    1  127 1    
     3    1  128 1    
     4    1  129 1    
     5    2    3 2    
     6    2    4 am   BACKBONE|DICT|INTERRES
     7    4    5 1    
     8    4  130 1    
     9    5    6 1    
    10    5   65 1    
    11    5  131 1    
    12    6    7 1    
    13    6  132 1    
    14    6  133 1    
    15    7    8 1    
    16    8    9 1    
    17    8  134 1    
    18    8  135 1    
    19    9   10 ar   
    20    9   14 ar   
    21   10   11 ar   
    22   10  136 1    
    23   11   12 ar   
    24   11  126 1    
    25   12   13 ar   
    26   12  137 1    
    27   13   14 ar   
    28   13   15 1    
    29   14  138 1    
    30   15   16 1    
    31   15  139 1    
    32   15  140 1    
    33   16   17 1    
    34   17   18 1    
    35   17  141 1    
    36   17  142 1    
    37   18   19 1    
    38   18   67 1    
    39   18  143 1    
    40   19   20 am   BACKBONE|DICT|INTERRES
    41   19  144 1    
    42   20   21 2    
    43   20   22 1    
    44   22   23 1    
    45   22   24 1    
    46   22  145 1    
    47   23  146 1    
    48   23  147 1    
    49   23  148 1    
    50   24   25 am   BACKBONE|DICT|INTERRES
    51   24  149 1    
    52   25   26 2    
    53   25   27 1    
    54   27   28 1    
    55   27   29 1    
    56   27  150 1    
    57   28  151 1    
    58   28  152 1    
    59   28  153 1    
    60   29   30 am   BACKBONE|DICT|INTERRES
    61   29  154 1    
    62   30   31 2    
    63   30   32 1    
    64   32   33 1    
    65   32   34 1    
    66   32  155 1    
    67   33  156 1    
    68   33  157 1    
    69   33  158 1    
    70   34   35 am   BACKBONE|DICT|INTERRES
    71   34  159 1    
    72   35   36 2    
    73   35   37 1    
    74   37   38 1    
    75   37   39 1    
    76   37  160 1    
    77   38  161 1    
    78   38  162 1    
    79   38  163 1    
    80   39   40 am   BACKBONE|DICT|INTERRES
    81   39  164 1    
    82   40   41 2    
    83   40   42 1    
    84   42   43 1    
    85   42   44 1    
    86   42  165 1    
    87   43  166 1    
    88   43  167 1    
    89   43  168 1    
    90   44   45 am   BACKBONE|DICT|INTERRES
    91   44  169 1    
    92   45   46 2    
    93   45   47 1    
    94   47   48 1    
    95   47   49 1    
    96   47  170 1    
    97   48  171 1    
    98   48  172 1    
    99   48  173 1    
   100   49   50 am   BACKBONE|DICT|INTERRES
   101   49  174 1    
   102   50   51 2    
   103   50   52 1    
   104   52   53 1    
   105   52   54 1    
   106   52  175 1    
   107   53  176 1    
   108   53  177 1    
   109   53  178 1    
   110   54   55 am   BACKBONE|DICT|INTERRES
   111   54  179 1    
   112   55   56 2    
   113   55   57 1    
   114   57   58 1    
   115   57   59 1    
   116   57  180 1    
   117   58  181 1    
   118   58  182 1    
   119   58  183 1    
   120   59   60 am   BACKBONE|DICT|INTERRES
   121   59  184 1    
   122   60   61 2    
   123   60   62 1    
   124   62   63 1    
   125   62   64 1    
   126   62  185 1    
   127   63  186 1    
   128   63  187 1    
   129   63  188 1    
   130   64   65 am   BACKBONE|DICT|INTERRES
   131   64  189 1    
   132   65   66 2    
   133   67   68 2    
   134   67   69 am   BACKBONE|DICT|INTERRES
   135   69   70 1    
   136   69  190 1    
   137   70   71 1    
   138   70   72 1    
   139   70  191 1    
   140   71  192 1    
   141   71  193 1    
   142   71  194 1    
   143   72   73 2    
   144   72   74 am   BACKBONE|DICT|INTERRES
   145   74   75 1    
   146   74  195 1    
   147   75   76 1    
   148   75   77 1    
   149   75  196 1    
   150   76  197 1    
   151   76  198 1    
   152   76  199 1    
   153   77   78 2    
   154   77   79 am   BACKBONE|DICT|INTERRES
   155   79   80 1    
   156   79  200 1    
   157   80   81 1    
   158   80   82 1    
   159   80  201 1    
   160   81  202 1    
   161   81  203 1    
   162   81  204 1    
   163   82   83 2    
   164   82   84 am   BACKBONE|DICT|INTERRES
   165   84   85 1    
   166   84  205 1    
   167   85   86 1    
   168   85   87 1    
   169   85  206 1    
   170   86  207 1    
   171   86  208 1    
   172   86  209 1    
   173   87   88 2    
   174   87   89 am   BACKBONE|DICT|INTERRES
   175   89   90 1    
   176   89  210 1    
   177   90   91 1    
   178   90   92 1    
   179   90  211 1    
   180   91  212 1    
   181   91  213 1    
   182   91  214 1    
   183   92   93 2    
   184   92   94 am   BACKBONE|DICT|INTERRES
   185   94   95 1    
   186   94  215 1    
   187   95   96 1    
   188   95   97 1    
   189   95  216 1    
   190   96  217 1    
   191   96  218 1    
   192   96  219 1    
   193   97   98 2    
   194   97   99 am   BACKBONE|DICT|INTERRES
   195   99  100 1    
   196   99  220 1    
   197  100  101 1    
   198  100  102 1    
   199  100  221 1    
   200  101  222 1    
   201  101  223 1    
   202  101  224 1    
   203  102  103 2    
   204  102  104 am   BACKBONE|DICT|INTERRES
   205  104  105 1    
   206  104  225 1    
   207  105  106 1    
   208  105  107 1    
   209  105  226 1    
   210  106  227 1    
   211  106  228 1    
   212  106  229 1    
   213  107  108 2    
   214  107  109 am   BACKBONE|DICT|INTERRES
   215  109  110 1    
   216  109  230 1    
   217  110  111 1    
   218  110  112 1    
   219  110  231 1    
   220  111  232 1    
   221  111  233 1    
   222  111  234 1    
   223  112  113 2    
   224  112  114 am   BACKBONE|DICT|INTERRES
   225  114  115 1    
   226  114  235 1    
   227  115  116 1    
   228  115  117 1    
   229  115  236 1    
   230  116  237 1    
   231  116  238 1    
   232  116  239 1    
   233  117  118 2    
   234  117  119 am   BACKBONE|DICT|INTERRES
   235  119  120 1    
   236  119  240 1    
   237  120  121 1    
   238  120  124 1    
   239  120  241 1    
   240  121  122 am   BACKBONE|DICT|INTERRES
   241  121  123 2    
   242  122  242 1    
   243  122  243 1    
   244  124  125 1    
   245  124  244 1    
   246  124  245 1    
   247  125  126 1    
   248  126  246 1    
   249  126  247 1    
@<TRIPOS>SUBSTRUCTURE
     1 UNK         1 GROUP             0       ****    0 ROOT    
