@<TRIPOS>MOLECULE
3R540
247   249    1
SMALL
USER_CHARGES


@<TRIPOS>ATOM
      1 CA          6.8963  -16.6018  -45.2070 C.3       0 UNK        -0.1800 
      2 C           5.5260  -15.9541  -45.3365 C.2       0 UNK         0.5000 
      3 O           5.0624  -15.3067  -44.3993 O.2       0 UNK        -0.5000 
      4 N           4.8851  -16.0998  -46.5036 N.am      1 UNK        -0.5000 
      5 CA          3.5374  -15.6022  -46.8235 C.3       1 UNK         0.1400 
      6 C6          2.9963  -16.2132  -48.1364 C.3       23 UNK        -0.0398 
      7 S7          4.0716  -15.9428  -49.5884 S.3       23 UNK        -0.2404 
      8 C8          2.8484  -15.9648  -50.9429 C.3       23 UNK        -0.0205 
      9 C9          1.9490  -17.1967  -50.9207 C.ar      23 UNK        -0.0193 
     10 C10         0.5612  -17.0518  -51.0028 C.ar      23 UNK        -0.1150 
     11 C11        -0.2809  -18.1713  -50.9861 C.ar      23 UNK        -0.0193 
     12 C12         0.2839  -19.4416  -50.8362 C.ar      23 UNK        -0.1150 
     13 C13         1.6695  -19.6004  -50.7357 C.ar      23 UNK        -0.0193 
     14 C14         2.4962  -18.4778  -50.8104 C.ar      23 UNK        -0.1150 
     15 C15         2.2745  -20.9808  -50.5213 C.3       23 UNK        -0.0205 
     16 S16         3.1751  -21.1182  -48.9361 S.3       23 UNK        -0.2404 
     17 C17         1.9147  -20.6278  -47.7058 C.3       23 UNK        -0.0398 
     18 CA          1.1875  -21.8191  -47.0391 C.3       11 UNK         0.1400 
     19 N           0.4384  -21.3919  -45.8543 N.am      11 UNK        -0.5000 
     20 C          -0.1917  -22.2119  -45.0012 C.2       10 UNK         0.5000 
     21 O          -0.1536  -23.4400  -45.0769 O.2       10 UNK        -0.5000 
     22 CA         -1.0499  -21.5471  -43.9089 C.3       10 UNK         0.1400 
     23 CB         -0.1756  -21.0760  -42.7378 C.3       10 UNK        -0.1800 
     24 N          -1.8453  -20.4278  -44.4203 N.am      10 UNK        -0.5000 
     25 C          -2.8196  -20.5515  -45.3339 C.2       9 UNK         0.5000 
     26 O          -3.1817  -21.6302  -45.7993 O.2       9 UNK        -0.5000 
     27 CA         -3.4720  -19.2583  -45.8532 C.3       9 UNK         0.1400 
     28 CB         -4.5524  -18.7606  -44.8824 C.3       9 UNK        -0.1800 
     29 N          -2.5009  -18.1944  -46.1024 N.am      9 UNK        -0.5000 
     30 C          -1.5161  -18.2595  -47.0092 C.2       8 UNK         0.5000 
     31 O          -1.3506  -19.2138  -47.7680 O.2       8 UNK        -0.5000 
     32 CA         -0.5055  -17.0978  -47.0195 C.3       8 UNK         0.1400 
     33 CB         -1.0630  -15.8692  -47.7532 C.3       8 UNK        -0.1800 
     34 N          -0.0950  -16.7188  -45.6660 N.am      8 UNK        -0.5000 
     35 C           0.5888  -17.5199  -44.8366 C.2       7 UNK         0.5000 
     36 O           1.0215  -18.6249  -45.1617 O.2       7 UNK        -0.5000 
     37 CA          0.7815  -17.0293  -43.3924 C.3       7 UNK         0.1400 
     38 CB          2.0402  -16.1653  -43.2641 C.3       7 UNK        -0.1800 
     39 N          -0.3805  -16.2884  -42.9041 N.am      7 UNK        -0.5000 
     40 C          -1.5393  -16.8702  -42.5629 C.2       6 UNK         0.5000 
     41 O          -1.7293  -18.0852  -42.6110 O.2       6 UNK        -0.5000 
     42 CA         -2.6923  -15.9409  -42.1394 C.3       6 UNK         0.1400 
     43 CB         -2.5616  -15.5564  -40.6582 C.3       6 UNK        -0.1800 
     44 N          -2.7694  -14.7252  -42.9491 N.am      6 UNK        -0.5000 
     45 C          -3.0008  -14.7011  -44.2690 C.2       5 UNK         0.5000 
     46 O          -3.2360  -15.7069  -44.9359 O.2       5 UNK        -0.5000 
     47 CA         -2.9152  -13.3348  -44.9750 C.3       5 UNK         0.1400 
     48 CB         -4.3167  -12.7291  -45.1397 C.3       5 UNK        -0.1800 
     49 N          -2.0471  -12.3634  -44.3024 N.am      5 UNK        -0.5000 
     50 C          -0.7350  -12.5206  -44.0773 C.2       4 UNK         0.5000 
     51 O          -0.1139  -13.5393  -44.3911 O.2       4 UNK        -0.5000 
     52 CA         -0.0345  -11.3298  -43.3888 C.3       4 UNK         0.1400 
     53 CB         -0.6639  -11.0092  -42.0153 C.3       4 UNK        -0.1800 
     54 N           1.4191  -11.4825  -43.2740 N.am      4 UNK        -0.5000 
     55 C           2.1141  -12.3547  -42.5315 C.2       3 UNK         0.5000 
     56 O           1.5999  -13.1729  -41.7663 O.2       3 UNK        -0.5000 
     57 CA          3.6515  -12.2785  -42.6733 C.3       3 UNK         0.1400 
     58 CB          4.3844  -13.3005  -41.7858 C.3       3 UNK        -0.1800 
     59 N           4.0952  -12.4498  -44.0601 N.am      3 UNK        -0.5000 
     60 C           4.0459  -11.5100  -45.0179 C.2       2 UNK         0.5000 
     61 O           3.6169  -10.3718  -44.8216 O.2       2 UNK        -0.5000 
     62 CA          4.5341  -11.8917  -46.4317 C.3       2 UNK         0.1400 
     63 CB          5.9660  -11.3849  -46.6602 C.3       2 UNK        -0.1800 
     64 N           4.4971  -13.3308  -46.6840 N.am      2 UNK        -0.5000 
     65 C           3.3808  -14.0633  -46.7951 C.2       1 UNK         0.5000 
     66 O           2.2540  -13.5714  -46.8473 O.2       1 UNK        -0.5000 
     67 C           0.2809  -22.5692  -48.0363 C.2       11 UNK         0.5000 
     68 O           0.6448  -23.6534  -48.4929 O.2       11 UNK        -0.5000 
     69 N          -0.8996  -22.0022  -48.3233 N.am      12 UNK        -0.5000 
     70 CA         -1.9176  -22.6124  -49.1748 C.3       12 UNK         0.1400 
     71 CB         -3.0723  -21.6306  -49.3944 C.3       12 UNK        -0.1800 
     72 C          -2.4338  -23.9476  -48.6142 C.2       12 UNK         0.5000 
     73 O          -2.5076  -24.9188  -49.3629 O.2       12 UNK        -0.5000 
     74 N          -2.7243  -23.9945  -47.3065 N.am      13 UNK        -0.5000 
     75 CA         -3.1547  -25.1989  -46.5952 C.3       13 UNK         0.1400 
     76 CB         -3.5354  -24.8439  -45.1505 C.3       13 UNK        -0.1800 
     77 C          -2.1018  -26.3217  -46.6250 C.2       13 UNK         0.5000 
     78 O          -2.4608  -27.4769  -46.8534 O.2       13 UNK        -0.5000 
     79 N          -0.8209  -25.9627  -46.4542 N.am      14 UNK        -0.5000 
     80 CA          0.3212  -26.8731  -46.5793 C.3       14 UNK         0.1400 
     81 CB          1.5967  -26.1647  -46.0989 C.3       14 UNK        -0.1800 
     82 C           0.5024  -27.4205  -48.0099 C.2       14 UNK         0.5000 
     83 O           0.8906  -28.5775  -48.1735 O.2       14 UNK        -0.5000 
     84 N           0.1806  -26.5958  -49.0152 N.am      15 UNK        -0.5000 
     85 CA          0.1540  -26.9581  -50.4342 C.3       15 UNK         0.1400 
     86 CB          0.3319  -25.6789  -51.2699 C.3       15 UNK        -0.1800 
     87 C          -1.1262  -27.7158  -50.8555 C.2       15 UNK         0.5000 
     88 O          -1.2124  -28.1414  -52.0083 O.2       15 UNK        -0.5000 
     89 N          -2.0909  -27.8639  -49.9339 N.am      16 UNK        -0.5000 
     90 CA         -3.4191  -28.4637  -50.1040 C.3       16 UNK         0.1400 
     91 CB         -3.3115  -29.9672  -50.4351 C.3       16 UNK        -0.1800 
     92 C          -4.3192  -27.6826  -51.0876 C.2       16 UNK         0.5000 
     93 O          -5.1062  -28.2852  -51.8208 O.2       16 UNK        -0.5000 
     94 N          -4.1918  -26.3520  -51.0753 N.am      17 UNK        -0.5000 
     95 CA         -4.9688  -25.4007  -51.8631 C.3       17 UNK         0.1400 
     96 CB         -3.9842  -24.5264  -52.6589 C.3       17 UNK        -0.1800 
     97 C          -5.8315  -24.5247  -50.9373 C.2       17 UNK         0.5000 
     98 O          -5.6295  -24.5076  -49.7203 O.2       17 UNK        -0.5000 
     99 N          -6.7719  -23.7860  -51.5373 N.am      18 UNK        -0.5000 
    100 CA        -7.5350  -22.7321  -50.8683 C.3       18 UNK         0.1400 
    101 CB        -8.7783  -22.4076  -51.7110 C.3       18 UNK        -0.1800 
    102 C         -6.6697  -21.4715  -50.6966 C.2       18 UNK         0.5000 
    103 O         -5.8227  -21.1971  -51.5478 O.2       18 UNK        -0.5000 
    104 N         -6.9270  -20.6901  -49.6399 N.am      19 UNK        -0.5000 
    105 CA        -6.1933  -19.4578  -49.3173 C.3       19 UNK         0.1400 
    106 CB        -6.6853  -18.9206  -47.9650 C.3       19 UNK        -0.1800 
    107 C         -6.2773  -18.3607  -50.3995 C.2       19 UNK         0.5000 
    108 O         -5.3795  -17.5246  -50.4856 O.2       19 UNK        -0.5000 
    109 N         -7.3422  -18.3946  -51.2104 N.am      20 UNK        -0.5000 
    110 CA        -7.5706  -17.4876  -52.3332 C.3       20 UNK         0.1400 
    111 CB        -9.0863  -17.3796  -52.5662 C.3       20 UNK        -0.1800 
    112 C         -6.8602  -17.9195  -53.6330 C.2       20 UNK         0.5000 
    113 O         -6.8287  -17.1273  -54.5763 O.2       20 UNK        -0.5000 
    114 N         -6.3178  -19.1482  -53.6925 N.am      21 UNK        -0.5000 
    115 CA        -5.7502  -19.7493  -54.9083 C.3       21 UNK         0.1400 
    116 CB        -5.4135  -21.2254  -54.6489 C.3       21 UNK        -0.1800 
    117 C         -4.5194  -19.0126  -55.4711 C.2       21 UNK         0.5000 
    118 O         -4.2712  -19.0851  -56.6755 O.2       21 UNK        -0.5000 
    119 N         -3.7894  -18.3048  -54.6019 N.am      22 UNK        -0.5000 
    120 CA        -2.6884  -17.4031  -54.9697 C.3       22 UNK         0.1400 
    121 C         -3.1387  -16.0140  -55.5181 C.2       22 UNK         0.5000 
    122 N         -4.4242  -15.6782  -55.5412 N.am      22 UNK        -0.7600 
    123 O         -2.3020  -15.2277  -55.9542 O.2       22 UNK        -0.5000 
    124 C124       -1.6456  -17.2794  -53.8298 C.3       23 UNK        -0.0398 
    125 S125       -2.3429  -16.7080  -52.2384 S.3       23 UNK        -0.2404 
    126 C126       -1.7995  -18.0354  -51.1079 C.3       23 UNK        -0.0205 
    127 H127        7.6505  -15.8440  -44.9950 H         1 UNK         0.0600 
    128 H128        7.1853  -17.1254  -46.1186 H         1 UNK         0.0600 
    129 H129        6.8938  -17.3205  -44.3875 H         1 UNK         0.0600 
    130 H130        5.3356  -16.6105  -47.2504 H         1 UNK         0.3000 
    131 H131        2.8872  -15.9644  -46.0271 H         1 UNK         0.0600 
    132 H132        1.9983  -15.8282  -48.3515 H         1 UNK         0.0800 
    133 H133        2.8748  -17.2902  -48.0098 H         1 UNK         0.0800 
    134 H134        2.2533  -15.0520  -50.8855 H         1 UNK         0.0800 
    135 H135        3.3759  -15.9305  -51.8968 H         1 UNK         0.0800 
    136 H136        0.1360  -16.0622  -51.0888 H         1 UNK         0.1150 
    137 H137       -0.3587  -20.3091  -50.7863 H         1 UNK         0.1150 
    138 H138        3.5679  -18.6001  -50.7398 H         1 UNK         0.1150 
    139 H139        1.5066  -21.7539  -50.5686 H         1 UNK         0.0800 
    140 H140        2.9670  -21.1928  -51.3369 H         1 UNK         0.0800 
    141 H141        1.2028  -19.9244  -48.1364 H         1 UNK         0.0800 
    142 H142        2.4470  -20.0618  -46.9405 H         1 UNK         0.0800 
    143 H143        1.9450  -22.5254  -46.6926 H         1 UNK         0.0600 
    144 H144        0.3957  -20.3909  -45.6862 H         1 UNK         0.3000 
    145 H145       -1.7437  -22.2997  -43.5289 H         1 UNK         0.0600 
    146 H146        0.3943  -21.9062  -42.3190 H         1 UNK         0.0600 
    147 H147        0.5377  -20.3127  -43.0477 H         1 UNK         0.0600 
    148 H148       -0.7833  -20.6606  -41.9338 H         1 UNK         0.0600 
    149 H149       -1.6495  -19.5114  -44.0311 H         1 UNK         0.3000 
    150 H150       -3.9527  -19.4921  -46.8048 H         1 UNK         0.0600 
    151 H151       -5.3040  -19.5311  -44.7063 H         1 UNK         0.0600 
    152 H152       -5.0687  -17.8874  -45.2815 H         1 UNK         0.0600 
    153 H153       -4.1304  -18.4851  -43.9158 H         1 UNK         0.0600 
    154 H154       -2.6079  -17.3455  -45.5522 H         1 UNK         0.3000 
    155 H155        0.3792  -17.4422  -47.5574 H         1 UNK         0.0600 
    156 H156       -1.9929  -15.5173  -47.3079 H         1 UNK         0.0600 
    157 H157       -0.3515  -15.0431  -47.7400 H         1 UNK         0.0600 
    158 H158       -1.2715  -16.0998  -48.7974 H         1 UNK         0.0600 
    159 H159       -0.4060  -15.8200  -45.3218 H         1 UNK         0.3000 
    160 H160        0.9196  -17.9081  -42.7593 H         1 UNK         0.0600 
    161 H161        1.9757  -15.2570  -43.8641 H         1 UNK         0.0600 
    162 H162        2.9220  -16.7180  -43.5886 H         1 UNK         0.0600 
    163 H163        2.2074  -15.8706  -42.2284 H         1 UNK         0.0600 
    164 H164       -0.3059  -15.2785  -42.8973 H         1 UNK         0.3000 
    165 H165       -3.6268  -16.4905  -42.2699 H         1 UNK         0.0600 
    166 H166       -3.4164  -14.9667  -40.3267 H         1 UNK         0.0600 
    167 H167       -2.5167  -16.4451  -40.0272 H         1 UNK         0.0600 
    168 H168       -1.6582  -14.9742  -40.4709 H         1 UNK         0.0600 
    169 H169       -2.5814  -13.8514  -42.4809 H         1 UNK         0.3000 
    170 H170       -2.5006  -13.5098  -45.9695 H         1 UNK         0.0600 
    171 H171       -4.9815  -13.4188  -45.6618 H         1 UNK         0.0600 
    172 H172       -4.7723  -12.5007  -44.1754 H         1 UNK         0.0600 
    173 H173       -4.2837  -11.8089  -45.7234 H         1 UNK         0.0600 
    174 H174       -2.4871  -11.4997  -44.0195 H         1 UNK         0.3000 
    175 H175       -0.1857  -10.4650  -44.0364 H         1 UNK         0.0600 
    176 H176       -0.6606  -11.8749  -41.3523 H         1 UNK         0.0600 
    177 H177       -0.1269  -10.2034  -41.5146 H         1 UNK         0.0600 
    178 H178       -1.6996  -10.6846  -42.1180 H         1 UNK         0.0600 
    179 H179        1.9668  -10.8887  -43.8891 H         1 UNK         0.3000 
    180 H180        3.9510  -11.2845  -42.3349 H         1 UNK         0.0600 
    181 H181        4.1261  -14.3250  -42.0535 H         1 UNK         0.0600 
    182 H182        4.1293  -13.1611  -40.7347 H         1 UNK         0.0600 
    183 H183        5.4658  -13.1957  -41.8739 H         1 UNK         0.0600 
    184 H184        4.4299  -13.3774  -44.3022 H         1 UNK         0.3000 
    185 H185        3.8763  -11.4008  -47.1519 H         1 UNK         0.0600 
    186 H186        6.0276  -10.3063  -46.5089 H         1 UNK         0.0600 
    187 H187        6.6730  -11.8535  -45.9742 H         1 UNK         0.0600 
    188 H188        6.2992  -11.5883  -47.6781 H         1 UNK         0.0600 
    189 H189        5.3794  -13.8200  -46.6523 H         1 UNK         0.3000 
    190 H190       -1.1148  -21.0843  -47.9412 H         1 UNK         0.3000 
    191 H191       -1.4575  -22.8131  -50.1444 H         1 UNK         0.0600 
    192 H192       -3.5898  -21.4026  -48.4631 H         1 UNK         0.0600 
    193 H193       -3.8028  -22.0552  -50.0817 H         1 UNK         0.0600 
    194 H194       -2.7237  -20.6926  -49.8241 H         1 UNK         0.0600 
    195 H195       -2.6852  -23.1353  -46.7629 H         1 UNK         0.3000 
    196 H196       -4.0490  -25.5719  -47.0992 H         1 UNK         0.0600 
    197 H197       -3.8771  -25.7262  -44.6080 H         1 UNK         0.0600 
    198 H198       -4.3440  -24.1132  -45.1251 H         1 UNK         0.0600 
    199 H199       -2.6907  -24.4269  -44.6020 H         1 UNK         0.0600 
    200 H200       -0.6099  -24.9955  -46.2253 H         1 UNK         0.3000 
    201 H201        0.1399  -27.7256  -45.9216 H         1 UNK         0.0600 
    202 H202        1.5004  -25.8402  -45.0627 H         1 UNK         0.0600 
    203 H203        1.8229  -25.2864  -46.7036 H         1 UNK         0.0600 
    204 H204        2.4580  -26.8316  -46.1529 H         1 UNK         0.0600 
    205 H205       -0.0825  -25.6420  -48.7914 H         1 UNK         0.3000 
    206 H206        1.0007  -27.6153  -50.6419 H         1 UNK         0.0600 
    207 H207        1.2462  -25.1520  -50.9960 H         1 UNK         0.0600 
    208 H208        0.3968  -25.9106  -52.3336 H         1 UNK         0.0600 
    209 H209       -0.5024  -24.9904  -51.1361 H         1 UNK         0.0600 
    210 H210       -1.9251  -27.4532  -49.0238 H         1 UNK         0.3000 
    211 H211       -3.9064  -28.3817  -49.1316 H         1 UNK         0.0600 
    212 H212       -2.8976  -30.1366  -51.4293 H         1 UNK         0.0600 
    213 H213       -4.2916  -30.4444  -50.4050 H         1 UNK         0.0600 
    214 H214       -2.6782  -30.4845  -49.7144 H         1 UNK         0.0600 
    215 H215       -3.5583  -25.9256  -50.3990 H         1 UNK         0.3000 
    216 H216       -5.6290  -25.9211  -52.5597 H         1 UNK         0.0600 
    217 H217       -4.5113  -23.8210  -53.3017 H         1 UNK         0.0600 
    218 H218       -3.3472  -25.1358  -53.3003 H         1 UNK         0.0600 
    219 H219       -3.3362  -23.9480  -51.9988 H         1 UNK         0.0600 
    220 H220       -6.8550  -23.8245  -52.5423 H         1 UNK         0.3000 
    221 H221       -7.8549  -23.0860  -49.8858 H         1 UNK         0.0600 
    222 H222       -8.5099  -22.0330  -52.7000 H         1 UNK         0.0600 
    223 H223       -9.4043  -23.2900  -51.8455 H         1 UNK         0.0600 
    224 H224       -9.3921  -21.6467  -51.2275 H         1 UNK         0.0600 
    225 H225       -7.6509  -20.9639  -48.9910 H         1 UNK         0.3000 
    226 H226       -5.1388  -19.7158  -49.2139 H         1 UNK         0.0600 
    227 H227       -6.5457  -19.6564  -47.1728 H         1 UNK         0.0600 
    228 H228       -6.1333  -18.0250  -47.6763 H         1 UNK         0.0600 
    229 H229       -7.7433  -18.6579  -47.9978 H         1 UNK         0.0600 
    230 H230       -8.0317  -19.1165  -51.0632 H         1 UNK         0.3000 
    231 H231       -7.1966  -16.4951  -52.0730 H         1 UNK         0.0600 
    232 H232       -9.3110  -16.6796  -53.3721 H         1 UNK         0.0600 
    233 H233       -9.5978  -17.0182  -51.6738 H         1 UNK         0.0600 
    234 H234       -9.5217  -18.3425  -52.8370 H         1 UNK         0.0600 
    235 H235       -6.3177  -19.7342  -52.8642 H         1 UNK         0.3000 
    236 H236       -6.5247  -19.7132  -55.6772 H         1 UNK         0.0600 
    237 H237       -6.2839  -21.7745  -54.2900 H         1 UNK         0.0600 
    238 H238       -5.0745  -21.7154  -55.5624 H         1 UNK         0.0600 
    239 H239       -4.6186  -21.3296  -53.9094 H         1 UNK         0.0600 
    240 H240       -4.0749  -18.2822  -53.6336 H         1 UNK         0.3000 
    241 H241       -2.1615  -17.8662  -55.8061 H         1 UNK         0.0600 
    242 H242       -5.1450  -16.3058  -55.2004 H         1 UNK         0.3800 
    243 H243       -4.6886  -14.7781  -55.9085 H         1 UNK         0.3800 
    244 H244       -1.1710  -18.2505  -53.6847 H         1 UNK         0.0800 
    245 H245       -0.8357  -16.6054  -54.1137 H         1 UNK         0.0800 
    246 H246       -2.2206  -17.8519  -50.1194 H         1 UNK         0.0800 
    247 H247       -2.2363  -18.9726  -51.4555 H         1 UNK         0.0800 
@<TRIPOS>BOND
     1    1    2 1    
     2    1  127 1    
     3    1  128 1    
     4    1  129 1    
     5    2    3 2    
     6    2    4 am   BACKBONE|DICT|INTERRES
     7    4    5 1    
     8    4  130 1    
     9    5    6 1    
    10    5   65 1    
    11    5  131 1    
    12    6    7 1    
    13    6  132 1    
    14    6  133 1    
    15    7    8 1    
    16    8    9 1    
    17    8  134 1    
    18    8  135 1    
    19    9   10 ar   
    20    9   14 ar   
    21   10   11 ar   
    22   10  136 1    
    23   11   12 ar   
    24   11  126 1    
    25   12   13 ar   
    26   12  137 1    
    27   13   14 ar   
    28   13   15 1    
    29   14  138 1    
    30   15   16 1    
    31   15  139 1    
    32   15  140 1    
    33   16   17 1    
    34   17   18 1    
    35   17  141 1    
    36   17  142 1    
    37   18   19 1    
    38   18   67 1    
    39   18  143 1    
    40   19   20 am   BACKBONE|DICT|INTERRES
    41   19  144 1    
    42   20   21 2    
    43   20   22 1    
    44   22   23 1    
    45   22   24 1    
    46   22  145 1    
    47   23  146 1    
    48   23  147 1    
    49   23  148 1    
    50   24   25 am   BACKBONE|DICT|INTERRES
    51   24  149 1    
    52   25   26 2    
    53   25   27 1    
    54   27   28 1    
    55   27   29 1    
    56   27  150 1    
    57   28  151 1    
    58   28  152 1    
    59   28  153 1    
    60   29   30 am   BACKBONE|DICT|INTERRES
    61   29  154 1    
    62   30   31 2    
    63   30   32 1    
    64   32   33 1    
    65   32   34 1    
    66   32  155 1    
    67   33  156 1    
    68   33  157 1    
    69   33  158 1    
    70   34   35 am   BACKBONE|DICT|INTERRES
    71   34  159 1    
    72   35   36 2    
    73   35   37 1    
    74   37   38 1    
    75   37   39 1    
    76   37  160 1    
    77   38  161 1    
    78   38  162 1    
    79   38  163 1    
    80   39   40 am   BACKBONE|DICT|INTERRES
    81   39  164 1    
    82   40   41 2    
    83   40   42 1    
    84   42   43 1    
    85   42   44 1    
    86   42  165 1    
    87   43  166 1    
    88   43  167 1    
    89   43  168 1    
    90   44   45 am   BACKBONE|DICT|INTERRES
    91   44  169 1    
    92   45   46 2    
    93   45   47 1    
    94   47   48 1    
    95   47   49 1    
    96   47  170 1    
    97   48  171 1    
    98   48  172 1    
    99   48  173 1    
   100   49   50 am   BACKBONE|DICT|INTERRES
   101   49  174 1    
   102   50   51 2    
   103   50   52 1    
   104   52   53 1    
   105   52   54 1    
   106   52  175 1    
   107   53  176 1    
   108   53  177 1    
   109   53  178 1    
   110   54   55 am   BACKBONE|DICT|INTERRES
   111   54  179 1    
   112   55   56 2    
   113   55   57 1    
   114   57   58 1    
   115   57   59 1    
   116   57  180 1    
   117   58  181 1    
   118   58  182 1    
   119   58  183 1    
   120   59   60 am   BACKBONE|DICT|INTERRES
   121   59  184 1    
   122   60   61 2    
   123   60   62 1    
   124   62   63 1    
   125   62   64 1    
   126   62  185 1    
   127   63  186 1    
   128   63  187 1    
   129   63  188 1    
   130   64   65 am   BACKBONE|DICT|INTERRES
   131   64  189 1    
   132   65   66 2    
   133   67   68 2    
   134   67   69 am   BACKBONE|DICT|INTERRES
   135   69   70 1    
   136   69  190 1    
   137   70   71 1    
   138   70   72 1    
   139   70  191 1    
   140   71  192 1    
   141   71  193 1    
   142   71  194 1    
   143   72   73 2    
   144   72   74 am   BACKBONE|DICT|INTERRES
   145   74   75 1    
   146   74  195 1    
   147   75   76 1    
   148   75   77 1    
   149   75  196 1    
   150   76  197 1    
   151   76  198 1    
   152   76  199 1    
   153   77   78 2    
   154   77   79 am   BACKBONE|DICT|INTERRES
   155   79   80 1    
   156   79  200 1    
   157   80   81 1    
   158   80   82 1    
   159   80  201 1    
   160   81  202 1    
   161   81  203 1    
   162   81  204 1    
   163   82   83 2    
   164   82   84 am   BACKBONE|DICT|INTERRES
   165   84   85 1    
   166   84  205 1    
   167   85   86 1    
   168   85   87 1    
   169   85  206 1    
   170   86  207 1    
   171   86  208 1    
   172   86  209 1    
   173   87   88 2    
   174   87   89 am   BACKBONE|DICT|INTERRES
   175   89   90 1    
   176   89  210 1    
   177   90   91 1    
   178   90   92 1    
   179   90  211 1    
   180   91  212 1    
   181   91  213 1    
   182   91  214 1    
   183   92   93 2    
   184   92   94 am   BACKBONE|DICT|INTERRES
   185   94   95 1    
   186   94  215 1    
   187   95   96 1    
   188   95   97 1    
   189   95  216 1    
   190   96  217 1    
   191   96  218 1    
   192   96  219 1    
   193   97   98 2    
   194   97   99 am   BACKBONE|DICT|INTERRES
   195   99  100 1    
   196   99  220 1    
   197  100  101 1    
   198  100  102 1    
   199  100  221 1    
   200  101  222 1    
   201  101  223 1    
   202  101  224 1    
   203  102  103 2    
   204  102  104 am   BACKBONE|DICT|INTERRES
   205  104  105 1    
   206  104  225 1    
   207  105  106 1    
   208  105  107 1    
   209  105  226 1    
   210  106  227 1    
   211  106  228 1    
   212  106  229 1    
   213  107  108 2    
   214  107  109 am   BACKBONE|DICT|INTERRES
   215  109  110 1    
   216  109  230 1    
   217  110  111 1    
   218  110  112 1    
   219  110  231 1    
   220  111  232 1    
   221  111  233 1    
   222  111  234 1    
   223  112  113 2    
   224  112  114 am   BACKBONE|DICT|INTERRES
   225  114  115 1    
   226  114  235 1    
   227  115  116 1    
   228  115  117 1    
   229  115  236 1    
   230  116  237 1    
   231  116  238 1    
   232  116  239 1    
   233  117  118 2    
   234  117  119 am   BACKBONE|DICT|INTERRES
   235  119  120 1    
   236  119  240 1    
   237  120  121 1    
   238  120  124 1    
   239  120  241 1    
   240  121  122 am   BACKBONE|DICT|INTERRES
   241  121  123 2    
   242  122  242 1    
   243  122  243 1    
   244  124  125 1    
   245  124  244 1    
   246  124  245 1    
   247  125  126 1    
   248  126  246 1    
   249  126  247 1    
@<TRIPOS>SUBSTRUCTURE
     1 UNK         1 GROUP             0       ****    0 ROOT    
