@<TRIPOS>MOLECULE
3R540
247   249    1
SMALL
USER_CHARGES


@<TRIPOS>ATOM
      1 CA         -1.1238  -15.4594  -48.4819 C.3       0 UNK        -0.1800 
      2 C          -1.5611  -14.4597  -47.4275 C.2       0 UNK         0.5000 
      3 O          -0.8026  -13.5591  -47.0712 O.2       0 UNK        -0.5000 
      4 N          -2.8003  -14.6059  -46.9425 N.am      1 UNK        -0.5000 
      5 CA         -3.3972  -13.8755  -45.8126 C.3       1 UNK         0.1400 
      6 C6         -4.8219  -14.3836  -45.4798 C.3       23 UNK        -0.0398 
      7 S7         -4.9377  -16.1991  -45.3121 S.3       23 UNK        -0.2404 
      8 C8         -6.0993  -16.6132  -46.6524 C.3       23 UNK        -0.0205 
      9 C9         -5.4136  -16.6980  -48.0089 C.ar      23 UNK        -0.0193 
     10 C10        -5.3058  -15.5705  -48.8309 C.ar      23 UNK        -0.1150 
     11 C11        -4.7153  -15.6663  -50.0955 C.ar      23 UNK        -0.0193 
     12 C12        -4.2382  -16.9029  -50.5335 C.ar      23 UNK        -0.1150 
     13 C13        -4.3363  -18.0382  -49.7235 C.ar      23 UNK        -0.0193 
     14 C14        -4.9242  -17.9264  -48.4607 C.ar      23 UNK        -0.1150 
     15 C15        -3.8579  -19.3879  -50.2412 C.3       23 UNK        -0.0205 
     16 S16        -2.2616  -19.8963  -49.5175 S.3       23 UNK        -0.2404 
     17 C17        -2.8003  -20.6908  -47.9664 C.3       23 UNK        -0.0398 
     18 CA         -2.1549  -22.0817  -47.7453 C.3       11 UNK         0.1400 
     19 N          -0.7531  -21.9984  -47.3214 N.am      11 UNK        -0.5000 
     20 C           0.0605  -23.0447  -47.1162 C.2       10 UNK         0.5000 
     21 O          -0.2605  -24.2095  -47.3404 O.2       10 UNK        -0.5000 
     22 CA          1.4414  -22.7578  -46.4986 C.3       10 UNK         0.1400 
     23 CB          2.4356  -22.2716  -47.5606 C.3       10 UNK        -0.1800 
     24 N           1.3743  -21.7992  -45.3944 N.am      10 UNK        -0.5000 
     25 C           0.7417  -22.0318  -44.2349 C.2       9 UNK         0.5000 
     26 O           0.1984  -23.1012  -43.9581 O.2       9 UNK        -0.5000 
     27 CA          0.6597  -20.8636  -43.2348 C.3       9 UNK         0.1400 
     28 CB          1.9579  -20.7432  -42.4233 C.3       9 UNK        -0.1800 
     29 N           0.3668  -19.5867  -43.8849 N.am      9 UNK        -0.5000 
     30 C          -0.7660  -19.3117  -44.5478 C.2       8 UNK         0.5000 
     31 O          -1.7207  -20.0855  -44.6224 O.2       8 UNK        -0.5000 
     32 CA         -0.8091  -17.9731  -45.3078 C.3       8 UNK         0.1400 
     33 CB         -1.1282  -16.8123  -44.3543 C.3       8 UNK        -0.1800 
     34 N           0.4437  -17.7043  -46.0173 N.am      8 UNK        -0.5000 
     35 C           0.9403  -18.4710  -46.9993 C.2       7 UNK         0.5000 
     36 O           0.3699  -19.4646  -47.4377 O.2       7 UNK        -0.5000 
     37 CA          2.3267  -18.1050  -47.5502 C.3       7 UNK         0.1400 
     38 CB          2.2195  -17.0618  -48.6714 C.3       7 UNK        -0.1800 
     39 N           3.2139  -17.6280  -46.4912 N.am      7 UNK        -0.5000 
     40 C           3.7531  -18.4238  -45.5565 C.2       6 UNK         0.5000 
     41 O           3.6051  -19.6461  -45.5346 O.2       6 UNK        -0.5000 
     42 CA          4.5559  -17.7338  -44.4373 C.3       6 UNK         0.1400 
     43 CB          6.0012  -17.4752  -44.8879 C.3       6 UNK        -0.1800 
     44 N           3.9494  -16.4732  -44.0044 N.am      6 UNK        -0.5000 
     45 C           2.7754  -16.3812  -43.3636 C.2       5 UNK         0.5000 
     46 O           2.1108  -17.3588  -43.0203 O.2       5 UNK        -0.5000 
     47 CA          2.2285  -14.9611  -43.1067 C.3       5 UNK         0.1400 
     48 CB          2.7338  -14.4264  -41.7589 C.3       5 UNK        -0.1800 
     49 N           2.5458  -13.9907  -44.1615 N.am      5 UNK        -0.5000 
     50 C           2.2256  -14.1267  -45.4549 C.2       4 UNK         0.5000 
     51 O           1.6429  -15.1130  -45.9045 O.2       4 UNK        -0.5000 
     52 CA          2.6507  -12.9866  -46.3973 C.3       4 UNK         0.1400 
     53 CB          2.9429  -13.4904  -47.8211 C.3       4 UNK        -0.1800 
     54 N           1.6318  -11.9447  -46.4783 N.am      4 UNK        -0.5000 
     55 C           1.4255  -10.9944  -45.5602 C.2       3 UNK         0.5000 
     56 O           2.0422  -10.9294  -44.4956 O.2       3 UNK        -0.5000 
     57 CA          0.4016   -9.9034  -45.9082 C.3       3 UNK         0.1400 
     58 CB          1.0937   -8.8181  -46.7620 C.3       3 UNK        -0.1800 
     59 N          -0.7893  -10.4349  -46.5837 N.am      3 UNK        -0.5000 
     60 C          -1.8967   -9.7157  -46.8322 C.2       2 UNK         0.5000 
     61 O          -2.0238   -8.5295  -46.5247 O.2       2 UNK        -0.5000 
     62 CA         -3.0795  -10.4228  -47.5261 C.3       2 UNK         0.1400 
     63 CB         -2.9669  -10.2862  -49.0523 C.3       2 UNK        -0.1800 
     64 N          -3.2047  -11.8377  -47.1900 N.am      2 UNK        -0.5000 
     65 C          -3.4200  -12.3367  -45.9655 C.2       1 UNK         0.5000 
     66 O          -3.6307  -11.6371  -44.9739 O.2       1 UNK        -0.5000 
     67 C          -3.0018  -22.9063  -46.7565 C.2       11 UNK         0.5000 
     68 O          -3.7690  -23.7615  -47.1979 O.2       11 UNK        -0.5000 
     69 N          -2.8368  -22.6587  -45.4494 N.am      12 UNK        -0.5000 
     70 CA         -3.5094  -23.3978  -44.3806 C.3       12 UNK         0.1400 
     71 CB         -3.2399  -22.7217  -43.0280 C.3       12 UNK        -0.1800 
     72 C          -3.1114  -24.8848  -44.3503 C.2       12 UNK         0.5000 
     73 O          -3.9911  -25.7437  -44.2813 O.2       12 UNK        -0.5000 
     74 N          -1.8043  -25.1647  -44.4578 N.am      13 UNK        -0.5000 
     75 CA         -1.2424  -26.5165  -44.5327 C.3       13 UNK         0.1400 
     76 CB          0.2900  -26.4365  -44.4644 C.3       13 UNK        -0.1800 
     77 C          -1.6916  -27.2911  -45.7875 C.2       13 UNK         0.5000 
     78 O          -1.9463  -28.4928  -45.7039 O.2       13 UNK        -0.5000 
     79 N          -1.8155  -26.5808  -46.9158 N.am      14 UNK        -0.5000 
     80 CA         -2.3082  -27.0935  -48.1946 C.3       14 UNK         0.1400 
     81 CB         -1.7769  -26.1922  -49.3212 C.3       14 UNK        -0.1800 
     82 C          -3.8458  -27.2085  -48.2685 C.2       14 UNK         0.5000 
     83 O          -4.3560  -27.6428  -49.3006 O.2       14 UNK        -0.5000 
     84 N          -4.5585  -26.8073  -47.2045 N.am      15 UNK        -0.5000 
     85 CA         -6.0183  -26.8088  -47.0611 C.3       15 UNK         0.1400 
     86 CB         -6.5669  -28.2510  -47.0403 C.3       15 UNK        -0.1800 
     87 C          -6.7230  -25.9013  -48.0924 C.2       15 UNK         0.5000 
     88 O          -7.7317  -26.2926  -48.6822 O.2       15 UNK        -0.5000 
     89 N          -6.1635  -24.6977  -48.2820 N.am      16 UNK        -0.5000 
     90 CA         -6.6249  -23.6185  -49.1610 C.3       16 UNK         0.1400 
     91 CB         -8.0281  -23.1223  -48.7539 C.3       16 UNK        -0.1800 
     92 C          -6.5084  -23.9373  -50.6668 C.2       16 UNK         0.5000 
     93 O          -7.2028  -23.3220  -51.4768 O.2       16 UNK        -0.5000 
     94 N          -5.5979  -24.8533  -51.0294 N.am      17 UNK        -0.5000 
     95 CA         -5.2786  -25.2092  -52.4178 C.3       17 UNK         0.1400 
     96 CB         -4.6004  -26.5871  -52.4403 C.3       17 UNK        -0.1800 
     97 C          -4.4076  -24.1603  -53.1457 C.2       17 UNK         0.5000 
     98 O          -4.1962  -24.2927  -54.3516 O.2       17 UNK        -0.5000 
     99 N          -3.9237  -23.1479  -52.4086 N.am      18 UNK        -0.5000 
    100 CA        -3.1220  -22.0100  -52.8718 C.3       18 UNK         0.1400 
    101 CB        -3.9184  -21.1273  -53.8552 C.3       18 UNK        -0.1800 
    102 C         -1.7352  -22.4215  -53.3995 C.2       18 UNK         0.5000 
    103 O         -1.2810  -21.9193  -54.4290 O.2       18 UNK        -0.5000 
    104 N         -1.0678  -23.3119  -52.6516 N.am      19 UNK        -0.5000 
    105 CA         0.2750  -23.8284  -52.9391 C.3       19 UNK         0.1400 
    106 CB         0.6200  -24.9095  -51.9032 C.3       19 UNK        -0.1800 
    107 C          1.3761  -22.7470  -52.9736 C.2       19 UNK         0.5000 
    108 O          2.3705  -22.9195  -53.6789 O.2       19 UNK        -0.5000 
    109 N          1.1666  -21.6518  -52.2320 N.am      20 UNK        -0.5000 
    110 CA         2.0389  -20.4772  -52.1796 C.3       20 UNK         0.1400 
    111 CB         2.3553  -20.1727  -50.7061 C.3       20 UNK        -0.1800 
    112 C          1.4112  -19.2615  -52.8932 C.2       20 UNK         0.5000 
    113 O          1.8147  -18.1281  -52.6201 O.2       20 UNK        -0.5000 
    114 N          0.4300  -19.5066  -53.7795 N.am      21 UNK        -0.5000 
    115 CA        -0.3877  -18.5207  -54.4939 C.3       21 UNK         0.1400 
    116 CB         0.4569  -17.7611  -55.5418 C.3       21 UNK        -0.1800 
    117 C         -1.1256  -17.6134  -53.4907 C.2       21 UNK         0.5000 
    118 O         -2.0478  -18.0869  -52.8330 O.2       21 UNK        -0.5000 
    119 N         -0.6719  -16.3659  -53.3532 N.am      22 UNK        -0.5000 
    120 CA        -0.9825  -15.4505  -52.2483 C.3       22 UNK         0.1400 
    121 C          0.3125  -14.6881  -51.8305 C.2       22 UNK         0.5000 
    122 N          1.4759  -15.3317  -51.8568 N.am      22 UNK        -0.7600 
    123 O          0.2869  -13.5068  -51.4996 O.2       22 UNK        -0.5000 
    124 C124       -2.2138  -14.5521  -52.5593 C.3       23 UNK        -0.0398 
    125 S125       -2.9536  -13.7448  -51.0866 S.3       23 UNK        -0.2404 
    126 C126       -4.6337  -14.4484  -51.0067 C.3       23 UNK        -0.0205 
    127 H127       -0.7391  -16.3594  -48.0118 H         1 UNK         0.0600 
    128 H128       -0.3366  -15.0323  -49.0995 H         1 UNK         0.0600 
    129 H129       -1.9552  -15.7474  -49.1223 H         1 UNK         0.0600 
    130 H130       -3.3745  -15.3556  -47.3042 H         1 UNK         0.3000 
    131 H131       -2.7630  -14.0827  -44.9487 H         1 UNK         0.0600 
    132 H132       -5.5343  -14.0389  -46.2301 H         1 UNK         0.0800 
    133 H133       -5.1596  -13.9522  -44.5358 H         1 UNK         0.0800 
    134 H134       -6.9165  -15.8910  -46.6814 H         1 UNK         0.0800 
    135 H135       -6.5636  -17.5725  -46.4185 H         1 UNK         0.0800 
    136 H136       -5.6979  -14.6210  -48.4958 H         1 UNK         0.1150 
    137 H137       -3.8047  -16.9794  -51.5181 H         1 UNK         0.1150 
    138 H138       -5.0229  -18.7991  -47.8327 H         1 UNK         0.1150 
    139 H139       -4.6198  -20.1483  -50.0661 H         1 UNK         0.0800 
    140 H140       -3.7441  -19.3364  -51.3235 H         1 UNK         0.0800 
    141 H141       -3.8869  -20.7822  -47.9894 H         1 UNK         0.0800 
    142 H142       -2.5765  -20.0199  -47.1374 H         1 UNK         0.0800 
    143 H143       -2.1715  -22.6220  -48.6940 H         1 UNK         0.0600 
    144 H144       -0.3802  -21.0588  -47.1905 H         1 UNK         0.3000 
    145 H145        1.8217  -23.6985  -46.0951 H         1 UNK         0.0600 
    146 H146        3.4311  -22.1359  -47.1375 H         1 UNK         0.0600 
    147 H147        2.5206  -22.9915  -48.3755 H         1 UNK         0.0600 
    148 H148        2.1247  -21.3229  -47.9925 H         1 UNK         0.0600 
    149 H149        1.8274  -20.9044  -45.5360 H         1 UNK         0.3000 
    150 H150       -0.1555  -21.0780  -42.5407 H         1 UNK         0.0600 
    151 H151        2.1854  -21.6781  -41.9097 H         1 UNK         0.0600 
    152 H152        1.8762  -19.9655  -41.6637 H         1 UNK         0.0600 
    153 H153        2.8103  -20.5004  -43.0580 H         1 UNK         0.0600 
    154 H154        1.0819  -18.8685  -43.8244 H         1 UNK         0.3000 
    155 H155       -1.6040  -18.0276  -46.0543 H         1 UNK         0.0600 
    156 H156       -0.4542  -16.7924  -43.4989 H         1 UNK         0.0600 
    157 H157       -2.1430  -16.9010  -43.9654 H         1 UNK         0.0600 
    158 H158       -1.0525  -15.8497  -44.8579 H         1 UNK         0.0600 
    159 H159        0.9458  -16.8557  -45.7688 H         1 UNK         0.3000 
    160 H160        2.7654  -19.0075  -47.9793 H         1 UNK         0.0600 
    161 H161        1.7758  -16.1343  -48.3164 H         1 UNK         0.0600 
    162 H162        1.5916  -17.4269  -49.4853 H         1 UNK         0.0600 
    163 H163        3.1971  -16.8293  -49.0934 H         1 UNK         0.0600 
    164 H164        3.3023  -16.6268  -46.3936 H         1 UNK         0.3000 
    165 H165        4.5812  -18.4111  -43.5809 H         1 UNK         0.0600 
    166 H166        6.0446  -16.7829  -45.7296 H         1 UNK         0.0600 
    167 H167        6.5979  -17.0567  -44.0772 H         1 UNK         0.0600 
    168 H168        6.4837  -18.4024  -45.2000 H         1 UNK         0.0600 
    169 H169        4.4341  -15.6219  -44.2468 H         1 UNK         0.3000 
    170 H170        1.1410  -15.0354  -43.0547 H         1 UNK         0.0600 
    171 H171        2.2748  -13.4673  -41.5179 H         1 UNK         0.0600 
    172 H172        3.8160  -14.2906  -41.7599 H         1 UNK         0.0600 
    173 H173        2.4894  -15.1149  -40.9488 H         1 UNK         0.0600 
    174 H174        2.9788  -13.1263  -43.8655 H         1 UNK         0.3000 
    175 H175        3.5742  -12.5531  -46.0075 H         1 UNK         0.0600 
    176 H176        2.0344  -13.8273  -48.3219 H         1 UNK         0.0600 
    177 H177        3.3830  -12.7025  -48.4323 H         1 UNK         0.0600 
    178 H178        3.6467  -14.3235  -47.8096 H         1 UNK         0.0600 
    179 H179        1.0412  -11.9764  -47.2964 H         1 UNK         0.3000 
    180 H180        0.0813   -9.4543  -44.9657 H         1 UNK         0.0600 
    181 H181        2.0305   -8.4966  -46.3044 H         1 UNK         0.0600 
    182 H182        0.4773   -7.9264  -46.8693 H         1 UNK         0.0600 
    183 H183        1.3274   -9.1852  -47.7620 H         1 UNK         0.0600 
    184 H184       -0.7937  -11.4287  -46.7920 H         1 UNK         0.3000 
    185 H185       -3.9962   -9.9245  -47.2043 H         1 UNK         0.0600 
    186 H186       -3.8402  -10.7056  -49.5524 H         1 UNK         0.0600 
    187 H187       -2.8954   -9.2385  -49.3476 H         1 UNK         0.0600 
    188 H188       -2.0835  -10.7977  -49.4374 H         1 UNK         0.0600 
    189 H189       -3.0177  -12.4946  -47.9339 H         1 UNK         0.3000 
    190 H190       -2.2245  -21.8993  -45.1645 H         1 UNK         0.3000 
    191 H191       -4.5835  -23.3481  -44.5714 H         1 UNK         0.0600 
    192 H192       -3.7628  -23.2387  -42.2226 H         1 UNK         0.0600 
    193 H193       -3.5852  -21.6876  -43.0296 H         1 UNK         0.0600 
    194 H194       -2.1787  -22.7176  -42.7803 H         1 UNK         0.0600 
    195 H195       -1.1397  -24.3954  -44.4753 H         1 UNK         0.3000 
    196 H196       -1.5932  -27.0702  -43.6595 H         1 UNK         0.0600 
    197 H197        0.7004  -25.8710  -45.3014 H         1 UNK         0.0600 
    198 H198        0.6189  -25.9552  -43.5432 H         1 UNK         0.0600 
    199 H199        0.7355  -27.4317  -44.4894 H         1 UNK         0.0600 
    200 H200       -1.5096  -25.6113  -46.9134 H         1 UNK         0.3000 
    201 H201       -1.9025  -28.0958  -48.3452 H         1 UNK         0.0600 
    202 H202       -2.0236  -26.6007  -50.3002 H         1 UNK         0.0600 
    203 H203       -2.1942  -25.1863  -49.2629 H         1 UNK         0.0600 
    204 H204       -0.6910  -26.1085  -49.2774 H         1 UNK         0.0600 
    205 H205       -4.0495  -26.4338  -46.4130 H         1 UNK         0.3000 
    206 H206       -6.2242  -26.3687  -46.0844 H         1 UNK         0.0600 
    207 H207       -6.0597  -28.8537  -46.2869 H         1 UNK         0.0600 
    208 H208       -7.6306  -28.2601  -46.8000 H         1 UNK         0.0600 
    209 H209       -6.4460  -28.7467  -48.0039 H         1 UNK         0.0600 
    210 H210       -5.3048  -24.4881  -47.7728 H         1 UNK         0.3000 
    211 H211       -5.9341  -22.7922  -48.9875 H         1 UNK         0.0600 
    212 H212       -8.2910  -22.2092  -49.2892 H         1 UNK         0.0600 
    213 H213       -8.0723  -22.8949  -47.6889 H         1 UNK         0.0600 
    214 H214       -8.8000  -23.8604  -48.9730 H         1 UNK         0.0600 
    215 H215       -5.1013  -25.3546  -50.3059 H         1 UNK         0.3000 
    216 H216       -6.2143  -25.2897  -52.9749 H         1 UNK         0.0600 
    217 H217       -3.6406  -26.5706  -51.9263 H         1 UNK         0.0600 
    218 H218       -4.4175  -26.9183  -53.4632 H         1 UNK         0.0600 
    219 H219       -5.2251  -27.3426  -51.9635 H         1 UNK         0.0600 
    220 H220       -4.1576  -23.1501  -51.4274 H         1 UNK         0.3000 
    221 H221       -2.9206  -21.4086  -51.9880 H         1 UNK         0.0600 
    222 H222       -4.8775  -20.8317  -53.4302 H         1 UNK         0.0600 
    223 H223       -4.1112  -21.6388  -54.7984 H         1 UNK         0.0600 
    224 H224       -3.3728  -20.2122  -54.0868 H         1 UNK         0.0600 
    225 H225       -1.5218  -23.6817  -51.8301 H         1 UNK         0.3000 
    226 H226        0.2452  -24.2946  -53.9260 H         1 UNK         0.0600 
    227 H227        0.6249  -24.5084  -50.8886 H         1 UNK         0.0600 
    228 H228       -0.0951  -25.7315  -51.9377 H         1 UNK         0.0600 
    229 H229        1.6072  -25.3330  -52.0931 H         1 UNK         0.0600 
    230 H230        0.3156  -21.5972  -51.6913 H         1 UNK         0.3000 
    231 H231        2.9833  -20.6797  -52.6882 H         1 UNK         0.0600 
    232 H232        1.4511  -19.9491  -50.1380 H         1 UNK         0.0600 
    233 H233        3.0280  -19.3195  -50.6119 H         1 UNK         0.0600 
    234 H234        2.8508  -21.0211  -50.2357 H         1 UNK         0.0600 
    235 H235        0.1464  -20.4691  -53.9225 H         1 UNK         0.3000 
    236 H236       -1.1565  -19.0792  -55.0299 H         1 UNK         0.0600 
    237 H237        1.2908  -17.2179  -55.0965 H         1 UNK         0.0600 
    238 H238        0.8730  -18.4522  -56.2748 H         1 UNK         0.0600 
    239 H239       -0.1537  -17.0428  -56.0904 H         1 UNK         0.0600 
    240 H240        0.1136  -16.0832  -53.9225 H         1 UNK         0.3000 
    241 H241       -1.2375  -16.0597  -51.3799 H         1 UNK         0.0600 
    242 H242        2.3130  -14.8356  -51.5985 H         1 UNK         0.3800 
    243 H243        1.5378  -16.3151  -52.1118 H         1 UNK         0.3800 
    244 H244       -2.9825  -15.1502  -53.0489 H         1 UNK         0.0800 
    245 H245       -1.9430  -13.7785  -53.2790 H         1 UNK         0.0800 
    246 H246       -5.3074  -13.6707  -50.6441 H         1 UNK         0.0800 
    247 H247       -4.9903  -14.7042  -52.0051 H         1 UNK         0.0800 
@<TRIPOS>BOND
     1    1    2 1    
     2    1  127 1    
     3    1  128 1    
     4    1  129 1    
     5    2    3 2    
     6    2    4 am   BACKBONE|DICT|INTERRES
     7    4    5 1    
     8    4  130 1    
     9    5    6 1    
    10    5   65 1    
    11    5  131 1    
    12    6    7 1    
    13    6  132 1    
    14    6  133 1    
    15    7    8 1    
    16    8    9 1    
    17    8  134 1    
    18    8  135 1    
    19    9   10 ar   
    20    9   14 ar   
    21   10   11 ar   
    22   10  136 1    
    23   11   12 ar   
    24   11  126 1    
    25   12   13 ar   
    26   12  137 1    
    27   13   14 ar   
    28   13   15 1    
    29   14  138 1    
    30   15   16 1    
    31   15  139 1    
    32   15  140 1    
    33   16   17 1    
    34   17   18 1    
    35   17  141 1    
    36   17  142 1    
    37   18   19 1    
    38   18   67 1    
    39   18  143 1    
    40   19   20 am   BACKBONE|DICT|INTERRES
    41   19  144 1    
    42   20   21 2    
    43   20   22 1    
    44   22   23 1    
    45   22   24 1    
    46   22  145 1    
    47   23  146 1    
    48   23  147 1    
    49   23  148 1    
    50   24   25 am   BACKBONE|DICT|INTERRES
    51   24  149 1    
    52   25   26 2    
    53   25   27 1    
    54   27   28 1    
    55   27   29 1    
    56   27  150 1    
    57   28  151 1    
    58   28  152 1    
    59   28  153 1    
    60   29   30 am   BACKBONE|DICT|INTERRES
    61   29  154 1    
    62   30   31 2    
    63   30   32 1    
    64   32   33 1    
    65   32   34 1    
    66   32  155 1    
    67   33  156 1    
    68   33  157 1    
    69   33  158 1    
    70   34   35 am   BACKBONE|DICT|INTERRES
    71   34  159 1    
    72   35   36 2    
    73   35   37 1    
    74   37   38 1    
    75   37   39 1    
    76   37  160 1    
    77   38  161 1    
    78   38  162 1    
    79   38  163 1    
    80   39   40 am   BACKBONE|DICT|INTERRES
    81   39  164 1    
    82   40   41 2    
    83   40   42 1    
    84   42   43 1    
    85   42   44 1    
    86   42  165 1    
    87   43  166 1    
    88   43  167 1    
    89   43  168 1    
    90   44   45 am   BACKBONE|DICT|INTERRES
    91   44  169 1    
    92   45   46 2    
    93   45   47 1    
    94   47   48 1    
    95   47   49 1    
    96   47  170 1    
    97   48  171 1    
    98   48  172 1    
    99   48  173 1    
   100   49   50 am   BACKBONE|DICT|INTERRES
   101   49  174 1    
   102   50   51 2    
   103   50   52 1    
   104   52   53 1    
   105   52   54 1    
   106   52  175 1    
   107   53  176 1    
   108   53  177 1    
   109   53  178 1    
   110   54   55 am   BACKBONE|DICT|INTERRES
   111   54  179 1    
   112   55   56 2    
   113   55   57 1    
   114   57   58 1    
   115   57   59 1    
   116   57  180 1    
   117   58  181 1    
   118   58  182 1    
   119   58  183 1    
   120   59   60 am   BACKBONE|DICT|INTERRES
   121   59  184 1    
   122   60   61 2    
   123   60   62 1    
   124   62   63 1    
   125   62   64 1    
   126   62  185 1    
   127   63  186 1    
   128   63  187 1    
   129   63  188 1    
   130   64   65 am   BACKBONE|DICT|INTERRES
   131   64  189 1    
   132   65   66 2    
   133   67   68 2    
   134   67   69 am   BACKBONE|DICT|INTERRES
   135   69   70 1    
   136   69  190 1    
   137   70   71 1    
   138   70   72 1    
   139   70  191 1    
   140   71  192 1    
   141   71  193 1    
   142   71  194 1    
   143   72   73 2    
   144   72   74 am   BACKBONE|DICT|INTERRES
   145   74   75 1    
   146   74  195 1    
   147   75   76 1    
   148   75   77 1    
   149   75  196 1    
   150   76  197 1    
   151   76  198 1    
   152   76  199 1    
   153   77   78 2    
   154   77   79 am   BACKBONE|DICT|INTERRES
   155   79   80 1    
   156   79  200 1    
   157   80   81 1    
   158   80   82 1    
   159   80  201 1    
   160   81  202 1    
   161   81  203 1    
   162   81  204 1    
   163   82   83 2    
   164   82   84 am   BACKBONE|DICT|INTERRES
   165   84   85 1    
   166   84  205 1    
   167   85   86 1    
   168   85   87 1    
   169   85  206 1    
   170   86  207 1    
   171   86  208 1    
   172   86  209 1    
   173   87   88 2    
   174   87   89 am   BACKBONE|DICT|INTERRES
   175   89   90 1    
   176   89  210 1    
   177   90   91 1    
   178   90   92 1    
   179   90  211 1    
   180   91  212 1    
   181   91  213 1    
   182   91  214 1    
   183   92   93 2    
   184   92   94 am   BACKBONE|DICT|INTERRES
   185   94   95 1    
   186   94  215 1    
   187   95   96 1    
   188   95   97 1    
   189   95  216 1    
   190   96  217 1    
   191   96  218 1    
   192   96  219 1    
   193   97   98 2    
   194   97   99 am   BACKBONE|DICT|INTERRES
   195   99  100 1    
   196   99  220 1    
   197  100  101 1    
   198  100  102 1    
   199  100  221 1    
   200  101  222 1    
   201  101  223 1    
   202  101  224 1    
   203  102  103 2    
   204  102  104 am   BACKBONE|DICT|INTERRES
   205  104  105 1    
   206  104  225 1    
   207  105  106 1    
   208  105  107 1    
   209  105  226 1    
   210  106  227 1    
   211  106  228 1    
   212  106  229 1    
   213  107  108 2    
   214  107  109 am   BACKBONE|DICT|INTERRES
   215  109  110 1    
   216  109  230 1    
   217  110  111 1    
   218  110  112 1    
   219  110  231 1    
   220  111  232 1    
   221  111  233 1    
   222  111  234 1    
   223  112  113 2    
   224  112  114 am   BACKBONE|DICT|INTERRES
   225  114  115 1    
   226  114  235 1    
   227  115  116 1    
   228  115  117 1    
   229  115  236 1    
   230  116  237 1    
   231  116  238 1    
   232  116  239 1    
   233  117  118 2    
   234  117  119 am   BACKBONE|DICT|INTERRES
   235  119  120 1    
   236  119  240 1    
   237  120  121 1    
   238  120  124 1    
   239  120  241 1    
   240  121  122 am   BACKBONE|DICT|INTERRES
   241  121  123 2    
   242  122  242 1    
   243  122  243 1    
   244  124  125 1    
   245  124  244 1    
   246  124  245 1    
   247  125  126 1    
   248  126  246 1    
   249  126  247 1    
@<TRIPOS>SUBSTRUCTURE
     1 UNK         1 GROUP             0       ****    0 ROOT    
