@<TRIPOS>MOLECULE
3R540
247   249    1
SMALL
USER_CHARGES


@<TRIPOS>ATOM
      1 CA          1.2588   -8.1797  -44.8213 C.3       0 UNK        -0.1800 
      2 C           1.8808   -9.2810  -45.6672 C.2       0 UNK         0.5000 
      3 O           2.9531   -9.0818  -46.2396 O.2       0 UNK        -0.5000 
      4 N           1.2274  -10.4474  -45.7405 N.am      1 UNK        -0.5000 
      5 CA          1.7016  -11.6369  -46.4542 C.3       1 UNK         0.1400 
      6 C6          0.5217  -12.5057  -46.9587 C.3       23 UNK        -0.0398 
      7 S7          1.0461  -13.6428  -48.2830 S.3       23 UNK        -0.2404 
      8 C8         -0.5534  -14.2662  -48.9078 C.3       23 UNK        -0.0205 
      9 C9         -0.4617  -15.5759  -49.6942 C.ar      23 UNK        -0.0193 
     10 C10        -1.4826  -15.9019  -50.5934 C.ar      23 UNK        -0.1150 
     11 C11        -1.4436  -17.0966  -51.3191 C.ar      23 UNK        -0.0193 
     12 C12        -0.3654  -17.9688  -51.1484 C.ar      23 UNK        -0.1150 
     13 C13         0.6536  -17.6738  -50.2373 C.ar      23 UNK        -0.0193 
     14 C14         0.5934  -16.4805  -49.5152 C.ar      23 UNK        -0.1150 
     15 C15         1.8343  -18.6173  -50.0144 C.3       23 UNK        -0.0205 
     16 S16         1.4127  -20.3920  -50.0475 S.3       23 UNK        -0.2404 
     17 C17        -0.0374  -20.4783  -48.9442 C.3       23 UNK        -0.0398 
     18 CA          0.0164  -21.7216  -48.0228 C.3       11 UNK         0.1400 
     19 N           0.7018  -21.4333  -46.7593 N.am      11 UNK        -0.5000 
     20 C           1.1209  -22.3556  -45.8825 C.2       10 UNK         0.5000 
     21 O           0.9705  -23.5679  -46.0394 O.2       10 UNK        -0.5000 
     22 CA          1.7906  -21.8288  -44.6001 C.3       10 UNK         0.1400 
     23 CB          3.2356  -21.3810  -44.8700 C.3       10 UNK        -0.1800 
     24 N           1.0339  -20.7246  -44.0103 N.am      10 UNK        -0.5000 
     25 C          -0.1369  -20.8738  -43.3750 C.2       9 UNK         0.5000 
     26 O          -0.6562  -21.9671  -43.1505 O.2       9 UNK        -0.5000 
     27 CA         -0.8658  -19.5904  -42.9337 C.3       9 UNK         0.1400 
     28 CB         -0.4162  -19.1727  -41.5257 C.3       9 UNK        -0.1800 
     29 N          -0.6768  -18.4659  -43.8502 N.am      9 UNK        -0.5000 
     30 C          -1.0807  -18.4349  -45.1283 C.2       8 UNK         0.5000 
     31 O          -1.6726  -19.3564  -45.6848 O.2       8 UNK        -0.5000 
     32 CA         -0.7030  -17.1823  -45.9366 C.3       8 UNK         0.1400 
     33 CB         -1.6293  -16.0116  -45.5749 C.3       8 UNK        -0.1800 
     34 N           0.6929  -16.7975  -45.7242 N.am      8 UNK        -0.5000 
     35 C           1.7482  -17.5710  -46.0188 C.2       7 UNK         0.5000 
     36 O           1.6587  -18.6870  -46.5289 O.2       7 UNK        -0.5000 
     37 CA          3.1301  -17.0301  -45.6256 C.3       7 UNK         0.1400 
     38 CB          3.7049  -16.1318  -46.7294 C.3       7 UNK        -0.1800 
     39 N           3.0699  -16.3006  -44.3590 N.am      7 UNK        -0.5000 
     40 C           2.9981  -16.9047  -43.1640 C.2       6 UNK         0.5000 
     41 O           3.0360  -18.1269  -43.0152 O.2       6 UNK        -0.5000 
     42 CA          2.8092  -16.0009  -41.9319 C.3       6 UNK         0.1400 
     43 CB          4.1657  -15.5509  -41.3691 C.3       6 UNK        -0.1800 
     44 N           1.9622  -14.8345  -42.2013 N.am      6 UNK        -0.5000 
     45 C           0.6480  -14.9251  -42.4572 C.2       5 UNK         0.5000 
     46 O           0.0593  -16.0050  -42.5214 O.2       5 UNK        -0.5000 
     47 CA         -0.1476  -13.6242  -42.6747 C.3       5 UNK         0.1400 
     48 CB         -1.6128  -13.7501  -42.2027 C.3       5 UNK        -0.1800 
     49 N           0.4773  -12.4785  -42.0158 N.am      5 UNK        -0.5000 
     50 C           0.2597  -11.2025  -42.3589 C.2       4 UNK         0.5000 
     51 O          -0.4070  -10.8571  -43.3356 O.2       4 UNK        -0.5000 
     52 CA          0.9233  -10.1373  -41.4793 C.3       4 UNK         0.1400 
     53 CB          0.2859  -10.0821  -40.0785 C.3       4 UNK        -0.1800 
     54 N           2.3483  -10.4220  -41.3986 N.am      4 UNK        -0.5000 
     55 C           3.3170   -9.5776  -41.0416 C.2       3 UNK         0.5000 
     56 O           3.1174   -8.4264  -40.6529 O.2       3 UNK        -0.5000 
     57 CA          4.7617  -10.0995  -41.1792 C.3       3 UNK         0.1400 
     58 CB          5.1254  -11.0557  -40.0263 C.3       3 UNK        -0.1800 
     59 N           5.0546  -10.6958  -42.4929 N.am      3 UNK        -0.5000 
     60 C           4.5589  -11.8160  -43.0376 C.2       2 UNK         0.5000 
     61 O           3.7565  -12.5607  -42.4694 O.2       2 UNK        -0.5000 
     62 CA          4.9865  -12.1028  -44.4867 C.3       2 UNK         0.1400 
     63 CB          5.5221  -13.5330  -44.6721 C.3       2 UNK        -0.1800 
     64 N           3.8962  -11.7904  -45.4134 N.am      2 UNK        -0.5000 
     65 C           2.7075  -12.3959  -45.5590 C.2       1 UNK         0.5000 
     66 O           2.3795  -13.4467  -45.0018 O.2       1 UNK        -0.5000 
     67 C          -1.3947  -22.3174  -47.8384 C.2       11 UNK         0.5000 
     68 O          -1.8542  -23.0160  -48.7391 O.2       11 UNK        -0.5000 
     69 N          -2.0536  -22.0417  -46.7027 N.am      12 UNK        -0.5000 
     70 CA         -3.4188  -22.4643  -46.3679 C.3       12 UNK         0.1400 
     71 CB         -3.8367  -21.8164  -45.0384 C.3       12 UNK        -0.1800 
     72 C          -3.6495  -23.9886  -46.3062 C.2       12 UNK         0.5000 
     73 O          -4.8059  -24.4149  -46.3501 O.2       12 UNK        -0.5000 
     74 N          -2.5712  -24.7792  -46.2144 N.am      13 UNK        -0.5000 
     75 CA         -2.5786  -26.2431  -46.2227 C.3       13 UNK         0.1400 
     76 CB         -1.1273  -26.7424  -46.1684 C.3       13 UNK        -0.1800 
     77 C          -3.3061  -26.8388  -47.4460 C.2       13 UNK         0.5000 
     78 O          -3.1997  -26.2985  -48.5497 O.2       13 UNK        -0.5000 
     79 N          -4.0387  -27.9385  -47.2171 N.am      14 UNK        -0.5000 
     80 CA         -4.8625  -28.6612  -48.1957 C.3       14 UNK         0.1400 
     81 CB         -3.9706  -29.3760  -49.2329 C.3       14 UNK        -0.1800 
     82 C          -5.9453  -27.7687  -48.8422 C.2       14 UNK         0.5000 
     83 O          -6.1461  -27.8218  -50.0565 O.2       14 UNK        -0.5000 
     84 N          -6.5988  -26.9405  -48.0112 N.am      15 UNK        -0.5000 
     85 CA         -7.6158  -25.9457  -48.3750 C.3       15 UNK         0.1400 
     86 CB         -8.9085  -26.6373  -48.8575 C.3       15 UNK        -0.1800 
     87 C          -7.0717  -24.9147  -49.3839 C.2       15 UNK         0.5000 
     88 O          -7.6446  -24.7297  -50.4584 O.2       15 UNK        -0.5000 
     89 N          -5.9335  -24.3042  -49.0282 N.am      16 UNK        -0.5000 
     90 CA         -5.1359  -23.3835  -49.8441 C.3       16 UNK         0.1400 
     91 CB         -5.8657  -22.0381  -50.0310 C.3       16 UNK        -0.1800 
     92 C          -4.6693  -24.0209  -51.1682 C.2       16 UNK         0.5000 
     93 O          -4.8037  -23.4091  -52.2311 O.2       16 UNK        -0.5000 
     94 N          -4.1633  -25.2598  -51.0722 N.am      17 UNK        -0.5000 
     95 CA         -3.7591  -26.1453  -52.1691 C.3       17 UNK         0.1400 
     96 CB         -2.4521  -25.6392  -52.8109 C.3       17 UNK        -0.1800 
     97 C          -4.8920  -26.3594  -53.1956 C.2       17 UNK         0.5000 
     98 O          -4.6790  -26.1876  -54.3961 O.2       17 UNK        -0.5000 
     99 N          -6.0876  -26.6882  -52.6845 N.am      18 UNK        -0.5000 
    100 CA        -7.3653  -26.7783  -53.3991 C.3       18 UNK         0.1400 
    101 CB        -7.3638  -27.9697  -54.3794 C.3       18 UNK        -0.1800 
    102 C         -7.7627  -25.4395  -54.0609 C.2       18 UNK         0.5000 
    103 O         -8.1613  -25.4150  -55.2270 O.2       18 UNK        -0.5000 
    104 N         -7.6339  -24.3526  -53.2855 N.am      19 UNK        -0.5000 
    105 CA        -7.8869  -22.9526  -53.6379 C.3       19 UNK         0.1400 
    106 CB        -9.4022  -22.7075  -53.7896 C.3       19 UNK        -0.1800 
    107 C         -7.0675  -22.4720  -54.8551 C.2       19 UNK         0.5000 
    108 O         -7.6205  -21.8435  -55.7608 O.2       19 UNK        -0.5000 
    109 N         -5.7664  -22.7902  -54.8646 N.am      20 UNK        -0.5000 
    110 CA        -4.8681  -22.5325  -55.9918 C.3       20 UNK         0.1400 
    111 CB        -4.9348  -23.7108  -56.9817 C.3       20 UNK        -0.1800 
    112 C         -3.4178  -22.2146  -55.5818 C.2       20 UNK         0.5000 
    113 O         -2.5802  -22.0716  -56.4745 O.2       20 UNK        -0.5000 
    114 N         -3.1284  -22.0724  -54.2767 N.am      21 UNK        -0.5000 
    115 CA        -1.7820  -21.8566  -53.7162 C.3       21 UNK         0.1400 
    116 CB        -1.8696  -21.7787  -52.1837 C.3       21 UNK        -0.1800 
    117 C         -0.9973  -20.6427  -54.2619 C.2       21 UNK         0.5000 
    118 O          0.2322  -20.6422  -54.1909 O.2       21 UNK        -0.5000 
    119 N         -1.7058  -19.6502  -54.8072 N.am      22 UNK        -0.5000 
    120 CA        -1.1430  -18.4942  -55.5195 C.3       22 UNK         0.1400 
    121 C         -1.8692  -18.2141  -56.8674 C.2       22 UNK         0.5000 
    122 N         -2.5269  -19.1995  -57.4701 N.am      22 UNK        -0.7600 
    123 O         -1.8209  -17.1052  -57.3928 O.2       22 UNK        -0.5000 
    124 C124       -0.9645  -17.2560  -54.5997 C.3       23 UNK        -0.0398 
    125 S125       -2.5067  -16.6068  -53.8603 S.3       23 UNK        -0.2404 
    126 C126       -2.5842  -17.4686  -52.2564 C.3       23 UNK        -0.0205 
    127 H127        1.1890   -7.2576  -45.3982 H         1 UNK         0.0600 
    128 H128        1.8761   -7.9883  -43.9436 H         1 UNK         0.0600 
    129 H129        0.2559   -8.4437  -44.4857 H         1 UNK         0.0600 
    130 H130        0.4024  -10.5800  -45.1628 H         1 UNK         0.3000 
    131 H131        2.2475  -11.2998  -47.3386 H         1 UNK         0.0600 
    132 H132        0.0560  -13.0652  -46.1473 H         1 UNK         0.0800 
    133 H133       -0.2578  -11.8634  -47.3711 H         1 UNK         0.0800 
    134 H134       -1.2432  -14.4138  -48.0795 H         1 UNK         0.0800 
    135 H135       -0.9930  -13.4914  -49.5377 H         1 UNK         0.0800 
    136 H136       -2.3168  -15.2272  -50.7265 H         1 UNK         0.1150 
    137 H137       -0.3289  -18.8880  -51.7156 H         1 UNK         0.1150 
    138 H138        1.3793  -16.2648  -48.8073 H         1 UNK         0.1150 
    139 H139        2.5819  -18.4237  -50.7841 H         1 UNK         0.0800 
    140 H140        2.3168  -18.4044  -49.0604 H         1 UNK         0.0800 
    141 H141       -0.9140  -20.4867  -49.5944 H         1 UNK         0.0800 
    142 H142       -0.1272  -19.5656  -48.3534 H         1 UNK         0.0800 
    143 H143        0.5903  -22.5036  -48.5254 H         1 UNK         0.0600 
    144 H144        0.9064  -20.4548  -46.5736 H         1 UNK         0.3000 
    145 H145        1.8241  -22.6477  -43.8783 H         1 UNK         0.0600 
    146 H146        3.8304  -22.2059  -45.2638 H         1 UNK         0.0600 
    147 H147        3.2833  -20.5690  -45.5953 H         1 UNK         0.0600 
    148 H148        3.7188  -21.0383  -43.9547 H         1 UNK         0.0600 
    149 H149        1.3982  -19.7919  -44.1482 H         1 UNK         0.3000 
    150 H150       -1.9340  -19.8141  -42.9003 H         1 UNK         0.0600 
    151 H151       -0.5559  -19.9853  -40.8116 H         1 UNK         0.0600 
    152 H152       -0.9920  -18.3200  -41.1653 H         1 UNK         0.0600 
    153 H153        0.6385  -18.8946  -41.5078 H         1 UNK         0.0600 
    154 H154       -0.2382  -17.6358  -43.4591 H         1 UNK         0.3000 
    155 H155       -0.8245  -17.4050  -46.9987 H         1 UNK         0.0600 
    156 H156       -1.2572  -15.0646  -45.9583 H         1 UNK         0.0600 
    157 H157       -1.7413  -15.9036  -44.4979 H         1 UNK         0.0600 
    158 H158       -2.6261  -16.1683  -45.9883 H         1 UNK         0.0600 
    159 H159        0.8631  -15.9055  -45.2851 H         1 UNK         0.3000 
    160 H160        3.8006  -17.8846  -45.5107 H         1 UNK         0.0600 
    161 H161        3.1061  -15.2340  -46.8738 H         1 UNK         0.0600 
    162 H162        3.7406  -16.6592  -47.6834 H         1 UNK         0.0600 
    163 H163        4.7225  -15.8227  -46.4934 H         1 UNK         0.0600 
    164 H164        2.9784  -15.2898  -44.4113 H         1 UNK         0.3000 
    165 H165        2.3147  -16.5977  -41.1622 H         1 UNK         0.0600 
    166 H166        4.0397  -14.9099  -40.4965 H         1 UNK         0.0600 
    167 H167        4.7611  -16.4107  -41.0598 H         1 UNK         0.0600 
    168 H168        4.7493  -15.0012  -42.1066 H         1 UNK         0.0600 
    169 H169        2.4378  -13.9391  -42.2796 H         1 UNK         0.3000 
    170 H170       -0.1463  -13.4540  -43.7525 H         1 UNK         0.0600 
    171 H171       -2.1221  -14.5899  -42.6735 H         1 UNK         0.0600 
    172 H172       -1.6691  -13.8989  -41.1240 H         1 UNK         0.0600 
    173 H173       -2.1888  -12.8575  -42.4464 H         1 UNK         0.0600 
    174 H174        1.0360  -12.6871  -41.2000 H         1 UNK         0.3000 
    175 H175        0.7856   -9.1694  -41.9649 H         1 UNK         0.0600 
    176 H176        0.6888   -9.2563  -39.4923 H         1 UNK         0.0600 
    177 H177       -0.7924   -9.9330  -40.1469 H         1 UNK         0.0600 
    178 H178        0.4570  -11.0019  -39.5185 H         1 UNK         0.0600 
    179 H179        2.6487  -11.3235  -41.7653 H         1 UNK         0.3000 
    180 H180        5.4167   -9.2305  -41.0973 H         1 UNK         0.0600 
    181 H181        4.4976  -11.9471  -40.0147 H         1 UNK         0.0600 
    182 H182        5.0032  -10.5622  -39.0615 H         1 UNK         0.0600 
    183 H183        6.1638  -11.3793  -40.0965 H         1 UNK         0.0600 
    184 H184        5.6739  -10.1397  -43.0662 H         1 UNK         0.3000 
    185 H185        5.8010  -11.4232  -44.7421 H         1 UNK         0.0600 
    186 H186        6.3995  -13.7009  -44.0469 H         1 UNK         0.0600 
    187 H187        4.7858  -14.2836  -44.3986 H         1 UNK         0.0600 
    188 H188        5.8178  -13.7114  -45.7056 H         1 UNK         0.0600 
    189 H189        3.9902  -10.8969  -45.8843 H         1 UNK         0.3000 
    190 H190       -1.6302  -21.3746  -46.0669 H         1 UNK         0.3000 
    191 H191       -4.0764  -22.0761  -47.1472 H         1 UNK         0.0600 
    192 H192       -3.8370  -20.7292  -45.1089 H         1 UNK         0.0600 
    193 H193       -4.8464  -22.1157  -44.7537 H         1 UNK         0.0600 
    194 H194       -3.1692  -22.1028  -44.2256 H         1 UNK         0.0600 
    195 H195       -1.6635  -24.3358  -46.2164 H         1 UNK         0.3000 
    196 H196       -3.0938  -26.5687  -45.3170 H         1 UNK         0.0600 
    197 H197       -1.0869  -27.8322  -46.1468 H         1 UNK         0.0600 
    198 H198       -0.6173  -26.3801  -45.2754 H         1 UNK         0.0600 
    199 H199       -0.5575  -26.4087  -47.0369 H         1 UNK         0.0600 
    200 H200       -4.0649  -28.3077  -46.2765 H         1 UNK         0.3000 
    201 H201       -5.4002  -29.4313  -47.6408 H         1 UNK         0.0600 
    202 H202       -3.2504  -30.0327  -48.7451 H         1 UNK         0.0600 
    203 H203       -3.4138  -28.6689  -49.8474 H         1 UNK         0.0600 
    204 H204       -4.5678  -29.9937  -49.9046 H         1 UNK         0.0600 
    205 H205       -6.3266  -26.9451  -47.0381 H         1 UNK         0.3000 
    206 H206       -7.8548  -25.3931  -47.4652 H         1 UNK         0.0600 
    207 H207       -9.2815  -27.3392  -48.1118 H         1 UNK         0.0600 
    208 H208       -9.6967  -25.9054  -49.0374 H         1 UNK         0.0600 
    209 H209       -8.7560  -27.1860  -49.7874 H         1 UNK         0.0600 
    210 H210       -5.5383  -24.5339  -48.1202 H         1 UNK         0.3000 
    211 H211       -4.2338  -23.1827  -49.2759 H         1 UNK         0.0600 
    212 H212       -6.8015  -22.1544  -50.5762 H         1 UNK         0.0600 
    213 H213       -5.2471  -21.3306  -50.5845 H         1 UNK         0.0600 
    214 H214       -6.0960  -21.5818  -49.0685 H         1 UNK         0.0600 
    215 H215       -4.0412  -25.6495  -50.1402 H         1 UNK         0.3000 
    216 H216       -3.5559  -27.1185  -51.7216 H         1 UNK         0.0600 
    217 H217       -2.0651  -26.3628  -53.5289 H         1 UNK         0.0600 
    218 H218       -1.6788  -25.4782  -52.0597 H         1 UNK         0.0600 
    219 H219       -2.6039  -24.7017  -53.3438 H         1 UNK         0.0600 
    220 H220       -6.1419  -26.8569  -51.6821 H         1 UNK         0.3000 
    221 H221       -8.1220  -26.9785  -52.6390 H         1 UNK         0.0600 
    222 H222       -6.6611  -27.8211  -55.1997 H         1 UNK         0.0600 
    223 H223       -7.0963  -28.8964  -53.8716 H         1 UNK         0.0600 
    224 H224       -8.3517  -28.1139  -54.8182 H         1 UNK         0.0600 
    225 H225       -7.3487  -24.5022  -52.3206 H         1 UNK         0.3000 
    226 H226       -7.5426  -22.3582  -52.7919 H         1 UNK         0.0600 
    227 H227       -9.9418  -23.0204  -52.8955 H         1 UNK         0.0600 
    228 H228       -9.6147  -21.6487  -53.9415 H         1 UNK         0.0600 
    229 H229       -9.8169  -23.2510  -54.6391 H         1 UNK         0.0600 
    230 H230       -5.3845  -23.2937  -54.0677 H         1 UNK         0.3000 
    231 H231       -5.2097  -21.6378  -56.5162 H         1 UNK         0.0600 
    232 H232       -4.5565  -24.6294  -56.5340 H         1 UNK         0.0600 
    233 H233       -4.3414  -23.5125  -57.8750 H         1 UNK         0.0600 
    234 H234       -5.9576  -23.8965  -57.3100 H         1 UNK         0.0600 
    235 H235       -3.8636  -22.2330  -53.5973 H         1 UNK         0.3000 
    236 H236       -1.1898  -22.7376  -53.9704 H         1 UNK         0.0600 
    237 H237       -2.1756  -22.7315  -51.7557 H         1 UNK         0.0600 
    238 H238       -0.8981  -21.5436  -51.7490 H         1 UNK         0.0600 
    239 H239       -2.5746  -21.0152  -51.8540 H         1 UNK         0.0600 
    240 H240       -2.7120  -19.7269  -54.8296 H         1 UNK         0.3000 
    241 H241       -0.1385  -18.7640  -55.8502 H         1 UNK         0.0600 
    242 H242       -2.9866  -19.0176  -58.3485 H         1 UNK         0.3800 
    243 H243       -2.4929  -20.1465  -57.1089 H         1 UNK         0.3800 
    244 H244       -0.2512  -17.4937  -53.8126 H         1 UNK         0.0800 
    245 H245       -0.4981  -16.4431  -55.1582 H         1 UNK         0.0800 
    246 H246       -2.6066  -18.5456  -52.4223 H         1 UNK         0.0800 
    247 H247       -3.5329  -17.2230  -51.7773 H         1 UNK         0.0800 
@<TRIPOS>BOND
     1    1    2 1    
     2    1  127 1    
     3    1  128 1    
     4    1  129 1    
     5    2    3 2    
     6    2    4 am   BACKBONE|DICT|INTERRES
     7    4    5 1    
     8    4  130 1    
     9    5    6 1    
    10    5   65 1    
    11    5  131 1    
    12    6    7 1    
    13    6  132 1    
    14    6  133 1    
    15    7    8 1    
    16    8    9 1    
    17    8  134 1    
    18    8  135 1    
    19    9   10 ar   
    20    9   14 ar   
    21   10   11 ar   
    22   10  136 1    
    23   11   12 ar   
    24   11  126 1    
    25   12   13 ar   
    26   12  137 1    
    27   13   14 ar   
    28   13   15 1    
    29   14  138 1    
    30   15   16 1    
    31   15  139 1    
    32   15  140 1    
    33   16   17 1    
    34   17   18 1    
    35   17  141 1    
    36   17  142 1    
    37   18   19 1    
    38   18   67 1    
    39   18  143 1    
    40   19   20 am   BACKBONE|DICT|INTERRES
    41   19  144 1    
    42   20   21 2    
    43   20   22 1    
    44   22   23 1    
    45   22   24 1    
    46   22  145 1    
    47   23  146 1    
    48   23  147 1    
    49   23  148 1    
    50   24   25 am   BACKBONE|DICT|INTERRES
    51   24  149 1    
    52   25   26 2    
    53   25   27 1    
    54   27   28 1    
    55   27   29 1    
    56   27  150 1    
    57   28  151 1    
    58   28  152 1    
    59   28  153 1    
    60   29   30 am   BACKBONE|DICT|INTERRES
    61   29  154 1    
    62   30   31 2    
    63   30   32 1    
    64   32   33 1    
    65   32   34 1    
    66   32  155 1    
    67   33  156 1    
    68   33  157 1    
    69   33  158 1    
    70   34   35 am   BACKBONE|DICT|INTERRES
    71   34  159 1    
    72   35   36 2    
    73   35   37 1    
    74   37   38 1    
    75   37   39 1    
    76   37  160 1    
    77   38  161 1    
    78   38  162 1    
    79   38  163 1    
    80   39   40 am   BACKBONE|DICT|INTERRES
    81   39  164 1    
    82   40   41 2    
    83   40   42 1    
    84   42   43 1    
    85   42   44 1    
    86   42  165 1    
    87   43  166 1    
    88   43  167 1    
    89   43  168 1    
    90   44   45 am   BACKBONE|DICT|INTERRES
    91   44  169 1    
    92   45   46 2    
    93   45   47 1    
    94   47   48 1    
    95   47   49 1    
    96   47  170 1    
    97   48  171 1    
    98   48  172 1    
    99   48  173 1    
   100   49   50 am   BACKBONE|DICT|INTERRES
   101   49  174 1    
   102   50   51 2    
   103   50   52 1    
   104   52   53 1    
   105   52   54 1    
   106   52  175 1    
   107   53  176 1    
   108   53  177 1    
   109   53  178 1    
   110   54   55 am   BACKBONE|DICT|INTERRES
   111   54  179 1    
   112   55   56 2    
   113   55   57 1    
   114   57   58 1    
   115   57   59 1    
   116   57  180 1    
   117   58  181 1    
   118   58  182 1    
   119   58  183 1    
   120   59   60 am   BACKBONE|DICT|INTERRES
   121   59  184 1    
   122   60   61 2    
   123   60   62 1    
   124   62   63 1    
   125   62   64 1    
   126   62  185 1    
   127   63  186 1    
   128   63  187 1    
   129   63  188 1    
   130   64   65 am   BACKBONE|DICT|INTERRES
   131   64  189 1    
   132   65   66 2    
   133   67   68 2    
   134   67   69 am   BACKBONE|DICT|INTERRES
   135   69   70 1    
   136   69  190 1    
   137   70   71 1    
   138   70   72 1    
   139   70  191 1    
   140   71  192 1    
   141   71  193 1    
   142   71  194 1    
   143   72   73 2    
   144   72   74 am   BACKBONE|DICT|INTERRES
   145   74   75 1    
   146   74  195 1    
   147   75   76 1    
   148   75   77 1    
   149   75  196 1    
   150   76  197 1    
   151   76  198 1    
   152   76  199 1    
   153   77   78 2    
   154   77   79 am   BACKBONE|DICT|INTERRES
   155   79   80 1    
   156   79  200 1    
   157   80   81 1    
   158   80   82 1    
   159   80  201 1    
   160   81  202 1    
   161   81  203 1    
   162   81  204 1    
   163   82   83 2    
   164   82   84 am   BACKBONE|DICT|INTERRES
   165   84   85 1    
   166   84  205 1    
   167   85   86 1    
   168   85   87 1    
   169   85  206 1    
   170   86  207 1    
   171   86  208 1    
   172   86  209 1    
   173   87   88 2    
   174   87   89 am   BACKBONE|DICT|INTERRES
   175   89   90 1    
   176   89  210 1    
   177   90   91 1    
   178   90   92 1    
   179   90  211 1    
   180   91  212 1    
   181   91  213 1    
   182   91  214 1    
   183   92   93 2    
   184   92   94 am   BACKBONE|DICT|INTERRES
   185   94   95 1    
   186   94  215 1    
   187   95   96 1    
   188   95   97 1    
   189   95  216 1    
   190   96  217 1    
   191   96  218 1    
   192   96  219 1    
   193   97   98 2    
   194   97   99 am   BACKBONE|DICT|INTERRES
   195   99  100 1    
   196   99  220 1    
   197  100  101 1    
   198  100  102 1    
   199  100  221 1    
   200  101  222 1    
   201  101  223 1    
   202  101  224 1    
   203  102  103 2    
   204  102  104 am   BACKBONE|DICT|INTERRES
   205  104  105 1    
   206  104  225 1    
   207  105  106 1    
   208  105  107 1    
   209  105  226 1    
   210  106  227 1    
   211  106  228 1    
   212  106  229 1    
   213  107  108 2    
   214  107  109 am   BACKBONE|DICT|INTERRES
   215  109  110 1    
   216  109  230 1    
   217  110  111 1    
   218  110  112 1    
   219  110  231 1    
   220  111  232 1    
   221  111  233 1    
   222  111  234 1    
   223  112  113 2    
   224  112  114 am   BACKBONE|DICT|INTERRES
   225  114  115 1    
   226  114  235 1    
   227  115  116 1    
   228  115  117 1    
   229  115  236 1    
   230  116  237 1    
   231  116  238 1    
   232  116  239 1    
   233  117  118 2    
   234  117  119 am   BACKBONE|DICT|INTERRES
   235  119  120 1    
   236  119  240 1    
   237  120  121 1    
   238  120  124 1    
   239  120  241 1    
   240  121  122 am   BACKBONE|DICT|INTERRES
   241  121  123 2    
   242  122  242 1    
   243  122  243 1    
   244  124  125 1    
   245  124  244 1    
   246  124  245 1    
   247  125  126 1    
   248  126  246 1    
   249  126  247 1    
@<TRIPOS>SUBSTRUCTURE
     1 UNK         1 GROUP             0       ****    0 ROOT    
