@<TRIPOS>MOLECULE
3R540
247   249    1
SMALL
USER_CHARGES


@<TRIPOS>ATOM
      1 CA          3.1652  -11.0887  -48.9853 C.3       0 UNK        -0.1800 
      2 C           2.3424  -11.8398  -47.9499 C.2       0 UNK         0.5000 
      3 O           2.5070  -11.6063  -46.7532 O.2       0 UNK        -0.5000 
      4 N           1.4436  -12.7235  -48.4032 N.am      1 UNK        -0.5000 
      5 CA          0.5912  -13.6003  -47.5832 C.3       1 UNK         0.1400 
      6 C6         -0.2417  -14.5642  -48.4652 C.3       23 UNK        -0.0398 
      7 S7          0.8082  -15.6738  -49.4644 S.3       23 UNK        -0.2404 
      8 C8         -0.0608  -17.2593  -49.2686 C.3       23 UNK        -0.0205 
      9 C9          0.6709  -18.3788  -49.9902 C.ar      23 UNK        -0.0193 
     10 C10         0.4250  -18.6257  -51.3444 C.ar      23 UNK        -0.1150 
     11 C11         1.1041  -19.6475  -52.0139 C.ar      23 UNK        -0.0193 
     12 C12         2.0290  -20.4298  -51.3160 C.ar      23 UNK        -0.1150 
     13 C13         2.2805  -20.1952  -49.9608 C.ar      23 UNK        -0.0193 
     14 C14         1.6015  -19.1648  -49.3045 C.ar      23 UNK        -0.1150 
     15 C15         3.3033  -21.0409  -49.2169 C.3       23 UNK        -0.0205 
     16 S16         2.5661  -22.5579  -48.5336 S.3       23 UNK        -0.2404 
     17 C17         1.7306  -21.9092  -47.0476 C.3       23 UNK        -0.0398 
     18 CA          1.0898  -23.0271  -46.1883 C.3       11 UNK         0.1400 
     19 N           1.0166  -22.6488  -44.7743 N.am      11 UNK        -0.5000 
     20 C           0.7659  -23.4915  -43.7624 C.2       10 UNK         0.5000 
     21 O           0.5547  -24.6957  -43.9114 O.2       10 UNK        -0.5000 
     22 CA          0.7186  -22.8774  -42.3507 C.3       10 UNK         0.1400 
     23 CB          2.1340  -22.6468  -41.7993 C.3       10 UNK        -0.1800 
     24 N          -0.0305  -21.6209  -42.3259 N.am      10 UNK        -0.5000 
     25 C          -1.3614  -21.5416  -42.4627 C.2       9 UNK         0.5000 
     26 O          -2.0981  -22.5250  -42.5341 O.2       9 UNK        -0.5000 
     27 CA         -1.9758  -20.1328  -42.5609 C.3       9 UNK         0.1400 
     28 CB         -2.2868  -19.5824  -41.1613 C.3       9 UNK        -0.1800 
     29 N          -1.1330  -19.1796  -43.2854 N.am      9 UNK        -0.5000 
     30 C          -0.7992  -19.2844  -44.5798 C.2       8 UNK         0.5000 
     31 O          -1.1809  -20.1930  -45.3146 O.2       8 UNK        -0.5000 
     32 CA          0.1745  -18.2323  -45.1360 C.3       8 UNK         0.1400 
     33 CB         -0.5499  -16.9099  -45.4196 C.3       8 UNK        -0.1800 
     34 N           1.3087  -17.9908  -44.2464 N.am      8 UNK        -0.5000 
     35 C           2.1976  -18.9216  -43.8725 C.2       7 UNK         0.5000 
     36 O           2.1810  -20.0841  -44.2735 O.2       7 UNK        -0.5000 
     37 CA          3.2449  -18.4977  -42.8321 C.3       7 UNK         0.1400 
     38 CB          4.4029  -17.7397  -43.4967 C.3       7 UNK        -0.1800 
     39 N           2.6486  -17.6772  -41.7789 N.am      7 UNK        -0.5000 
     40 C           1.8076  -18.1472  -40.8464 C.2       6 UNK         0.5000 
     41 O           1.4852  -19.3318  -40.7499 O.2       6 UNK        -0.5000 
     42 CA          1.1967  -17.1100  -39.8864 C.3       6 UNK         0.1400 
     43 CB          2.1639  -16.7993  -38.7345 C.3       6 UNK        -0.1800 
     44 N           0.8305  -15.8646  -40.5641 N.am      6 UNK        -0.5000 
     45 C          -0.1535  -15.7617  -41.4684 C.2       5 UNK         0.5000 
     46 O          -0.8698  -16.7032  -41.8055 O.2       5 UNK        -0.5000 
     47 CA         -0.3451  -14.3895  -42.1381 C.3       5 UNK         0.1400 
     48 CB         -1.2701  -13.4968  -41.2985 C.3       5 UNK        -0.1800 
     49 N           0.9059  -13.6757  -42.3982 N.am      5 UNK        -0.5000 
     50 C           1.8994  -14.1090  -43.1847 C.2       4 UNK         0.5000 
     51 O           1.9180  -15.2275  -43.7012 O.2       4 UNK        -0.5000 
     52 CA          3.0495  -13.1140  -43.4389 C.3       4 UNK         0.1400 
     53 CB          4.0888  -13.6505  -44.4391 C.3       4 UNK        -0.1800 
     54 N           2.5405  -11.8384  -43.9399 N.am      4 UNK        -0.5000 
     55 C           2.0554  -10.8385  -43.1934 C.2       3 UNK         0.5000 
     56 O           1.9765  -10.8821  -41.9651 O.2       3 UNK        -0.5000 
     57 CA          1.5259   -9.6139  -43.9533 C.3       3 UNK         0.1400 
     58 CB          2.6802   -8.7925  -44.5498 C.3       3 UNK        -0.1800 
     59 N           0.6208  -10.0319  -45.0220 N.am      3 UNK        -0.5000 
     60 C          -0.7041  -10.1765  -44.8817 C.2       2 UNK         0.5000 
     61 O          -1.3151   -9.9158  -43.8447 O.2       2 UNK        -0.5000 
     62 CA         -1.4847  -10.6974  -46.1050 C.3       2 UNK         0.1400 
     63 CB         -1.9953   -9.5246  -46.9559 C.3       2 UNK        -0.1800 
     64 N          -0.6927  -11.5909  -46.9512 N.am      2 UNK        -0.5000 
     65 C          -0.3379  -12.8382  -46.6114 C.2       1 UNK         0.5000 
     66 O          -0.7061  -13.3877  -45.5741 O.2       1 UNK        -0.5000 
     67 C          -0.2744  -23.4618  -46.7651 C.2       11 UNK         0.5000 
     68 O          -0.3019  -24.2848  -47.6803 O.2       11 UNK        -0.5000 
     69 N          -1.3800  -22.9278  -46.2208 N.am      12 UNK        -0.5000 
     70 CA         -2.7657  -23.1359  -46.6596 C.3       12 UNK         0.1400 
     71 CB         -3.7241  -22.3642  -45.7405 C.3       12 UNK        -0.1800 
     72 C          -3.2218  -24.6014  -46.7914 C.2       12 UNK         0.5000 
     73 O          -4.1430  -24.8660  -47.5628 O.2       12 UNK        -0.5000 
     74 N          -2.5508  -25.5272  -46.0936 N.am      13 UNK        -0.5000 
     75 CA         -2.7253  -26.9739  -46.2395 C.3       13 UNK         0.1400 
     76 CB         -1.8764  -27.6844  -45.1746 C.3       13 UNK        -0.1800 
     77 C          -2.3766  -27.5024  -47.6492 C.2       13 UNK         0.5000 
     78 O          -2.9512  -28.5070  -48.0709 O.2       13 UNK        -0.5000 
     79 N          -1.4616  -26.8174  -48.3489 N.am      14 UNK        -0.5000 
     80 CA         -1.0583  -27.1053  -49.7255 C.3       14 UNK         0.1400 
     81 CB          0.4660  -27.2968  -49.7687 C.3       14 UNK        -0.1800 
     82 C          -1.4810  -25.9754  -50.6809 C.2       14 UNK         0.5000 
     83 O          -1.8966  -26.2568  -51.8049 O.2       14 UNK        -0.5000 
     84 N          -1.3739  -24.7200  -50.2233 N.am      15 UNK        -0.5000 
     85 CA         -1.6542  -23.5118  -51.0024 C.3       15 UNK         0.1400 
     86 CB         -0.9465  -22.3204  -50.3361 C.3       15 UNK        -0.1800 
     87 C          -3.1520  -23.2027  -51.1767 C.2       15 UNK         0.5000 
     88 O          -3.4857  -22.2997  -51.9434 O.2       15 UNK        -0.5000 
     89 N          -4.0265  -23.8976  -50.4318 N.am      16 UNK        -0.5000 
     90 CA         -5.4884  -23.7320  -50.3985 C.3       16 UNK         0.1400 
     91 CB         -6.1090  -24.1510  -51.7476 C.3       16 UNK        -0.1800 
     92 C          -5.9341  -22.3202  -49.9513 C.2       16 UNK         0.5000 
     93 O          -7.0108  -21.8631  -50.3340 O.2       16 UNK        -0.5000 
     94 N          -5.0711  -21.6550  -49.1672 N.am      17 UNK        -0.5000 
     95 CA         -5.1361  -20.2544  -48.7314 C.3       17 UNK         0.1400 
     96 CB         -6.3720  -20.0030  -47.8427 C.3       17 UNK        -0.1800 
     97 C          -5.0058  -19.2380  -49.8908 C.2       17 UNK         0.5000 
     98 O          -5.4204  -18.0882  -49.7344 O.2       17 UNK        -0.5000 
     99 N          -4.4015  -19.6762  -51.0079 N.am      18 UNK        -0.5000 
    100 CA        -4.1945  -18.9793  -52.2811 C.3       18 UNK         0.1400 
    101 CB        -3.4248  -17.6582  -52.0849 C.3       18 UNK        -0.1800 
    102 C         -5.4972  -18.7660  -53.0782 C.2       18 UNK         0.5000 
    103 O         -6.6011  -18.8983  -52.5456 O.2       18 UNK        -0.5000 
    104 N         -5.3362  -18.4747  -54.3755 N.am      19 UNK        -0.5000 
    105 CA        -6.3506  -18.2211  -55.4103 C.3       19 UNK         0.1400 
    106 CB        -7.2670  -17.0407  -55.0363 C.3       19 UNK        -0.1800 
    107 C         -7.1682  -19.4637  -55.8154 C.2       19 UNK         0.5000 
    108 O         -7.4323  -19.6515  -57.0032 O.2       19 UNK        -0.5000 
    109 N         -7.5188  -20.3103  -54.8401 N.am      20 UNK        -0.5000 
    110 CA        -8.1353  -21.6240  -55.0333 C.3       20 UNK         0.1400 
    111 CB        -8.7296  -22.0913  -53.6967 C.3       20 UNK        -0.1800 
    112 C         -7.1506  -22.6722  -55.5935 C.2       20 UNK         0.5000 
    113 O         -7.5923  -23.6797  -56.1477 O.2       20 UNK        -0.5000 
    114 N         -5.8455  -22.4101  -55.4555 N.am      21 UNK        -0.5000 
    115 CA        -4.7567  -23.1786  -56.0430 C.3       21 UNK         0.1400 
    116 CB        -4.1816  -24.1639  -55.0065 C.3       21 UNK        -0.1800 
    117 C         -3.7385  -22.1786  -56.6131 C.2       21 UNK         0.5000 
    118 O         -3.9967  -21.6067  -57.6733 O.2       21 UNK        -0.5000 
    119 N         -2.6112  -21.9796  -55.9205 N.am      22 UNK        -0.5000 
    120 CA        -1.5414  -21.0491  -56.3104 C.3       22 UNK         0.1400 
    121 C         -1.9178  -19.5450  -56.1652 C.2       22 UNK         0.5000 
    122 N         -1.1990  -18.6553  -56.8361 N.am      22 UNK        -0.7600 
    123 O         -2.8343  -19.1688  -55.4385 O.2       22 UNK        -0.5000 
    124 C124       -0.2062  -21.3982  -55.6044 C.3       23 UNK        -0.0398 
    125 S125       -0.2578  -21.2918  -53.7805 S.3       23 UNK        -0.2404 
    126 C126        0.8649  -19.8893  -53.4961 C.3       23 UNK        -0.0205 
    127 H127        2.9999  -10.0158  -48.8881 H         1 UNK         0.0600 
    128 H128        2.9053  -11.3838  -50.0022 H         1 UNK         0.0600 
    129 H129        4.2262  -11.2864  -48.8335 H         1 UNK         0.0600 
    130 H130        1.3677  -12.8705  -49.3999 H         1 UNK         0.3000 
    131 H131        1.2598  -14.1993  -46.9607 H         1 UNK         0.0600 
    132 H132       -0.9067  -15.1695  -47.8472 H         1 UNK         0.0800 
    133 H133       -0.8893  -14.0034  -49.1416 H         1 UNK         0.0800 
    134 H134       -0.1491  -17.4999  -48.2099 H         1 UNK         0.0800 
    135 H135       -1.0780  -17.1672  -49.6509 H         1 UNK         0.0800 
    136 H136       -0.2824  -18.0115  -51.8824 H         1 UNK         0.1150 
    137 H137        2.5542  -21.2227  -51.8298 H         1 UNK         0.1150 
    138 H138        1.8028  -18.9700  -48.2607 H         1 UNK         0.1150 
    139 H139        4.1078  -21.3212  -49.8983 H         1 UNK         0.0800 
    140 H140        3.7725  -20.4630  -48.4192 H         1 UNK         0.0800 
    141 H141        0.9962  -21.1516  -47.3265 H         1 UNK         0.0800 
    142 H142        2.4967  -21.3905  -46.4713 H         1 UNK         0.0800 
    143 H143        1.7419  -23.9024  -46.2318 H         1 UNK         0.0600 
    144 H144        1.2288  -21.6780  -44.5566 H         1 UNK         0.3000 
    145 H145        0.2155  -23.5896  -41.6932 H         1 UNK         0.0600 
    146 H146        2.1006  -22.2611  -40.7801 H         1 UNK         0.0600 
    147 H147        2.6998  -23.5790  -41.7767 H         1 UNK         0.0600 
    148 H148        2.6966  -21.9366  -42.4050 H         1 UNK         0.0600 
    149 H149        0.5048  -20.7670  -42.2299 H         1 UNK         0.3000 
    150 H150       -2.9168  -20.2236  -43.1075 H         1 UNK         0.0600 
    151 H151       -2.9176  -20.2723  -40.5994 H         1 UNK         0.0600 
    152 H152       -2.8182  -18.6325  -41.2211 H         1 UNK         0.0600 
    153 H153       -1.3769  -19.4209  -40.5821 H         1 UNK         0.0600 
    154 H154       -0.8161  -18.3684  -42.7610 H         1 UNK         0.3000 
    155 H155        0.5723  -18.6137  -46.0781 H         1 UNK         0.0600 
    156 H156       -0.9743  -16.4787  -44.5141 H         1 UNK         0.0600 
    157 H157       -1.3689  -17.0540  -46.1249 H         1 UNK         0.0600 
    158 H158        0.1321  -16.1759  -45.8473 H         1 UNK         0.0600 
    159 H159        1.4271  -17.0401  -43.9049 H         1 UNK         0.3000 
    160 H160        3.6507  -19.4021  -42.3736 H         1 UNK         0.0600 
    161 H161        4.0548  -16.8510  -44.0222 H         1 UNK         0.0600 
    162 H162        4.9092  -18.3714  -44.2275 H         1 UNK         0.0600 
    163 H163        5.1472  -17.4293  -42.7633 H         1 UNK         0.0600 
    164 H164        2.8131  -16.6827  -41.8287 H         1 UNK         0.3000 
    165 H165        0.2895  -17.5453  -39.4615 H         1 UNK         0.0600 
    166 H166        1.7084  -16.1254  -38.0086 H         1 UNK         0.0600 
    167 H167        2.4407  -17.7101  -38.2017 H         1 UNK         0.0600 
    168 H168        3.0840  -16.3356  -39.0924 H         1 UNK         0.0600 
    169 H169        1.3740  -15.0425  -40.3461 H         1 UNK         0.3000 
    170 H170       -0.8279  -14.5610  -43.1014 H         1 UNK         0.0600 
    171 H171       -2.2226  -13.9925  -41.1061 H         1 UNK         0.0600 
    172 H172       -0.8256  -13.2502  -40.3336 H         1 UNK         0.0600 
    173 H173       -1.4897  -12.5624  -41.8163 H         1 UNK         0.0600 
    174 H174        0.9858  -12.7392  -42.0195 H         1 UNK         0.3000 
    175 H175        3.5568  -12.9488  -42.4863 H         1 UNK         0.0600 
    176 H176        3.6337  -13.8986  -45.3991 H         1 UNK         0.0600 
    177 H177        4.8745  -12.9175  -44.6225 H         1 UNK         0.0600 
    178 H178        4.5711  -14.5500  -44.0570 H         1 UNK         0.0600 
    179 H179        2.5336  -11.7347  -44.9531 H         1 UNK         0.3000 
    180 H180        0.9946   -8.9766  -43.2431 H         1 UNK         0.0600 
    181 H181        3.2539   -9.3639  -45.2804 H         1 UNK         0.0600 
    182 H182        3.3711   -8.4687  -43.7704 H         1 UNK         0.0600 
    183 H183        2.3075   -7.8965  -45.0463 H         1 UNK         0.0600 
    184 H184        1.0559  -10.3387  -45.8832 H         1 UNK         0.3000 
    185 H185       -2.3499  -11.2514  -45.7343 H         1 UNK         0.0600 
    186 H186       -2.6118   -8.8498  -46.3604 H         1 UNK         0.0600 
    187 H187       -1.1734   -8.9390  -47.3698 H         1 UNK         0.0600 
    188 H188       -2.6091   -9.8765  -47.7853 H         1 UNK         0.0600 
    189 H189       -0.3514  -11.2137  -47.8233 H         1 UNK         0.3000 
    190 H190       -1.2489  -22.1989  -45.5269 H         1 UNK         0.3000 
    191 H191       -2.8407  -22.7002  -47.6553 H         1 UNK         0.0600 
    192 H192       -3.5211  -21.2941  -45.7585 H         1 UNK         0.0600 
    193 H193       -4.7608  -22.4963  -46.0533 H         1 UNK         0.0600 
    194 H194       -3.6495  -22.7056  -44.7083 H         1 UNK         0.0600 
    195 H195       -1.8020  -25.2186  -45.4892 H         1 UNK         0.3000 
    196 H196       -3.7761  -27.2043  -46.0526 H         1 UNK         0.0600 
    197 H197       -1.9946  -28.7669  -45.2373 H         1 UNK         0.0600 
    198 H198       -2.1716  -27.3835  -44.1692 H         1 UNK         0.0600 
    199 H199       -0.8150  -27.4613  -45.2931 H         1 UNK         0.0600 
    200 H200       -1.0473  -25.9911  -47.9266 H         1 UNK         0.3000 
    201 H201       -1.5256  -28.0265  -50.0795 H         1 UNK         0.0600 
    202 H202        0.7740  -28.1335  -49.1414 H         1 UNK         0.0600 
    203 H203        0.9945  -26.4073  -49.4224 H         1 UNK         0.0600 
    204 H204        0.8055  -27.5082  -50.7835 H         1 UNK         0.0600 
    205 H205       -0.9790  -24.5704  -49.2971 H         1 UNK         0.3000 
    206 H206       -1.2348  -23.6405  -52.0021 H         1 UNK         0.0600 
    207 H207        0.1305  -22.4787  -50.3006 H         1 UNK         0.0600 
    208 H208       -1.1159  -21.3966  -50.8903 H         1 UNK         0.0600 
    209 H209       -1.2935  -22.1516  -49.3183 H         1 UNK         0.0600 
    210 H210       -3.6613  -24.5955  -49.7967 H         1 UNK         0.3000 
    211 H211       -5.8584  -24.4215  -49.6388 H         1 UNK         0.0600 
    212 H212       -5.8636  -23.4455  -52.5416 H         1 UNK         0.0600 
    213 H213       -7.1960  -24.2017  -51.6796 H         1 UNK         0.0600 
    214 H214       -5.7583  -25.1361  -52.0552 H         1 UNK         0.0600 
    215 H215       -4.2240  -22.1447  -48.9266 H         1 UNK         0.3000 
    216 H216       -4.2549  -20.0992  -48.1071 H         1 UNK         0.0600 
    217 H217       -6.3235  -19.0188  -47.3756 H         1 UNK         0.0600 
    218 H218       -6.4386  -20.7377  -47.0405 H         1 UNK         0.0600 
    219 H219       -7.2986  -20.0447  -48.4156 H         1 UNK         0.0600 
    220 H220       -4.1410  -20.6561  -51.0456 H         1 UNK         0.3000 
    221 H221       -3.5636  -19.6478  -52.8691 H         1 UNK         0.0600 
    222 H222       -4.0491  -16.8836  -51.6390 H         1 UNK         0.0600 
    223 H223       -2.5583  -17.8015  -51.4422 H         1 UNK         0.0600 
    224 H224       -3.0624  -17.2740  -53.0390 H         1 UNK         0.0600 
    225 H225       -4.3820  -18.5090  -54.7349 H         1 UNK         0.3000 
    226 H226       -5.7854  -17.9241  -56.2953 H         1 UNK         0.0600 
    227 H227       -6.6853  -16.1502  -54.7982 H         1 UNK         0.0600 
    228 H228       -7.9273  -16.7859  -55.8661 H         1 UNK         0.0600 
    229 H229       -7.8999  -17.2683  -54.1783 H         1 UNK         0.0600 
    230 H230       -7.2969  -20.0372  -53.8860 H         1 UNK         0.3000 
    231 H231       -8.9497  -21.5224  -55.7535 H         1 UNK         0.0600 
    232 H232       -7.9702  -22.1372  -52.9165 H         1 UNK         0.0600 
    233 H233       -9.1731  -23.0838  -53.7863 H         1 UNK         0.0600 
    234 H234       -9.5134  -21.4141  -53.3571 H         1 UNK         0.0600 
    235 H235       -5.5815  -21.5390  -55.0183 H         1 UNK         0.3000 
    236 H236       -5.1253  -23.7586  -56.8918 H         1 UNK         0.0600 
    237 H237       -4.9353  -24.8900  -54.7014 H         1 UNK         0.0600 
    238 H238       -3.3426  -24.7249  -55.4199 H         1 UNK         0.0600 
    239 H239       -3.8339  -23.6575  -54.1086 H         1 UNK         0.0600 
    240 H240       -2.4918  -22.4382  -55.0290 H         1 UNK         0.3000 
    241 H241       -1.3768  -21.2086  -57.3781 H         1 UNK         0.0600 
    242 H242       -0.4452  -18.9291  -57.4469 H         1 UNK         0.3800 
    243 H243       -1.4282  -17.6782  -56.7447 H         1 UNK         0.3800 
    244 H244        0.0788  -22.4188  -55.8629 H         1 UNK         0.0800 
    245 H245        0.6003  -20.7731  -55.9904 H         1 UNK         0.0800 
    246 H246        0.4499  -18.9960  -53.9660 H         1 UNK         0.0800 
    247 H247        1.8201  -20.0821  -53.9867 H         1 UNK         0.0800 
@<TRIPOS>BOND
     1    1    2 1    
     2    1  127 1    
     3    1  128 1    
     4    1  129 1    
     5    2    3 2    
     6    2    4 am   BACKBONE|DICT|INTERRES
     7    4    5 1    
     8    4  130 1    
     9    5    6 1    
    10    5   65 1    
    11    5  131 1    
    12    6    7 1    
    13    6  132 1    
    14    6  133 1    
    15    7    8 1    
    16    8    9 1    
    17    8  134 1    
    18    8  135 1    
    19    9   10 ar   
    20    9   14 ar   
    21   10   11 ar   
    22   10  136 1    
    23   11   12 ar   
    24   11  126 1    
    25   12   13 ar   
    26   12  137 1    
    27   13   14 ar   
    28   13   15 1    
    29   14  138 1    
    30   15   16 1    
    31   15  139 1    
    32   15  140 1    
    33   16   17 1    
    34   17   18 1    
    35   17  141 1    
    36   17  142 1    
    37   18   19 1    
    38   18   67 1    
    39   18  143 1    
    40   19   20 am   BACKBONE|DICT|INTERRES
    41   19  144 1    
    42   20   21 2    
    43   20   22 1    
    44   22   23 1    
    45   22   24 1    
    46   22  145 1    
    47   23  146 1    
    48   23  147 1    
    49   23  148 1    
    50   24   25 am   BACKBONE|DICT|INTERRES
    51   24  149 1    
    52   25   26 2    
    53   25   27 1    
    54   27   28 1    
    55   27   29 1    
    56   27  150 1    
    57   28  151 1    
    58   28  152 1    
    59   28  153 1    
    60   29   30 am   BACKBONE|DICT|INTERRES
    61   29  154 1    
    62   30   31 2    
    63   30   32 1    
    64   32   33 1    
    65   32   34 1    
    66   32  155 1    
    67   33  156 1    
    68   33  157 1    
    69   33  158 1    
    70   34   35 am   BACKBONE|DICT|INTERRES
    71   34  159 1    
    72   35   36 2    
    73   35   37 1    
    74   37   38 1    
    75   37   39 1    
    76   37  160 1    
    77   38  161 1    
    78   38  162 1    
    79   38  163 1    
    80   39   40 am   BACKBONE|DICT|INTERRES
    81   39  164 1    
    82   40   41 2    
    83   40   42 1    
    84   42   43 1    
    85   42   44 1    
    86   42  165 1    
    87   43  166 1    
    88   43  167 1    
    89   43  168 1    
    90   44   45 am   BACKBONE|DICT|INTERRES
    91   44  169 1    
    92   45   46 2    
    93   45   47 1    
    94   47   48 1    
    95   47   49 1    
    96   47  170 1    
    97   48  171 1    
    98   48  172 1    
    99   48  173 1    
   100   49   50 am   BACKBONE|DICT|INTERRES
   101   49  174 1    
   102   50   51 2    
   103   50   52 1    
   104   52   53 1    
   105   52   54 1    
   106   52  175 1    
   107   53  176 1    
   108   53  177 1    
   109   53  178 1    
   110   54   55 am   BACKBONE|DICT|INTERRES
   111   54  179 1    
   112   55   56 2    
   113   55   57 1    
   114   57   58 1    
   115   57   59 1    
   116   57  180 1    
   117   58  181 1    
   118   58  182 1    
   119   58  183 1    
   120   59   60 am   BACKBONE|DICT|INTERRES
   121   59  184 1    
   122   60   61 2    
   123   60   62 1    
   124   62   63 1    
   125   62   64 1    
   126   62  185 1    
   127   63  186 1    
   128   63  187 1    
   129   63  188 1    
   130   64   65 am   BACKBONE|DICT|INTERRES
   131   64  189 1    
   132   65   66 2    
   133   67   68 2    
   134   67   69 am   BACKBONE|DICT|INTERRES
   135   69   70 1    
   136   69  190 1    
   137   70   71 1    
   138   70   72 1    
   139   70  191 1    
   140   71  192 1    
   141   71  193 1    
   142   71  194 1    
   143   72   73 2    
   144   72   74 am   BACKBONE|DICT|INTERRES
   145   74   75 1    
   146   74  195 1    
   147   75   76 1    
   148   75   77 1    
   149   75  196 1    
   150   76  197 1    
   151   76  198 1    
   152   76  199 1    
   153   77   78 2    
   154   77   79 am   BACKBONE|DICT|INTERRES
   155   79   80 1    
   156   79  200 1    
   157   80   81 1    
   158   80   82 1    
   159   80  201 1    
   160   81  202 1    
   161   81  203 1    
   162   81  204 1    
   163   82   83 2    
   164   82   84 am   BACKBONE|DICT|INTERRES
   165   84   85 1    
   166   84  205 1    
   167   85   86 1    
   168   85   87 1    
   169   85  206 1    
   170   86  207 1    
   171   86  208 1    
   172   86  209 1    
   173   87   88 2    
   174   87   89 am   BACKBONE|DICT|INTERRES
   175   89   90 1    
   176   89  210 1    
   177   90   91 1    
   178   90   92 1    
   179   90  211 1    
   180   91  212 1    
   181   91  213 1    
   182   91  214 1    
   183   92   93 2    
   184   92   94 am   BACKBONE|DICT|INTERRES
   185   94   95 1    
   186   94  215 1    
   187   95   96 1    
   188   95   97 1    
   189   95  216 1    
   190   96  217 1    
   191   96  218 1    
   192   96  219 1    
   193   97   98 2    
   194   97   99 am   BACKBONE|DICT|INTERRES
   195   99  100 1    
   196   99  220 1    
   197  100  101 1    
   198  100  102 1    
   199  100  221 1    
   200  101  222 1    
   201  101  223 1    
   202  101  224 1    
   203  102  103 2    
   204  102  104 am   BACKBONE|DICT|INTERRES
   205  104  105 1    
   206  104  225 1    
   207  105  106 1    
   208  105  107 1    
   209  105  226 1    
   210  106  227 1    
   211  106  228 1    
   212  106  229 1    
   213  107  108 2    
   214  107  109 am   BACKBONE|DICT|INTERRES
   215  109  110 1    
   216  109  230 1    
   217  110  111 1    
   218  110  112 1    
   219  110  231 1    
   220  111  232 1    
   221  111  233 1    
   222  111  234 1    
   223  112  113 2    
   224  112  114 am   BACKBONE|DICT|INTERRES
   225  114  115 1    
   226  114  235 1    
   227  115  116 1    
   228  115  117 1    
   229  115  236 1    
   230  116  237 1    
   231  116  238 1    
   232  116  239 1    
   233  117  118 2    
   234  117  119 am   BACKBONE|DICT|INTERRES
   235  119  120 1    
   236  119  240 1    
   237  120  121 1    
   238  120  124 1    
   239  120  241 1    
   240  121  122 am   BACKBONE|DICT|INTERRES
   241  121  123 2    
   242  122  242 1    
   243  122  243 1    
   244  124  125 1    
   245  124  244 1    
   246  124  245 1    
   247  125  126 1    
   248  126  246 1    
   249  126  247 1    
@<TRIPOS>SUBSTRUCTURE
     1 UNK         1 GROUP             0       ****    0 ROOT    
