@<TRIPOS>MOLECULE
3R540
247   249    1
SMALL
USER_CHARGES


@<TRIPOS>ATOM
      1 CA          1.6913  -15.2051  -49.9788 C.3       0 UNK        -0.1800 
      2 C           1.8939  -14.9646  -48.4923 C.2       0 UNK         0.5000 
      3 O           2.8286  -15.5062  -47.9048 O.2       0 UNK        -0.5000 
      4 N           1.0403  -14.1322  -47.8839 N.am      1 UNK        -0.5000 
      5 CA          1.0649  -13.7507  -46.4633 C.3       1 UNK         0.1400 
      6 C6         -0.1552  -12.8759  -46.0658 C.3       23 UNK        -0.0398 
      7 S7         -0.5493  -11.5433  -47.2575 S.3       23 UNK        -0.2404 
      8 C8         -2.3236  -11.8207  -47.5833 C.3       23 UNK        -0.0205 
      9 C9         -2.6186  -13.2181  -48.1130 C.ar      23 UNK        -0.0193 
     10 C10        -2.1671  -13.6049  -49.3777 C.ar      23 UNK        -0.1150 
     11 C11        -2.4153  -14.8953  -49.8523 C.ar      23 UNK        -0.0193 
     12 C12        -3.1227  -15.7982  -49.0553 C.ar      23 UNK        -0.1150 
     13 C13        -3.6039  -15.4195  -47.7961 C.ar      23 UNK        -0.0193 
     14 C14        -3.3415  -14.1270  -47.3330 C.ar      23 UNK        -0.1150 
     15 C15        -4.3505  -16.4012  -46.8942 C.3       23 UNK        -0.0205 
     16 S16        -5.3993  -17.5892  -47.8019 S.3       23 UNK        -0.2404 
     17 C17        -5.4554  -18.9961  -46.6423 C.3       23 UNK        -0.0398 
     18 CA         -4.3408  -20.0369  -46.9334 C.3       11 UNK         0.1400 
     19 N          -3.0160  -19.5100  -46.6090 N.am      11 UNK        -0.5000 
     20 C          -1.9877  -19.3564  -47.4520 C.2       10 UNK         0.5000 
     21 O          -2.0420  -19.6253  -48.6515 O.2       10 UNK        -0.5000 
     22 CA         -0.6637  -18.8356  -46.8473 C.3       10 UNK         0.1400 
     23 CB         -0.4381  -17.3654  -47.2250 C.3       10 UNK        -0.1800 
     24 N          -0.5891  -18.9568  -45.3878 N.am      10 UNK        -0.5000 
     25 C          -0.5836  -20.1130  -44.7103 C.2       9 UNK         0.5000 
     26 O          -0.5715  -21.2179  -45.2517 O.2       9 UNK        -0.5000 
     27 CA         -0.7056  -20.0246  -43.1789 C.3       9 UNK         0.1400 
     28 CB          0.6735  -20.1045  -42.5079 C.3       9 UNK        -0.1800 
     29 N          -1.4237  -18.8292  -42.7247 N.am      9 UNK        -0.5000 
     30 C          -2.7271  -18.5960  -42.9506 C.2       8 UNK         0.5000 
     31 O          -3.4417  -19.3396  -43.6223 O.2       8 UNK        -0.5000 
     32 CA         -3.3363  -17.3173  -42.3468 C.3       8 UNK         0.1400 
     33 CB         -3.9747  -17.6232  -40.9839 C.3       8 UNK        -0.1800 
     34 N          -2.3608  -16.2402  -42.1857 N.am      8 UNK        -0.5000 
     35 C          -1.8647  -15.5133  -43.1955 C.2       7 UNK         0.5000 
     36 O          -2.2013  -15.6502  -44.3702 O.2       7 UNK        -0.5000 
     37 CA         -0.7750  -14.4882  -42.8326 C.3       7 UNK         0.1400 
     38 CB         -1.3981  -13.1308  -42.4766 C.3       7 UNK        -0.1800 
     39 N           0.1094  -14.9277  -41.7499 N.am      7 UNK        -0.5000 
     40 C           0.9157  -15.9917  -41.8419 C.2       6 UNK         0.5000 
     41 O           0.9470  -16.7389  -42.8236 O.2       6 UNK        -0.5000 
     42 CA          1.8058  -16.2988  -40.6330 C.3       6 UNK         0.1400 
     43 CB          1.0352  -17.0933  -39.5652 C.3       6 UNK        -0.1800 
     44 N           2.9297  -17.0850  -41.1183 N.am      6 UNK        -0.5000 
     45 C           4.1685  -17.0933  -40.6202 C.2       5 UNK         0.5000 
     46 O           4.4956  -16.5080  -39.5869 O.2       5 UNK        -0.5000 
     47 CA          5.2278  -17.8811  -41.4189 C.3       5 UNK         0.1400 
     48 CB          5.4504  -19.2650  -40.7892 C.3       5 UNK        -0.1800 
     49 N           4.8987  -18.0552  -42.8394 N.am      5 UNK        -0.5000 
     50 C           4.8402  -17.0663  -43.7425 C.2       4 UNK         0.5000 
     51 O           5.0386  -15.8800  -43.4699 O.2       4 UNK        -0.5000 
     52 CA          4.4730  -17.4896  -45.1795 C.3       4 UNK         0.1400 
     53 CB          2.9593  -17.7175  -45.3129 C.3       4 UNK        -0.1800 
     54 N           4.8796  -16.5077  -46.1824 N.am      4 UNK        -0.5000 
     55 C           6.1429  -16.2052  -46.5078 C.2       3 UNK         0.5000 
     56 O           7.1290  -16.7636  -46.0242 O.2       3 UNK        -0.5000 
     57 CA          6.3382  -15.0986  -47.5575 C.3       3 UNK         0.1400 
     58 CB          6.2312  -15.6786  -48.9770 C.3       3 UNK        -0.1800 
     59 N           5.3545  -14.0256  -47.4051 N.am      3 UNK        -0.5000 
     60 C           5.5636  -12.8913  -46.7225 C.2       2 UNK         0.5000 
     61 O           6.6182  -12.6294  -46.1426 O.2       2 UNK        -0.5000 
     62 CA          4.4208  -11.8553  -46.6993 C.3       2 UNK         0.1400 
     63 CB          4.6657  -10.7673  -47.7565 C.3       2 UNK        -0.1800 
     64 N           3.1032  -12.4461  -46.9325 N.am      2 UNK        -0.5000 
     65 C           2.3886  -13.0975  -46.0052 C.2       1 UNK         0.5000 
     66 O           2.7378  -13.2089  -44.8302 O.2       1 UNK        -0.5000 
     67 C          -4.5574  -21.3697  -46.1810 C.2       11 UNK         0.5000 
     68 O          -5.6962  -21.7155  -45.8638 O.2       11 UNK        -0.5000 
     69 N          -3.4687  -22.1092  -45.9223 N.am      12 UNK        -0.5000 
     70 CA         -3.4849  -23.4262  -45.2888 C.3       12 UNK         0.1400 
     71 CB         -3.2900  -23.2882  -43.7704 C.3       12 UNK        -0.1800 
     72 C          -2.4212  -24.3444  -45.9065 C.2       12 UNK         0.5000 
     73 O          -2.7395  -25.4846  -46.2479 O.2       12 UNK        -0.5000 
     74 N          -1.1922  -23.8331  -46.0739 N.am      13 UNK        -0.5000 
     75 CA         -0.0419  -24.5454  -46.6367 C.3       13 UNK         0.1400 
     76 CB          1.1743  -23.6073  -46.6454 C.3       13 UNK        -0.1800 
     77 C          -0.3084  -25.0881  -48.0522 C.2       13 UNK         0.5000 
     78 O          -0.8743  -24.3722  -48.8815 O.2       13 UNK        -0.5000 
     79 N           0.0856  -26.3485  -48.2872 N.am      14 UNK        -0.5000 
     80 CA         -0.1173  -27.1156  -49.5242 C.3       14 UNK         0.1400 
     81 CB          0.7696  -26.5565  -50.6566 C.3       14 UNK        -0.1800 
     82 C          -1.6061  -27.2276  -49.9220 C.2       14 UNK         0.5000 
     83 O          -1.9424  -27.1018  -51.1007 O.2       14 UNK        -0.5000 
     84 N          -2.4725  -27.4160  -48.9132 N.am      15 UNK        -0.5000 
     85 CA         -3.9382  -27.4141  -48.9960 C.3       15 UNK         0.1400 
     86 CB         -4.4468  -28.6330  -49.7946 C.3       15 UNK        -0.1800 
     87 C          -4.4746  -26.0716  -49.5335 C.2       15 UNK         0.5000 
     88 O          -5.2797  -26.0515  -50.4644 O.2       15 UNK        -0.5000 
     89 N          -3.9623  -24.9726  -48.9609 N.am      16 UNK        -0.5000 
     90 CA         -4.1698  -23.5788  -49.3705 C.3       16 UNK         0.1400 
     91 CB         -5.6252  -23.1455  -49.0992 C.3       16 UNK        -0.1800 
     92 C          -3.7337  -23.3382  -50.8300 C.2       16 UNK         0.5000 
     93 O          -4.4923  -22.7702  -51.6162 O.2       16 UNK        -0.5000 
     94 N          -2.5322  -23.8288  -51.1679 N.am      17 UNK        -0.5000 
     95 CA         -1.9317  -23.8688  -52.5055 C.3       17 UNK         0.1400 
     96 CB         -1.4788  -22.4578  -52.9286 C.3       17 UNK        -0.1800 
     97 C          -2.8620  -24.5382  -53.5391 C.2       17 UNK         0.5000 
     98 O          -3.2218  -23.9200  -54.5417 O.2       17 UNK        -0.5000 
     99 N          -3.2844  -25.7740  -53.2334 N.am      18 UNK        -0.5000 
    100 CA        -4.2648  -26.5798  -53.9729 C.3       18 UNK         0.1400 
    101 CB        -3.6646  -27.0670  -55.3076 C.3       18 UNK        -0.1800 
    102 C         -5.6196  -25.8555  -54.1458 C.2       18 UNK         0.5000 
    103 O         -6.1959  -25.8553  -55.2349 O.2       18 UNK        -0.5000 
    104 N         -6.0733  -25.2209  -53.0567 N.am      19 UNK        -0.5000 
    105 CA        -7.2743  -24.3954  -52.9016 C.3       19 UNK         0.1400 
    106 CB        -8.5466  -25.2329  -53.1458 C.3       19 UNK        -0.1800 
    107 C         -7.2827  -23.0766  -53.7074 C.2       19 UNK         0.5000 
    108 O         -8.3059  -22.3895  -53.7048 O.2       19 UNK        -0.5000 
    109 N         -6.1739  -22.7237  -54.3730 N.am      20 UNK        -0.5000 
    110 CA        -6.0670  -21.5160  -55.1928 C.3       20 UNK         0.1400 
    111 CB        -5.0838  -21.7711  -56.3452 C.3       20 UNK        -0.1800 
    112 C         -5.6296  -20.2778  -54.3910 C.2       20 UNK         0.5000 
    113 O         -5.9306  -19.1619  -54.8205 O.2       20 UNK        -0.5000 
    114 N         -4.9205  -20.4869  -53.2688 N.am      21 UNK        -0.5000 
    115 CA        -4.2530  -19.4903  -52.4232 C.3       21 UNK         0.1400 
    116 CB        -5.2872  -18.6841  -51.6084 C.3       21 UNK        -0.1800 
    117 C         -3.2839  -18.6111  -53.2414 C.2       21 UNK         0.5000 
    118 O         -2.1371  -19.0019  -53.4603 O.2       21 UNK        -0.5000 
    119 N         -3.7820  -17.4679  -53.7132 N.am      22 UNK        -0.5000 
    120 CA        -3.1334  -16.5588  -54.6652 C.3       22 UNK         0.1400 
    121 C         -4.1537  -15.9226  -55.6551 C.2       22 UNK         0.5000 
    122 N         -5.3262  -16.5143  -55.8616 N.am      22 UNK        -0.7600 
    123 O         -3.8808  -14.8927  -56.2661 O.2       22 UNK        -0.5000 
    124 C124       -2.1784  -15.5427  -53.9798 C.3       23 UNK        -0.0398 
    125 S125       -2.9216  -14.6578  -52.5631 S.3       23 UNK        -0.2404 
    126 C126       -1.9020  -15.3258  -51.2150 C.3       23 UNK        -0.0205 
    127 H127        1.1961  -14.3569  -50.4507 H         1 UNK         0.0600 
    128 H128        1.0875  -16.0987  -50.1358 H         1 UNK         0.0600 
    129 H129        2.6522  -15.3496  -50.4728 H         1 UNK         0.0600 
    130 H130        0.2937  -13.7095  -48.4179 H         1 UNK         0.3000 
    131 H131        0.9907  -14.6830  -45.8992 H         1 UNK         0.0600 
    132 H132       -0.0138  -12.4170  -45.0859 H         1 UNK         0.0800 
    133 H133       -1.0219  -13.5247  -45.9472 H         1 UNK         0.0800 
    134 H134       -2.8842  -11.6282  -46.6672 H         1 UNK         0.0800 
    135 H135       -2.6677  -11.0845  -48.3110 H         1 UNK         0.0800 
    136 H136       -1.6163  -12.9040  -49.9896 H         1 UNK         0.1150 
    137 H137       -3.2889  -16.8028  -49.4165 H         1 UNK         0.1150 
    138 H138       -3.6851  -13.8350  -46.3504 H         1 UNK         0.1150 
    139 H139       -3.6121  -16.9326  -46.2963 H         1 UNK         0.0800 
    140 H140       -4.9810  -15.8607  -46.1868 H         1 UNK         0.0800 
    141 H141       -6.4439  -19.4442  -46.7551 H         1 UNK         0.0800 
    142 H142       -5.3998  -18.6372  -45.6131 H         1 UNK         0.0800 
    143 H143       -4.3907  -20.2918  -47.9939 H         1 UNK         0.0600 
    144 H144       -2.8761  -19.3025  -45.6264 H         1 UNK         0.3000 
    145 H145        0.1456  -19.4296  -47.2768 H         1 UNK         0.0600 
    146 H146        0.5382  -17.0232  -46.8868 H         1 UNK         0.0600 
    147 H147       -0.4777  -17.2240  -48.3057 H         1 UNK         0.0600 
    148 H148       -1.1884  -16.7125  -46.7794 H         1 UNK         0.0600 
    149 H149       -0.6072  -18.0954  -44.8592 H         1 UNK         0.3000 
    150 H150       -1.2810  -20.8912  -42.8503 H         1 UNK         0.0600 
    151 H151        1.1868  -21.0256  -42.7869 H         1 UNK         0.0600 
    152 H152        0.5858  -20.1002  -41.4216 H         1 UNK         0.0600 
    153 H153        1.3169  -19.2761  -42.7967 H         1 UNK         0.0600 
    154 H154       -0.8810  -18.1340  -42.2332 H         1 UNK         0.3000 
    155 H155       -4.1227  -16.9751  -43.0232 H         1 UNK         0.0600 
    156 H156       -4.7265  -18.4087  -41.0726 H         1 UNK         0.0600 
    157 H157       -4.4726  -16.7437  -40.5753 H         1 UNK         0.0600 
    158 H158       -3.2336  -17.9586  -40.2572 H         1 UNK         0.0600 
    159 H159       -2.0289  -16.0574  -41.2503 H         1 UNK         0.3000 
    160 H160       -0.1509  -14.3593  -43.7164 H         1 UNK         0.0600 
    161 H161       -2.0011  -13.1896  -41.5697 H         1 UNK         0.0600 
    162 H162       -2.0461  -12.7757  -43.2793 H         1 UNK         0.0600 
    163 H163       -0.6300  -12.3727  -42.3219 H         1 UNK         0.0600 
    164 H164        0.1230  -14.3624  -40.9129 H         1 UNK         0.3000 
    165 H165        2.1653  -15.3568  -40.2135 H         1 UNK         0.0600 
    166 H166        1.6728  -17.3269  -38.7124 H         1 UNK         0.0600 
    167 H167        0.1858  -16.5230  -39.1878 H         1 UNK         0.0600 
    168 H168        0.6514  -18.0339  -39.9617 H         1 UNK         0.0600 
    169 H169        2.7547  -17.5368  -42.0066 H         1 UNK         0.3000 
    170 H170        6.1639  -17.3223  -41.3571 H         1 UNK         0.0600 
    171 H171        5.7272  -19.1763  -39.7378 H         1 UNK         0.0600 
    172 H172        4.5506  -19.8795  -40.8407 H         1 UNK         0.0600 
    173 H173        6.2553  -19.8028  -41.2905 H         1 UNK         0.0600 
    174 H174        4.7209  -19.0024  -43.1407 H         1 UNK         0.3000 
    175 H175        4.9869  -18.4272  -45.4008 H         1 UNK         0.0600 
    176 H176        2.7019  -18.0700  -46.3118 H         1 UNK         0.0600 
    177 H177        2.6052  -18.4678  -44.6069 H         1 UNK         0.0600 
    178 H178        2.3998  -16.7995  -45.1284 H         1 UNK         0.0600 
    179 H179        4.1276  -16.0270  -46.6681 H         1 UNK         0.3000 
    180 H180        7.3472  -14.6984  -47.4372 H         1 UNK         0.0600 
    181 H181        5.2446  -16.1024  -49.1687 H         1 UNK         0.0600 
    182 H182        6.9643  -16.4715  -49.1305 H         1 UNK         0.0600 
    183 H183        6.4183  -14.9128  -49.7298 H         1 UNK         0.0600 
    184 H184        4.4354  -14.2038  -47.7905 H         1 UNK         0.3000 
    185 H185        4.4256  -11.3796  -45.7162 H         1 UNK         0.0600 
    186 H186        5.6284  -10.2790  -47.5990 H         1 UNK         0.0600 
    187 H187        4.6682  -11.1798  -48.7662 H         1 UNK         0.0600 
    188 H188        3.8991   -9.9935  -47.7109 H         1 UNK         0.0600 
    189 H189        2.7326  -12.3860  -47.8696 H         1 UNK         0.3000 
    190 H190       -2.5628  -21.7539  -46.1987 H         1 UNK         0.3000 
    191 H191       -4.4519  -23.9019  -45.4677 H         1 UNK         0.0600 
    192 H192       -4.0507  -22.6425  -43.3311 H         1 UNK         0.0600 
    193 H193       -3.3616  -24.2593  -43.2793 H         1 UNK         0.0600 
    194 H194       -2.3142  -22.8694  -43.5270 H         1 UNK         0.0600 
    195 H195       -0.9993  -22.8852  -45.7571 H         1 UNK         0.3000 
    196 H196        0.1755  -25.3847  -45.9734 H         1 UNK         0.0600 
    197 H197        2.0558  -24.1096  -47.0459 H         1 UNK         0.0600 
    198 H198        1.4209  -23.2713  -45.6380 H         1 UNK         0.0600 
    199 H199        0.9922  -22.7225  -47.2571 H         1 UNK         0.0600 
    200 H200        0.5371  -26.8544  -47.5376 H         1 UNK         0.3000 
    201 H201        0.2156  -28.1339  -49.3185 H         1 UNK         0.0600 
    202 H202        1.8197  -26.5505  -50.3647 H         1 UNK         0.0600 
    203 H203        0.4936  -25.5368  -50.9235 H         1 UNK         0.0600 
    204 H204        0.6890  -27.1656  -51.5577 H         1 UNK         0.0600 
    205 H205       -2.0956  -27.4618  -47.9762 H         1 UNK         0.3000 
    206 H206       -4.3094  -27.5077  -47.9744 H         1 UNK         0.0600 
    207 H207       -4.0600  -29.5641  -49.3807 H         1 UNK         0.0600 
    208 H208       -5.5354  -28.6913  -49.7631 H         1 UNK         0.0600 
    209 H209       -4.1544  -28.5857  -50.8439 H         1 UNK         0.0600 
    210 H210       -3.2922  -25.1158  -48.2140 H         1 UNK         0.3000 
    211 H211       -3.5138  -22.9681  -48.7492 H         1 UNK         0.0600 
    212 H212       -6.3326  -23.6751  -49.7361 H         1 UNK         0.0600 
    213 H213       -5.7571  -22.0786  -49.2821 H         1 UNK         0.0600 
    214 H214       -5.9080  -23.3400  -48.0653 H         1 UNK         0.0600 
    215 H215       -1.9720  -24.2387  -50.4241 H         1 UNK         0.3000 
    216 H216       -1.0433  -24.4965  -52.4336 H         1 UNK         0.0600 
    217 H217       -0.9403  -22.4884  -53.8763 H         1 UNK         0.0600 
    218 H218       -0.8112  -22.0178  -52.1879 H         1 UNK         0.0600 
    219 H219       -2.3249  -21.7840  -53.0576 H         1 UNK         0.0600 
    220 H220       -2.9162  -26.2042  -52.3863 H         1 UNK         0.3000 
    221 H221       -4.4640  -27.4584  -53.3576 H         1 UNK         0.0600 
    222 H222       -3.4735  -26.2396  -55.9918 H         1 UNK         0.0600 
    223 H223       -2.7238  -27.5933  -55.1468 H         1 UNK         0.0600 
    224 H224       -4.3409  -27.7587  -55.8109 H         1 UNK         0.0600 
    225 H225       -5.5374  -25.3328  -52.1991 H         1 UNK         0.3000 
    226 H226       -7.2820  -24.0945  -51.8541 H         1 UNK         0.0600 
    227 H227       -8.5393  -26.1437  -52.5470 H         1 UNK         0.0600 
    228 H228       -9.4426  -24.6750  -52.8717 H         1 UNK         0.0600 
    229 H229       -8.6495  -25.5187  -54.1928 H         1 UNK         0.0600 
    230 H230       -5.3518  -23.3135  -54.3151 H         1 UNK         0.3000 
    231 H231       -7.0402  -21.2950  -55.6363 H         1 UNK         0.0600 
    232 H232       -4.0638  -21.9040  -55.9842 H         1 UNK         0.0600 
    233 H233       -5.0744  -20.9304  -57.0400 H         1 UNK         0.0600 
    234 H234       -5.3592  -22.6604  -56.9126 H         1 UNK         0.0600 
    235 H235       -4.7721  -21.4484  -52.9722 H         1 UNK         0.3000 
    236 H236       -3.6393  -20.0444  -51.7109 H         1 UNK         0.0600 
    237 H237       -5.8282  -19.3351  -50.9214 H         1 UNK         0.0600 
    238 H238       -4.7990  -17.9174  -51.0057 H         1 UNK         0.0600 
    239 H239       -6.0246  -18.1893  -52.2406 H         1 UNK         0.0600 
    240 H240       -4.7426  -17.2406  -53.4994 H         1 UNK         0.3000 
    241 H241       -2.5110  -17.1706  -55.3208 H         1 UNK         0.0600 
    242 H242       -5.9780  -16.0990  -56.5082 H         1 UNK         0.3800 
    243 H243       -5.5433  -17.4183  -55.4476 H         1 UNK         0.3800 
    244 H244       -1.2886  -16.0754  -53.6422 H         1 UNK         0.0800 
    245 H245       -1.8079  -14.8065  -54.6946 H         1 UNK         0.0800 
    246 H246       -1.8785  -16.4150  -51.2820 H         1 UNK         0.0800 
    247 H247       -0.8762  -14.9847  -51.3479 H         1 UNK         0.0800 
@<TRIPOS>BOND
     1    1    2 1    
     2    1  127 1    
     3    1  128 1    
     4    1  129 1    
     5    2    3 2    
     6    2    4 am   BACKBONE|DICT|INTERRES
     7    4    5 1    
     8    4  130 1    
     9    5    6 1    
    10    5   65 1    
    11    5  131 1    
    12    6    7 1    
    13    6  132 1    
    14    6  133 1    
    15    7    8 1    
    16    8    9 1    
    17    8  134 1    
    18    8  135 1    
    19    9   10 ar   
    20    9   14 ar   
    21   10   11 ar   
    22   10  136 1    
    23   11   12 ar   
    24   11  126 1    
    25   12   13 ar   
    26   12  137 1    
    27   13   14 ar   
    28   13   15 1    
    29   14  138 1    
    30   15   16 1    
    31   15  139 1    
    32   15  140 1    
    33   16   17 1    
    34   17   18 1    
    35   17  141 1    
    36   17  142 1    
    37   18   19 1    
    38   18   67 1    
    39   18  143 1    
    40   19   20 am   BACKBONE|DICT|INTERRES
    41   19  144 1    
    42   20   21 2    
    43   20   22 1    
    44   22   23 1    
    45   22   24 1    
    46   22  145 1    
    47   23  146 1    
    48   23  147 1    
    49   23  148 1    
    50   24   25 am   BACKBONE|DICT|INTERRES
    51   24  149 1    
    52   25   26 2    
    53   25   27 1    
    54   27   28 1    
    55   27   29 1    
    56   27  150 1    
    57   28  151 1    
    58   28  152 1    
    59   28  153 1    
    60   29   30 am   BACKBONE|DICT|INTERRES
    61   29  154 1    
    62   30   31 2    
    63   30   32 1    
    64   32   33 1    
    65   32   34 1    
    66   32  155 1    
    67   33  156 1    
    68   33  157 1    
    69   33  158 1    
    70   34   35 am   BACKBONE|DICT|INTERRES
    71   34  159 1    
    72   35   36 2    
    73   35   37 1    
    74   37   38 1    
    75   37   39 1    
    76   37  160 1    
    77   38  161 1    
    78   38  162 1    
    79   38  163 1    
    80   39   40 am   BACKBONE|DICT|INTERRES
    81   39  164 1    
    82   40   41 2    
    83   40   42 1    
    84   42   43 1    
    85   42   44 1    
    86   42  165 1    
    87   43  166 1    
    88   43  167 1    
    89   43  168 1    
    90   44   45 am   BACKBONE|DICT|INTERRES
    91   44  169 1    
    92   45   46 2    
    93   45   47 1    
    94   47   48 1    
    95   47   49 1    
    96   47  170 1    
    97   48  171 1    
    98   48  172 1    
    99   48  173 1    
   100   49   50 am   BACKBONE|DICT|INTERRES
   101   49  174 1    
   102   50   51 2    
   103   50   52 1    
   104   52   53 1    
   105   52   54 1    
   106   52  175 1    
   107   53  176 1    
   108   53  177 1    
   109   53  178 1    
   110   54   55 am   BACKBONE|DICT|INTERRES
   111   54  179 1    
   112   55   56 2    
   113   55   57 1    
   114   57   58 1    
   115   57   59 1    
   116   57  180 1    
   117   58  181 1    
   118   58  182 1    
   119   58  183 1    
   120   59   60 am   BACKBONE|DICT|INTERRES
   121   59  184 1    
   122   60   61 2    
   123   60   62 1    
   124   62   63 1    
   125   62   64 1    
   126   62  185 1    
   127   63  186 1    
   128   63  187 1    
   129   63  188 1    
   130   64   65 am   BACKBONE|DICT|INTERRES
   131   64  189 1    
   132   65   66 2    
   133   67   68 2    
   134   67   69 am   BACKBONE|DICT|INTERRES
   135   69   70 1    
   136   69  190 1    
   137   70   71 1    
   138   70   72 1    
   139   70  191 1    
   140   71  192 1    
   141   71  193 1    
   142   71  194 1    
   143   72   73 2    
   144   72   74 am   BACKBONE|DICT|INTERRES
   145   74   75 1    
   146   74  195 1    
   147   75   76 1    
   148   75   77 1    
   149   75  196 1    
   150   76  197 1    
   151   76  198 1    
   152   76  199 1    
   153   77   78 2    
   154   77   79 am   BACKBONE|DICT|INTERRES
   155   79   80 1    
   156   79  200 1    
   157   80   81 1    
   158   80   82 1    
   159   80  201 1    
   160   81  202 1    
   161   81  203 1    
   162   81  204 1    
   163   82   83 2    
   164   82   84 am   BACKBONE|DICT|INTERRES
   165   84   85 1    
   166   84  205 1    
   167   85   86 1    
   168   85   87 1    
   169   85  206 1    
   170   86  207 1    
   171   86  208 1    
   172   86  209 1    
   173   87   88 2    
   174   87   89 am   BACKBONE|DICT|INTERRES
   175   89   90 1    
   176   89  210 1    
   177   90   91 1    
   178   90   92 1    
   179   90  211 1    
   180   91  212 1    
   181   91  213 1    
   182   91  214 1    
   183   92   93 2    
   184   92   94 am   BACKBONE|DICT|INTERRES
   185   94   95 1    
   186   94  215 1    
   187   95   96 1    
   188   95   97 1    
   189   95  216 1    
   190   96  217 1    
   191   96  218 1    
   192   96  219 1    
   193   97   98 2    
   194   97   99 am   BACKBONE|DICT|INTERRES
   195   99  100 1    
   196   99  220 1    
   197  100  101 1    
   198  100  102 1    
   199  100  221 1    
   200  101  222 1    
   201  101  223 1    
   202  101  224 1    
   203  102  103 2    
   204  102  104 am   BACKBONE|DICT|INTERRES
   205  104  105 1    
   206  104  225 1    
   207  105  106 1    
   208  105  107 1    
   209  105  226 1    
   210  106  227 1    
   211  106  228 1    
   212  106  229 1    
   213  107  108 2    
   214  107  109 am   BACKBONE|DICT|INTERRES
   215  109  110 1    
   216  109  230 1    
   217  110  111 1    
   218  110  112 1    
   219  110  231 1    
   220  111  232 1    
   221  111  233 1    
   222  111  234 1    
   223  112  113 2    
   224  112  114 am   BACKBONE|DICT|INTERRES
   225  114  115 1    
   226  114  235 1    
   227  115  116 1    
   228  115  117 1    
   229  115  236 1    
   230  116  237 1    
   231  116  238 1    
   232  116  239 1    
   233  117  118 2    
   234  117  119 am   BACKBONE|DICT|INTERRES
   235  119  120 1    
   236  119  240 1    
   237  120  121 1    
   238  120  124 1    
   239  120  241 1    
   240  121  122 am   BACKBONE|DICT|INTERRES
   241  121  123 2    
   242  122  242 1    
   243  122  243 1    
   244  124  125 1    
   245  124  244 1    
   246  124  245 1    
   247  125  126 1    
   248  126  246 1    
   249  126  247 1    
@<TRIPOS>SUBSTRUCTURE
     1 UNK         1 GROUP             0       ****    0 ROOT    
