@<TRIPOS>MOLECULE
3R540
247   249    1
SMALL
USER_CHARGES


@<TRIPOS>ATOM
      1 CA          5.4749  -16.3824  -47.0241 C.3       0 UNK        -0.1800 
      2 C           4.1834  -15.5803  -46.9797 C.2       0 UNK         0.5000 
      3 O           3.7123  -15.2356  -45.8978 O.2       0 UNK        -0.5000 
      4 N           3.6174  -15.2561  -48.1502 N.am      1 UNK        -0.5000 
      5 CA          2.3252  -14.5708  -48.3245 C.3       1 UNK         0.1400 
      6 C6          1.8149  -14.7126  -49.7861 C.3       23 UNK        -0.0398 
      7 S7         -0.0027  -14.8262  -49.9264 S.3       23 UNK        -0.2404 
      8 C8         -0.3574  -16.4832  -49.2551 C.3       23 UNK        -0.0205 
      9 C9         -0.2021  -17.5954  -50.2824 C.ar      23 UNK        -0.0193 
     10 C10        -1.3201  -18.0627  -50.9801 C.ar      23 UNK        -0.1150 
     11 C11        -1.1994  -19.1105  -51.8968 C.ar      23 UNK        -0.0193 
     12 C12         0.0533  -19.6906  -52.1149 C.ar      23 UNK        -0.1150 
     13 C13         1.1825  -19.2198  -51.4416 C.ar      23 UNK        -0.0193 
     14 C14         1.0459  -18.1828  -50.5133 C.ar      23 UNK        -0.1150 
     15 C15         2.5520  -19.8063  -51.7550 C.3       23 UNK        -0.0205 
     16 S16         2.8019  -21.4500  -51.0145 S.3       23 UNK        -0.2404 
     17 C17         2.9310  -21.0313  -49.2442 C.3       23 UNK        -0.0398 
     18 CA          2.0741  -21.9333  -48.3266 C.3       11 UNK         0.1400 
     19 N           2.4347  -21.7134  -46.9258 N.am      11 UNK        -0.5000 
     20 C           2.0095  -22.4250  -45.8778 C.2       10 UNK         0.5000 
     21 O           1.2824  -23.4122  -45.9780 O.2       10 UNK        -0.5000 
     22 CA          2.4186  -21.9188  -44.4836 C.3       10 UNK         0.1400 
     23 CB          3.8464  -22.3631  -44.1192 C.3       10 UNK        -0.1800 
     24 N           2.2391  -20.4733  -44.2960 N.am      10 UNK        -0.5000 
     25 C           2.8865  -19.4415  -44.8592 C.2       9 UNK         0.5000 
     26 O           3.7545  -19.5593  -45.7247 O.2       9 UNK        -0.5000 
     27 CA          2.4805  -18.0357  -44.3796 C.3       9 UNK         0.1400 
     28 CB          1.3282  -17.4883  -45.2372 C.3       9 UNK        -0.1800 
     29 N           2.0943  -18.0117  -42.9682 N.am      9 UNK        -0.5000 
     30 C           2.9386  -18.2326  -41.9490 C.2       8 UNK         0.5000 
     31 O           4.1537  -18.3823  -42.0817 O.2       8 UNK        -0.5000 
     32 CA          2.3125  -18.3459  -40.5491 C.3       8 UNK         0.1400 
     33 CB          2.1204  -16.9593  -39.9177 C.3       8 UNK        -0.1800 
     34 N           1.0333  -19.0565  -40.5906 N.am      8 UNK        -0.5000 
     35 C           0.9148  -20.3862  -40.7221 C.2       7 UNK         0.5000 
     36 O           1.8723  -21.1591  -40.7509 O.2       7 UNK        -0.5000 
     37 CA         -0.5113  -20.9498  -40.8668 C.3       7 UNK         0.1400 
     38 CB         -1.0943  -21.3035  -39.4907 C.3       7 UNK        -0.1800 
     39 N          -1.4192  -20.0277  -41.5498 N.am      7 UNK        -0.5000 
     40 C          -1.3642  -19.7362  -42.8562 C.2       6 UNK         0.5000 
     41 O          -0.5644  -20.2472  -43.6403 O.2       6 UNK        -0.5000 
     42 CA         -2.3455  -18.6642  -43.3630 C.3       6 UNK         0.1400 
     43 CB         -3.6636  -19.3113  -43.8149 C.3       6 UNK        -0.1800 
     44 N          -2.6179  -17.6087  -42.3840 N.am      6 UNK        -0.5000 
     45 C          -1.6951  -16.7475  -41.9360 C.2       5 UNK         0.5000 
     46 O          -0.5024  -16.8002  -42.2468 O.2       5 UNK        -0.5000 
     47 CA         -2.1712  -15.6822  -40.9391 C.3       5 UNK         0.1400 
     48 CB         -1.7378  -16.0442  -39.5103 C.3       5 UNK        -0.1800 
     49 N          -1.6168  -14.3793  -41.2981 N.am      5 UNK        -0.5000 
     50 C          -2.1908  -13.5297  -42.1598 C.2       4 UNK         0.5000 
     51 O          -3.2763  -13.7370  -42.7040 O.2       4 UNK        -0.5000 
     52 CA         -1.4353  -12.2215  -42.4572 C.3       4 UNK         0.1400 
     53 CB         -1.8163  -11.1374  -41.4370 C.3       4 UNK        -0.1800 
     54 N           0.0207  -12.3802  -42.4673 N.am      4 UNK        -0.5000 
     55 C           0.7051  -12.9580  -43.4625 C.2       3 UNK         0.5000 
     56 O           0.1772  -13.4686  -44.4529 O.2       3 UNK        -0.5000 
     57 CA          2.2383  -12.9656  -43.3225 C.3       3 UNK         0.1400 
     58 CB          2.7277  -14.3232  -42.7976 C.3       3 UNK        -0.1800 
     59 N           2.8806  -12.6781  -44.6049 N.am      3 UNK        -0.5000 
     60 C           2.9327  -11.4594  -45.1664 C.2       2 UNK         0.5000 
     61 O           2.5265  -10.4391  -44.6080 O.2       2 UNK        -0.5000 
     62 CA          3.5368  -11.3453  -46.5835 C.3       2 UNK         0.1400 
     63 CB          5.0141  -10.9304  -46.5069 C.3       2 UNK        -0.1800 
     64 N           3.4335  -12.5872  -47.3482 N.am      2 UNK        -0.5000 
     65 C           2.2891  -13.1072  -47.8126 C.2       1 UNK         0.5000 
     66 O           1.2265  -12.4851  -47.8150 O.2       1 UNK        -0.5000 
     67 C           0.5560  -21.7546  -48.5557 C.2       11 UNK         0.5000 
     68 O          -0.0470  -22.5360  -49.2904 O.2       11 UNK        -0.5000 
     69 N          -0.0469  -20.7790  -47.8600 N.am      12 UNK        -0.5000 
     70 CA         -1.4901  -20.5456  -47.8512 C.3       12 UNK         0.1400 
     71 CB         -1.7872  -19.2466  -47.0979 C.3       12 UNK        -0.1800 
     72 C          -2.2672  -21.7099  -47.2157 C.2       12 UNK         0.5000 
     73 O          -3.2807  -22.1310  -47.7699 O.2       12 UNK        -0.5000 
     74 N          -1.7660  -22.2278  -46.0843 N.am      13 UNK        -0.5000 
     75 CA         -2.3264  -23.3911  -45.3950 C.3       13 UNK         0.1400 
     76 CB         -1.6790  -23.5451  -44.0108 C.3       13 UNK        -0.1800 
     77 C          -2.1948  -24.6837  -46.2208 C.2       13 UNK         0.5000 
     78 O          -3.1456  -25.4634  -46.2730 O.2       13 UNK        -0.5000 
     79 N          -1.0525  -24.8608  -46.9006 N.am      14 UNK        -0.5000 
     80 CA         -0.8035  -25.9547  -47.8448 C.3       14 UNK         0.1400 
     81 CB          0.6700  -25.9344  -48.2776 C.3       14 UNK        -0.1800 
     82 C          -1.7380  -25.9132  -49.0715 C.2       14 UNK         0.5000 
     83 O          -2.1732  -26.9647  -49.5411 O.2       14 UNK        -0.5000 
     84 N          -2.0704  -24.6996  -49.5315 N.am      15 UNK        -0.5000 
     85 CA         -3.0600  -24.4258  -50.5761 C.3       15 UNK         0.1400 
     86 CB         -2.7433  -23.0599  -51.2095 C.3       15 UNK        -0.1800 
     87 C          -4.5197  -24.4687  -50.0702 C.2       15 UNK         0.5000 
     88 O          -5.4298  -24.2082  -50.8570 O.2       15 UNK        -0.5000 
     89 N          -4.7303  -24.7597  -48.7759 N.am      16 UNK        -0.5000 
     90 CA         -6.0167  -24.8209  -48.0695 C.3       16 UNK         0.1400 
     91 CB         -6.8579  -26.0091  -48.5801 C.3       16 UNK        -0.1800 
     92 C          -6.7924  -23.4852  -48.0877 C.2       16 UNK         0.5000 
     93 O          -8.0243  -23.4867  -48.0603 O.2       16 UNK        -0.5000 
     94 N          -6.0481  -22.3709  -48.1494 N.am      17 UNK        -0.5000 
     95 CA         -6.5027  -20.9828  -48.2636 C.3       17 UNK         0.1400 
     96 CB         -7.2256  -20.5400  -46.9748 C.3       17 UNK        -0.1800 
     97 C          -7.3168  -20.6857  -49.5438 C.2       17 UNK         0.5000 
     98 O          -8.0678  -19.7086  -49.5711 O.2       17 UNK        -0.5000 
     99 N          -7.1586  -21.5151  -50.5862 N.am      18 UNK        -0.5000 
    100 CA        -7.8043  -21.3378  -51.8850 C.3       18 UNK         0.1400 
    101 CB        -7.6798  -22.6363  -52.6962 C.3       18 UNK        -0.1800 
    102 C         -7.1875  -20.1621  -52.6615 C.2       18 UNK         0.5000 
    103 O         -5.9647  -20.0052  -52.6669 O.2       18 UNK        -0.5000 
    104 N         -8.0434  -19.3784  -53.3255 N.am      19 UNK        -0.5000 
    105 CA        -7.6403  -18.3211  -54.2503 C.3       19 UNK         0.1400 
    106 CB        -8.8074  -17.3356  -54.4172 C.3       19 UNK        -0.1800 
    107 C         -7.2408  -18.9176  -55.6111 C.2       19 UNK         0.5000 
    108 O         -7.7462  -19.9792  -55.9856 O.2       19 UNK        -0.5000 
    109 N         -6.3516  -18.2176  -56.3280 N.am      20 UNK        -0.5000 
    110 CA        -5.8124  -18.5055  -57.6676 C.3       20 UNK         0.1400 
    111 CB        -6.9304  -18.5414  -58.7270 C.3       20 UNK        -0.1800 
    112 C         -4.9181  -19.7596  -57.7654 C.2       20 UNK         0.5000 
    113 O         -3.9265  -19.7333  -58.4963 O.2       20 UNK        -0.5000 
    114 N         -5.2425  -20.8186  -57.0150 N.am      21 UNK        -0.5000 
    115 CA        -4.5034  -22.0776  -56.8920 C.3       21 UNK         0.1400 
    116 CB        -5.4639  -23.1499  -56.3462 C.3       21 UNK        -0.1800 
    117 C         -3.2270  -21.9306  -56.0321 C.2       21 UNK         0.5000 
    118 O         -3.0249  -22.6879  -55.0812 O.2       21 UNK        -0.5000 
    119 N         -2.4000  -20.9403  -56.3781 N.am      22 UNK        -0.5000 
    120 CA        -1.1870  -20.5297  -55.6560 C.3       22 UNK         0.1400 
    121 C          0.1251  -20.7986  -56.4476 C.2       22 UNK         0.5000 
    122 N          0.0807  -21.4061  -57.6275 N.am      22 UNK        -0.7600 
    123 O          1.2093  -20.4676  -55.9763 O.2       22 UNK        -0.5000 
    124 C124       -1.2781  -19.0472  -55.2007 C.3       23 UNK        -0.0398 
    125 S125       -2.7429  -18.6653  -54.1725 S.3       23 UNK        -0.2404 
    126 C126       -2.4216  -19.6153  -52.6491 C.3       23 UNK        -0.0205 
    127 H127        5.7757  -16.6119  -48.0464 H         1 UNK         0.0600 
    128 H128        5.3481  -17.3228  -46.4877 H         1 UNK         0.0600 
    129 H129        6.2801  -15.8232  -46.5477 H         1 UNK         0.0600 
    130 H130        4.0824  -15.5299  -49.0043 H         1 UNK         0.3000 
    131 H131        1.6351  -15.1003  -47.6667 H         1 UNK         0.0600 
    132 H132        2.2307  -15.6006  -50.2600 H         1 UNK         0.0800 
    133 H133        2.1602  -13.8794  -50.4007 H         1 UNK         0.0800 
    134 H134        0.2681  -16.6936  -48.3884 H         1 UNK         0.0800 
    135 H135       -1.3830  -16.4718  -48.8838 H         1 UNK         0.0800 
    136 H136       -2.2880  -17.6130  -50.8083 H         1 UNK         0.1150 
    137 H137        0.1582  -20.4994  -52.8237 H         1 UNK         0.1150 
    138 H138        1.9131  -17.8288  -49.9757 H         1 UNK         0.1150 
    139 H139        2.6607  -19.8926  -52.8374 H         1 UNK         0.0800 
    140 H140        3.3464  -19.1346  -51.4257 H         1 UNK         0.0800 
    141 H141        2.6884  -19.9816  -49.0786 H         1 UNK         0.0800 
    142 H142        3.9833  -21.1334  -48.9750 H         1 UNK         0.0800 
    143 H143        2.3156  -22.9733  -48.5553 H         1 UNK         0.0600 
    144 H144        3.0302  -20.9138  -46.7212 H         1 UNK         0.3000 
    145 H145        1.7394  -22.3887  -43.7703 H         1 UNK         0.0600 
    146 H146        4.1040  -22.0563  -43.1052 H         1 UNK         0.0600 
    147 H147        3.9382  -23.4489  -44.1644 H         1 UNK         0.0600 
    148 H148        4.5919  -21.9448  -44.7959 H         1 UNK         0.0600 
    149 H149        1.4601  -20.2356  -43.6914 H         1 UNK         0.3000 
    150 H150        3.3477  -17.3853  -44.4999 H         1 UNK         0.0600 
    151 H151        1.5982  -17.4790  -46.2938 H         1 UNK         0.0600 
    152 H152        1.0785  -16.4642  -44.9588 H         1 UNK         0.0600 
    153 H153        0.4272  -18.0908  -45.1310 H         1 UNK         0.0600 
    154 H154        1.1208  -17.8114  -42.7609 H         1 UNK         0.3000 
    155 H155        3.0034  -18.9083  -39.9172 H         1 UNK         0.0600 
    156 H156        3.0718  -16.4310  -39.8443 H         1 UNK         0.0600 
    157 H157        1.7133  -17.0377  -38.9096 H         1 UNK         0.0600 
    158 H158        1.4475  -16.3370  -40.5061 H         1 UNK         0.0600 
    159 H159        0.2001  -18.4882  -40.6217 H         1 UNK         0.3000 
    160 H160       -0.4456  -21.8672  -41.4557 H         1 UNK         0.0600 
    161 H161       -1.2016  -20.4210  -38.8588 H         1 UNK         0.0600 
    162 H162       -0.4503  -22.0088  -38.9636 H         1 UNK         0.0600 
    163 H163       -2.0749  -21.7701  -39.5865 H         1 UNK         0.0600 
    164 H164       -2.1146  -19.5663  -40.9823 H         1 UNK         0.3000 
    165 H165       -1.8870  -18.1793  -44.2250 H         1 UNK         0.0600 
    166 H166       -4.3221  -18.5794  -44.2829 H         1 UNK         0.0600 
    167 H167       -3.4835  -20.0990  -44.5480 H         1 UNK         0.0600 
    168 H168       -4.1998  -19.7606  -42.9782 H         1 UNK         0.0600 
    169 H169       -3.5756  -17.5106  -42.0784 H         1 UNK         0.3000 
    170 H170       -3.2623  -15.6350  -40.9582 H         1 UNK         0.0600 
    171 H171       -0.6536  -16.0740  -39.4082 H         1 UNK         0.0600 
    172 H172       -2.1186  -15.3191  -38.7908 H         1 UNK         0.0600 
    173 H173       -2.1230  -17.0222  -39.2189 H         1 UNK         0.0600 
    174 H174       -0.6984  -14.1622  -40.9419 H         1 UNK         0.3000 
    175 H175       -1.7499  -11.8773  -43.4450 H         1 UNK         0.0600 
    176 H176       -1.3518  -10.1825  -41.6839 H         1 UNK         0.0600 
    177 H177       -1.5108  -11.4089  -40.4257 H         1 UNK         0.0600 
    178 H178       -2.8953  -10.9777  -41.4218 H         1 UNK         0.0600 
    179 H179        0.5239  -11.9808  -41.6882 H         1 UNK         0.3000 
    180 H180        2.5372  -12.1966  -42.6069 H         1 UNK         0.0600 
    181 H181        3.8141  -14.3496  -42.7129 H         1 UNK         0.0600 
    182 H182        2.4240  -15.1390  -43.4528 H         1 UNK         0.0600 
    183 H183        2.3175  -14.5268  -41.8088 H         1 UNK         0.0600 
    184 H184        3.1923  -13.4853  -45.1368 H         1 UNK         0.3000 
    185 H185        2.9888  -10.5653  -47.1164 H         1 UNK         0.0600 
    186 H186        5.1280   -9.9906  -45.9650 H         1 UNK         0.0600 
    187 H187        5.6166  -11.6807  -45.9932 H         1 UNK         0.0600 
    188 H188        5.4352  -10.7837  -47.5017 H         1 UNK         0.0600 
    189 H189        4.2577  -13.1690  -47.3776 H         1 UNK         0.3000 
    190 H190        0.5147  -20.1965  -47.2591 H         1 UNK         0.3000 
    191 H191       -1.8250  -20.4338  -48.8849 H         1 UNK         0.0600 
    192 H192       -1.2865  -18.3991  -47.5566 H         1 UNK         0.0600 
    193 H193       -2.8564  -19.0310  -47.0828 H         1 UNK         0.0600 
    194 H194       -1.4435  -19.3129  -46.0691 H         1 UNK         0.0600 
    195 H195       -0.9310  -21.8236  -45.6855 H         1 UNK         0.3000 
    196 H196       -3.3926  -23.2075  -45.2455 H         1 UNK         0.0600 
    197 H197       -2.0634  -24.4264  -43.4958 H         1 UNK         0.0600 
    198 H198       -1.8970  -22.6846  -43.3797 H         1 UNK         0.0600 
    199 H199       -0.5962  -23.6496  -44.0758 H         1 UNK         0.0600 
    200 H200       -0.2919  -24.2032  -46.7518 H         1 UNK         0.3000 
    201 H201       -0.9893  -26.8936  -47.3192 H         1 UNK         0.0600 
    202 H202        1.3356  -26.0040  -47.4170 H         1 UNK         0.0600 
    203 H203        0.9184  -25.0224  -48.8199 H         1 UNK         0.0600 
    204 H204        0.8949  -26.7765  -48.9332 H         1 UNK         0.0600 
    205 H205       -1.6090  -23.8891  -49.1321 H         1 UNK         0.3000 
    206 H206       -2.9673  -25.1865  -51.3536 H         1 UNK         0.0600 
    207 H207       -3.4163  -22.8449  -52.0409 H         1 UNK         0.0600 
    208 H208       -2.8427  -22.2480  -50.4888 H         1 UNK         0.0600 
    209 H209       -1.7270  -23.0327  -51.6035 H         1 UNK         0.0600 
    210 H210       -3.9200  -24.9337  -48.1942 H         1 UNK         0.3000 
    211 H211       -5.7785  -25.0131  -47.0228 H         1 UNK         0.0600 
    212 H212       -7.1939  -25.8560  -49.6061 H         1 UNK         0.0600 
    213 H213       -7.7458  -26.1545  -47.9638 H         1 UNK         0.0600 
    214 H214       -6.2876  -26.9374  -48.5484 H         1 UNK         0.0600 
    215 H215       -5.0348  -22.4787  -48.1358 H         1 UNK         0.3000 
    216 H216       -5.5949  -20.3838  -48.3484 H         1 UNK         0.0600 
    217 H217       -7.4307  -19.4690  -46.9874 H         1 UNK         0.0600 
    218 H218       -6.6162  -20.7403  -46.0934 H         1 UNK         0.0600 
    219 H219       -8.1790  -21.0537  -46.8488 H         1 UNK         0.0600 
    220 H220       -6.5166  -22.2943  -50.5051 H         1 UNK         0.3000 
    221 H221       -8.8649  -21.1397  -51.7156 H         1 UNK         0.0600 
    222 H222       -6.6374  -22.8762  -52.9101 H         1 UNK         0.0600 
    223 H223       -8.1146  -23.4810  -52.1614 H         1 UNK         0.0600 
    224 H224       -8.1979  -22.5510  -53.6523 H         1 UNK         0.0600 
    225 H225       -9.0280  -19.6003  -53.3061 H         1 UNK         0.3000 
    226 H226       -6.7857  -17.7849  -53.8314 H         1 UNK         0.0600 
    227 H227       -9.0928  -16.8969  -53.4608 H         1 UNK         0.0600 
    228 H228       -8.5346  -16.5146  -55.0816 H         1 UNK         0.0600 
    229 H229       -9.6878  -17.8209  -54.8405 H         1 UNK         0.0600 
    230 H230       -5.9788  -17.3782  -55.9061 H         1 UNK         0.3000 
    231 H231       -5.1698  -17.6566  -57.9066 H         1 UNK         0.0600 
    232 H232       -7.6072  -19.3833  -58.5798 H         1 UNK         0.0600 
    233 H233       -6.5114  -18.6349  -59.7297 H         1 UNK         0.0600 
    234 H234       -7.5226  -17.6266  -58.7067 H         1 UNK         0.0600 
    235 H235       -6.0915  -20.7384  -56.4630 H         1 UNK         0.3000 
    236 H236       -4.1849  -22.3899  -57.8884 H         1 UNK         0.0600 
    237 H237       -6.3339  -23.2661  -56.9927 H         1 UNK         0.0600 
    238 H238       -4.9745  -24.1228  -56.2847 H         1 UNK         0.0600 
    239 H239       -5.8211  -22.8955  -55.3475 H         1 UNK         0.0600 
    240 H240       -2.6606  -20.3718  -57.1781 H         1 UNK         0.3000 
    241 H241       -1.0824  -21.1438  -54.7619 H         1 UNK         0.0600 
    242 H242       -0.7987  -21.7016  -58.0206 H         1 UNK         0.3800 
    243 H243        0.9381  -21.5816  -58.1281 H         1 UNK         0.3800 
    244 H244       -0.3838  -18.7472  -54.6538 H         1 UNK         0.0800 
    245 H245       -1.3165  -18.3963  -56.0755 H         1 UNK         0.0800 
    246 H246       -2.3169  -20.6736  -52.8878 H         1 UNK         0.0800 
    247 H247       -3.2995  -19.5453  -52.0052 H         1 UNK         0.0800 
@<TRIPOS>BOND
     1    1    2 1    
     2    1  127 1    
     3    1  128 1    
     4    1  129 1    
     5    2    3 2    
     6    2    4 am   BACKBONE|DICT|INTERRES
     7    4    5 1    
     8    4  130 1    
     9    5    6 1    
    10    5   65 1    
    11    5  131 1    
    12    6    7 1    
    13    6  132 1    
    14    6  133 1    
    15    7    8 1    
    16    8    9 1    
    17    8  134 1    
    18    8  135 1    
    19    9   10 ar   
    20    9   14 ar   
    21   10   11 ar   
    22   10  136 1    
    23   11   12 ar   
    24   11  126 1    
    25   12   13 ar   
    26   12  137 1    
    27   13   14 ar   
    28   13   15 1    
    29   14  138 1    
    30   15   16 1    
    31   15  139 1    
    32   15  140 1    
    33   16   17 1    
    34   17   18 1    
    35   17  141 1    
    36   17  142 1    
    37   18   19 1    
    38   18   67 1    
    39   18  143 1    
    40   19   20 am   BACKBONE|DICT|INTERRES
    41   19  144 1    
    42   20   21 2    
    43   20   22 1    
    44   22   23 1    
    45   22   24 1    
    46   22  145 1    
    47   23  146 1    
    48   23  147 1    
    49   23  148 1    
    50   24   25 am   BACKBONE|DICT|INTERRES
    51   24  149 1    
    52   25   26 2    
    53   25   27 1    
    54   27   28 1    
    55   27   29 1    
    56   27  150 1    
    57   28  151 1    
    58   28  152 1    
    59   28  153 1    
    60   29   30 am   BACKBONE|DICT|INTERRES
    61   29  154 1    
    62   30   31 2    
    63   30   32 1    
    64   32   33 1    
    65   32   34 1    
    66   32  155 1    
    67   33  156 1    
    68   33  157 1    
    69   33  158 1    
    70   34   35 am   BACKBONE|DICT|INTERRES
    71   34  159 1    
    72   35   36 2    
    73   35   37 1    
    74   37   38 1    
    75   37   39 1    
    76   37  160 1    
    77   38  161 1    
    78   38  162 1    
    79   38  163 1    
    80   39   40 am   BACKBONE|DICT|INTERRES
    81   39  164 1    
    82   40   41 2    
    83   40   42 1    
    84   42   43 1    
    85   42   44 1    
    86   42  165 1    
    87   43  166 1    
    88   43  167 1    
    89   43  168 1    
    90   44   45 am   BACKBONE|DICT|INTERRES
    91   44  169 1    
    92   45   46 2    
    93   45   47 1    
    94   47   48 1    
    95   47   49 1    
    96   47  170 1    
    97   48  171 1    
    98   48  172 1    
    99   48  173 1    
   100   49   50 am   BACKBONE|DICT|INTERRES
   101   49  174 1    
   102   50   51 2    
   103   50   52 1    
   104   52   53 1    
   105   52   54 1    
   106   52  175 1    
   107   53  176 1    
   108   53  177 1    
   109   53  178 1    
   110   54   55 am   BACKBONE|DICT|INTERRES
   111   54  179 1    
   112   55   56 2    
   113   55   57 1    
   114   57   58 1    
   115   57   59 1    
   116   57  180 1    
   117   58  181 1    
   118   58  182 1    
   119   58  183 1    
   120   59   60 am   BACKBONE|DICT|INTERRES
   121   59  184 1    
   122   60   61 2    
   123   60   62 1    
   124   62   63 1    
   125   62   64 1    
   126   62  185 1    
   127   63  186 1    
   128   63  187 1    
   129   63  188 1    
   130   64   65 am   BACKBONE|DICT|INTERRES
   131   64  189 1    
   132   65   66 2    
   133   67   68 2    
   134   67   69 am   BACKBONE|DICT|INTERRES
   135   69   70 1    
   136   69  190 1    
   137   70   71 1    
   138   70   72 1    
   139   70  191 1    
   140   71  192 1    
   141   71  193 1    
   142   71  194 1    
   143   72   73 2    
   144   72   74 am   BACKBONE|DICT|INTERRES
   145   74   75 1    
   146   74  195 1    
   147   75   76 1    
   148   75   77 1    
   149   75  196 1    
   150   76  197 1    
   151   76  198 1    
   152   76  199 1    
   153   77   78 2    
   154   77   79 am   BACKBONE|DICT|INTERRES
   155   79   80 1    
   156   79  200 1    
   157   80   81 1    
   158   80   82 1    
   159   80  201 1    
   160   81  202 1    
   161   81  203 1    
   162   81  204 1    
   163   82   83 2    
   164   82   84 am   BACKBONE|DICT|INTERRES
   165   84   85 1    
   166   84  205 1    
   167   85   86 1    
   168   85   87 1    
   169   85  206 1    
   170   86  207 1    
   171   86  208 1    
   172   86  209 1    
   173   87   88 2    
   174   87   89 am   BACKBONE|DICT|INTERRES
   175   89   90 1    
   176   89  210 1    
   177   90   91 1    
   178   90   92 1    
   179   90  211 1    
   180   91  212 1    
   181   91  213 1    
   182   91  214 1    
   183   92   93 2    
   184   92   94 am   BACKBONE|DICT|INTERRES
   185   94   95 1    
   186   94  215 1    
   187   95   96 1    
   188   95   97 1    
   189   95  216 1    
   190   96  217 1    
   191   96  218 1    
   192   96  219 1    
   193   97   98 2    
   194   97   99 am   BACKBONE|DICT|INTERRES
   195   99  100 1    
   196   99  220 1    
   197  100  101 1    
   198  100  102 1    
   199  100  221 1    
   200  101  222 1    
   201  101  223 1    
   202  101  224 1    
   203  102  103 2    
   204  102  104 am   BACKBONE|DICT|INTERRES
   205  104  105 1    
   206  104  225 1    
   207  105  106 1    
   208  105  107 1    
   209  105  226 1    
   210  106  227 1    
   211  106  228 1    
   212  106  229 1    
   213  107  108 2    
   214  107  109 am   BACKBONE|DICT|INTERRES
   215  109  110 1    
   216  109  230 1    
   217  110  111 1    
   218  110  112 1    
   219  110  231 1    
   220  111  232 1    
   221  111  233 1    
   222  111  234 1    
   223  112  113 2    
   224  112  114 am   BACKBONE|DICT|INTERRES
   225  114  115 1    
   226  114  235 1    
   227  115  116 1    
   228  115  117 1    
   229  115  236 1    
   230  116  237 1    
   231  116  238 1    
   232  116  239 1    
   233  117  118 2    
   234  117  119 am   BACKBONE|DICT|INTERRES
   235  119  120 1    
   236  119  240 1    
   237  120  121 1    
   238  120  124 1    
   239  120  241 1    
   240  121  122 am   BACKBONE|DICT|INTERRES
   241  121  123 2    
   242  122  242 1    
   243  122  243 1    
   244  124  125 1    
   245  124  244 1    
   246  124  245 1    
   247  125  126 1    
   248  126  246 1    
   249  126  247 1    
@<TRIPOS>SUBSTRUCTURE
     1 UNK         1 GROUP             0       ****    0 ROOT    
