@<TRIPOS>MOLECULE
3R540
247   249    1
SMALL
USER_CHARGES


@<TRIPOS>ATOM
      1 CA         -2.8211  -16.6311  -41.5152 C.3       0 UNK        -0.1800 
      2 C          -2.8165  -15.2807  -42.2187 C.2       0 UNK         0.5000 
      3 O          -3.4418  -14.3381  -41.7332 O.2       0 UNK        -0.5000 
      4 N          -2.1232  -15.1836  -43.3605 N.am      1 UNK        -0.5000 
      5 CA         -1.9411  -13.9454  -44.1206 C.3       1 UNK         0.1400 
      6 C6         -1.4259  -14.2174  -45.5614 C.3       23 UNK        -0.0398 
      7 S7         -2.2406  -13.1249  -46.7781 S.3       23 UNK        -0.2404 
      8 C8         -2.6877  -14.2661  -48.1427 C.3       23 UNK        -0.0205 
      9 C9         -3.6313  -15.4281  -47.8118 C.ar      23 UNK        -0.0193 
     10 C10        -3.9008  -16.3664  -48.8140 C.ar      23 UNK        -0.1150 
     11 C11        -4.7157  -17.4823  -48.5677 C.ar      23 UNK        -0.0193 
     12 C12        -5.2634  -17.6457  -47.2932 C.ar      23 UNK        -0.1150 
     13 C13        -5.0001  -16.7246  -46.2775 C.ar      23 UNK        -0.0193 
     14 C14        -4.2153  -15.6055  -46.5530 C.ar      23 UNK        -0.1150 
     15 C15        -5.5240  -16.9420  -44.8654 C.3       23 UNK        -0.0205 
     16 S16        -5.0688  -18.5619  -44.1573 S.3       23 UNK        -0.2404 
     17 C17        -3.3088  -18.8043  -44.6144 C.3       23 UNK        -0.0398 
     18 CA         -3.1009  -20.0876  -45.4619 C.3       11 UNK         0.1400 
     19 N          -1.7822  -20.1461  -46.1058 N.am      11 UNK        -0.5000 
     20 C          -1.4112  -21.0881  -46.9875 C.2       10 UNK         0.5000 
     21 O          -2.1767  -21.9431  -47.4271 O.2       10 UNK        -0.5000 
     22 CA          0.0668  -21.1332  -47.4165 C.3       10 UNK         0.1400 
     23 CB          0.3231  -20.2013  -48.6077 C.3       10 UNK        -0.1800 
     24 N           0.9856  -20.8297  -46.3192 N.am      10 UNK        -0.5000 
     25 C           1.1272  -21.5946  -45.2263 C.2       9 UNK         0.5000 
     26 O           0.5392  -22.6630  -45.0654 O.2       9 UNK        -0.5000 
     27 CA          2.0229  -21.0510  -44.0974 C.3       9 UNK         0.1400 
     28 CB          3.5016  -21.3707  -44.3599 C.3       9 UNK        -0.1800 
     29 N           1.8520  -19.6119  -43.8953 N.am      9 UNK        -0.5000 
     30 C           0.7057  -19.0360  -43.5077 C.2       8 UNK         0.5000 
     31 O          -0.3082  -19.6661  -43.2037 O.2       8 UNK        -0.5000 
     32 CA          0.6580  -17.4984  -43.5379 C.3       8 UNK         0.1400 
     33 CB          1.2844  -16.8899  -42.2762 C.3       8 UNK        -0.1800 
     34 N           1.2868  -16.9423  -44.7372 N.am      8 UNK        -0.5000 
     35 C           0.8206  -17.1215  -45.9814 C.2       7 UNK         0.5000 
     36 O          -0.2519  -17.6738  -46.2215 O.2       7 UNK        -0.5000 
     37 CA          1.7148  -16.6585  -47.1477 C.3       7 UNK         0.1400 
     38 CB          1.4490  -15.1968  -47.5318 C.3       7 UNK        -0.1800 
     39 N           3.1349  -16.8303  -46.8479 N.am      7 UNK        -0.5000 
     40 C           3.7601  -18.0149  -46.8261 C.2       6 UNK         0.5000 
     41 O           3.2092  -19.0791  -47.1025 O.2       6 UNK        -0.5000 
     42 CA          5.2335  -18.0115  -46.3780 C.3       6 UNK         0.1400 
     43 CB          6.1589  -17.7156  -47.5673 C.3       6 UNK        -0.1800 
     44 N           5.4904  -17.0418  -45.3115 N.am      6 UNK        -0.5000 
     45 C           4.9912  -17.1305  -44.0701 C.2       5 UNK         0.5000 
     46 O           4.3112  -18.0775  -43.6773 O.2       5 UNK        -0.5000 
     47 CA          5.2450  -15.9325  -43.1338 C.3       5 UNK         0.1400 
     48 CB          6.5666  -16.1121  -42.3728 C.3       5 UNK        -0.1800 
     49 N           5.2607  -14.6494  -43.8444 N.am      5 UNK        -0.5000 
     50 C           4.2048  -14.1260  -44.4806 C.2       4 UNK         0.5000 
     51 O           3.0887  -14.6507  -44.5005 O.2       4 UNK        -0.5000 
     52 CA          4.4612  -12.8560  -45.2997 C.3       4 UNK         0.1400 
     53 CB          5.1395  -13.2333  -46.6344 C.3       4 UNK        -0.1800 
     54 N           3.1883  -12.1821  -45.5445 N.am      4 UNK        -0.5000 
     55 C           3.0400  -10.9717  -46.0957 C.2       3 UNK         0.5000 
     56 O           3.9808  -10.2479  -46.4252 O.2       3 UNK        -0.5000 
     57 CA          1.5988  -10.4798  -46.3251 C.3       3 UNK         0.1400 
     58 CB          1.0296  -11.0731  -47.6240 C.3       3 UNK        -0.1800 
     59 N           0.6767  -10.7713  -45.2269 N.am      3 UNK        -0.5000 
     60 C           0.7673  -10.2850  -43.9795 C.2       2 UNK         0.5000 
     61 O           1.6993   -9.5832  -43.5855 O.2       2 UNK        -0.5000 
     62 CA         -0.3956  -10.6023  -43.0152 C.3       2 UNK         0.1400 
     63 CB         -1.2503   -9.3475  -42.7750 C.3       2 UNK        -0.1800 
     64 N          -1.2658  -11.6726  -43.5089 N.am      2 UNK        -0.5000 
     65 C          -0.9926  -12.9763  -43.3869 C.2       1 UNK         0.5000 
     66 O          -0.0114  -13.4158  -42.7847 O.2       1 UNK        -0.5000 
     67 C          -3.3696  -21.3611  -44.6304 C.2       11 UNK         0.5000 
     68 O          -4.4088  -21.9967  -44.8122 O.2       11 UNK        -0.5000 
     69 N          -2.4061  -21.7386  -43.7762 N.am      12 UNK        -0.5000 
     70 CA         -2.4628  -22.9374  -42.9339 C.3       12 UNK         0.1400 
     71 CB         -1.2530  -22.9522  -41.9875 C.3       12 UNK        -0.1800 
     72 C          -2.5502  -24.2505  -43.7389 C.2       12 UNK         0.5000 
     73 O          -3.2533  -25.1729  -43.3255 O.2       12 UNK        -0.5000 
     74 N          -1.8678  -24.2942  -44.8900 N.am      13 UNK        -0.5000 
     75 CA         -1.8970  -25.3980  -45.8505 C.3       13 UNK         0.1400 
     76 CB         -0.6162  -25.3403  -46.6985 C.3       13 UNK        -0.1800 
     77 C          -3.1405  -25.3989  -46.7654 C.2       13 UNK         0.5000 
     78 O          -3.2832  -26.3239  -47.5661 O.2       13 UNK        -0.5000 
     79 N          -3.9923  -24.3646  -46.6740 N.am      14 UNK        -0.5000 
     80 CA         -5.1702  -24.1070  -47.5129 C.3       14 UNK         0.1400 
     81 CB         -6.2796  -25.1398  -47.2267 C.3       14 UNK        -0.1800 
     82 C          -4.8094  -23.9979  -49.0109 C.2       14 UNK         0.5000 
     83 O          -5.4789  -24.5856  -49.8607 O.2       14 UNK        -0.5000 
     84 N          -3.7108  -23.2797  -49.2823 N.am      15 UNK        -0.5000 
     85 CA         -3.0294  -23.0632  -50.5626 C.3       15 UNK         0.1400 
     86 CB         -3.9792  -22.4642  -51.6169 C.3       15 UNK        -0.1800 
     87 C          -2.2633  -24.2890  -51.1015 C.2       15 UNK         0.5000 
     88 O          -1.5468  -24.1455  -52.0917 O.2       15 UNK        -0.5000 
     89 N          -2.3852  -25.4524  -50.4440 N.am      16 UNK        -0.5000 
     90 CA         -1.7643  -26.7538  -50.7289 C.3       16 UNK         0.1400 
     91 CB         -0.2275  -26.6733  -50.6453 C.3       16 UNK        -0.1800 
     92 C          -2.2167  -27.4096  -52.0506 C.2       16 UNK         0.5000 
     93 O          -2.6074  -28.5779  -52.0419 O.2       16 UNK        -0.5000 
     94 N          -2.1515  -26.6559  -53.1518 N.am      17 UNK        -0.5000 
     95 CA         -2.5934  -27.0344  -54.4895 C.3       17 UNK         0.1400 
     96 CB         -1.5108  -26.5998  -55.4991 C.3       17 UNK        -0.1800 
     97 C          -3.9830  -26.4184  -54.7512 C.2       17 UNK         0.5000 
     98 O          -4.8908  -26.6033  -53.9373 O.2       17 UNK        -0.5000 
     99 N          -4.1381  -25.7013  -55.8723 N.am      18 UNK        -0.5000 
    100 CA        -5.3239  -24.9088  -56.2002 C.3       18 UNK         0.1400 
    101 CB        -5.2201  -24.4468  -57.6620 C.3       18 UNK        -0.1800 
    102 C         -5.4559  -23.6923  -55.2662 C.2       18 UNK         0.5000 
    103 O         -4.4441  -23.1838  -54.7835 O.2       18 UNK        -0.5000 
    104 N         -6.6903  -23.2142  -55.0657 N.am      19 UNK        -0.5000 
    105 CA        -7.0412  -22.1334  -54.1343 C.3       19 UNK         0.1400 
    106 CB        -8.5656  -21.9411  -54.1525 C.3       19 UNK        -0.1800 
    107 C         -6.3289  -20.7853  -54.3783 C.2       19 UNK         0.5000 
    108 O         -6.2161  -19.9898  -53.4475 O.2       19 UNK        -0.5000 
    109 N         -5.8613  -20.5514  -55.6109 N.am      20 UNK        -0.5000 
    110 CA        -5.1088  -19.3604  -56.0046 C.3       20 UNK         0.1400 
    111 CB        -5.2952  -19.1454  -57.5149 C.3       20 UNK        -0.1800 
    112 C         -3.6067  -19.4338  -55.6592 C.2       20 UNK         0.5000 
    113 O         -2.9387  -18.3983  -55.6896 O.2       20 UNK        -0.5000 
    114 N         -3.0821  -20.6320  -55.3541 N.am      21 UNK        -0.5000 
    115 CA        -1.6473  -20.8903  -55.1732 C.3       21 UNK         0.1400 
    116 CB        -1.3950  -22.4053  -55.1713 C.3       21 UNK        -0.1800 
    117 C         -1.0186  -20.2209  -53.9337 C.2       21 UNK         0.5000 
    118 O          0.2068  -20.1141  -53.8677 O.2       21 UNK        -0.5000 
    119 N         -1.8516  -19.7542  -52.9954 N.am      22 UNK        -0.5000 
    120 CA        -1.4482  -18.8933  -51.8735 C.3       22 UNK         0.1400 
    121 C         -1.1014  -17.4253  -52.2703 C.2       22 UNK         0.5000 
    122 N         -1.3882  -16.9713  -53.4863 N.am      22 UNK        -0.7600 
    123 O         -0.5492  -16.6878  -51.4590 O.2       22 UNK        -0.5000 
    124 C124       -2.4750  -18.9493  -50.7140 C.3       23 UNK        -0.0398 
    125 S125       -4.1477  -18.4096  -51.2078 S.3       23 UNK        -0.2404 
    126 C126       -5.0421  -18.5417  -49.6240 C.3       23 UNK        -0.0205 
    127 H127       -2.0888  -17.3176  -41.9372 H         1 UNK         0.0600 
    128 H128       -3.8062  -17.0908  -41.5939 H         1 UNK         0.0600 
    129 H129       -2.5880  -16.5035  -40.4582 H         1 UNK         0.0600 
    130 H130       -1.6104  -15.9810  -43.6996 H         1 UNK         0.3000 
    131 H131       -2.9251  -13.4738  -44.1744 H         1 UNK         0.0600 
    132 H132       -0.3458  -14.0906  -45.6385 H         1 UNK         0.0800 
    133 H133       -1.6067  -15.2531  -45.8482 H         1 UNK         0.0800 
    134 H134       -1.7691  -14.6725  -48.5666 H         1 UNK         0.0800 
    135 H135       -3.1473  -13.6718  -48.9335 H         1 UNK         0.0800 
    136 H136       -3.4586  -16.2166  -49.7880 H         1 UNK         0.1150 
    137 H137       -5.8812  -18.5073  -47.0811 H         1 UNK         0.1150 
    138 H138       -4.0458  -14.8915  -45.7639 H         1 UNK         0.1150 
    139 H139       -5.1587  -16.1636  -44.1938 H         1 UNK         0.0800 
    140 H140       -6.6109  -16.8529  -44.8732 H         1 UNK         0.0800 
    141 H141       -2.7224  -18.8450  -43.6973 H         1 UNK         0.0800 
    142 H142       -2.9399  -17.9349  -45.1582 H         1 UNK         0.0800 
    143 H143       -3.8321  -20.0700  -46.2731 H         1 UNK         0.0600 
    144 H144       -1.1128  -19.4260  -45.8549 H         1 UNK         0.3000 
    145 H145        0.2829  -22.1519  -47.7448 H         1 UNK         0.0600 
    146 H146        1.3758  -20.1955  -48.8903 H         1 UNK         0.0600 
    147 H147       -0.2415  -20.5384  -49.4762 H         1 UNK         0.0600 
    148 H148        0.0229  -19.1755  -48.3971 H         1 UNK         0.0600 
    149 H149        1.5647  -20.0027  -46.4179 H         1 UNK         0.3000 
    150 H150        1.7292  -21.5518  -43.1727 H         1 UNK         0.0600 
    151 H151        3.6543  -22.4455  -44.4645 H         1 UNK         0.0600 
    152 H152        4.1302  -21.0306  -43.5367 H         1 UNK         0.0600 
    153 H153        3.8631  -20.8985  -45.2727 H         1 UNK         0.0600 
    154 H154        2.6643  -19.0250  -44.0618 H         1 UNK         0.3000 
    155 H155       -0.3925  -17.2161  -43.5623 H         1 UNK         0.0600 
    156 H156        2.3271  -17.1819  -42.1588 H         1 UNK         0.0600 
    157 H157        0.7514  -17.2165  -41.3826 H         1 UNK         0.0600 
    158 H158        1.2432  -15.8009  -42.3005 H         1 UNK         0.0600 
    159 H159        2.1334  -16.3985  -44.6057 H         1 UNK         0.3000 
    160 H160        1.4700  -17.2755  -48.0145 H         1 UNK         0.0600 
    161 H161        1.6918  -14.5108  -46.7220 H         1 UNK         0.0600 
    162 H162        0.4021  -15.0491  -47.7932 H         1 UNK         0.0600 
    163 H163        2.0398  -14.9060  -48.4005 H         1 UNK         0.0600 
    164 H164        3.6420  -16.0074  -46.5614 H         1 UNK         0.3000 
    165 H165        5.4698  -19.0078  -45.9985 H         1 UNK         0.0600 
    166 H166        7.2075  -17.7819  -47.2767 H         1 UNK         0.0600 
    167 H167        6.0001  -18.4341  -48.3727 H         1 UNK         0.0600 
    168 H168        5.9857  -16.7195  -47.9768 H         1 UNK         0.0600 
    169 H169        6.0518  -16.2380  -45.5494 H         1 UNK         0.3000 
    170 H170        4.4325  -15.9034  -42.4049 H         1 UNK         0.0600 
    171 H171        6.5723  -17.0513  -41.8179 H         1 UNK         0.0600 
    172 H172        7.4233  -16.1242  -43.0477 H         1 UNK         0.0600 
    173 H173        6.7182  -15.3093  -41.6511 H         1 UNK         0.0600 
    174 H174        6.1457  -14.1637  -43.8770 H         1 UNK         0.3000 
    175 H175        5.1095  -12.1925  -44.7240 H         1 UNK         0.0600 
    176 H176        4.4866  -13.8465  -47.2569 H         1 UNK         0.0600 
    177 H177        5.4130  -12.3506  -47.2117 H         1 UNK         0.0600 
    178 H178        6.0592  -13.7954  -46.4687 H         1 UNK         0.0600 
    179 H179        2.3759  -12.7094  -45.2509 H         1 UNK         0.3000 
    180 H180        1.6389   -9.3945  -46.4391 H         1 UNK         0.0600 
    181 H181        0.9168  -12.1558  -47.5586 H         1 UNK         0.0600 
    182 H182        1.6841  -10.8621  -48.4707 H         1 UNK         0.0600 
    183 H183        0.0524  -10.6494  -47.8571 H         1 UNK         0.0600 
    184 H184       -0.1351  -11.3226  -45.4597 H         1 UNK         0.3000 
    185 H185        0.0408  -10.9035  -42.0604 H         1 UNK         0.0600 
    186 H186       -2.0463   -9.5444  -42.0566 H         1 UNK         0.0600 
    187 H187       -0.6463   -8.5332  -42.3724 H         1 UNK         0.0600 
    188 H188       -1.7100   -8.9900  -43.6973 H         1 UNK         0.0600 
    189 H189       -2.0909  -11.3837  -44.0157 H         1 UNK         0.3000 
    190 H190       -1.5824  -21.1522  -43.6802 H         1 UNK         0.3000 
    191 H191       -3.3668  -22.8660  -42.3256 H         1 UNK         0.0600 
    192 H192       -0.3130  -23.0200  -42.5348 H         1 UNK         0.0600 
    193 H193       -1.2993  -23.8049  -41.3091 H         1 UNK         0.0600 
    194 H194       -1.2191  -22.0503  -41.3760 H         1 UNK         0.0600 
    195 H195       -1.2491  -23.5198  -45.1116 H         1 UNK         0.3000 
    196 H196       -1.8973  -26.3407  -45.2997 H         1 UNK         0.0600 
    197 H197       -0.5494  -26.2016  -47.3636 H         1 UNK         0.0600 
    198 H198        0.2753  -25.3474  -46.0710 H         1 UNK         0.0600 
    199 H199       -0.5850  -24.4426  -47.3166 H         1 UNK         0.0600 
    200 H200       -3.7859  -23.6397  -45.9963 H         1 UNK         0.3000 
    201 H201       -5.5475  -23.1268  -47.2180 H         1 UNK         0.0600 
    202 H202       -6.5201  -25.1734  -46.1641 H         1 UNK         0.0600 
    203 H203       -5.9904  -26.1443  -47.5371 H         1 UNK         0.0600 
    204 H204       -7.1966  -24.8846  -47.7589 H         1 UNK         0.0600 
    205 H205       -3.2257  -22.8592  -48.4883 H         1 UNK         0.3000 
    206 H206       -2.2635  -22.3158  -50.3539 H         1 UNK         0.0600 
    207 H207       -4.5188  -21.6011  -51.2273 H         1 UNK         0.0600 
    208 H208       -3.4241  -22.1301  -52.4929 H         1 UNK         0.0600 
    209 H209       -4.7111  -23.1942  -51.9618 H         1 UNK         0.0600 
    210 H210       -3.0120  -25.4635  -49.6490 H         1 UNK         0.3000 
    211 H211       -2.0968  -27.4119  -49.9246 H         1 UNK         0.0600 
    212 H212        0.0962  -26.2544  -49.6932 H         1 UNK         0.0600 
    213 H213        0.1951  -26.0586  -51.4404 H         1 UNK         0.0600 
    214 H214        0.2169  -27.6654  -50.7325 H         1 UNK         0.0600 
    215 H215       -1.8649  -25.6874  -53.0253 H         1 UNK         0.3000 
    216 H216       -2.7038  -28.1182  -54.5590 H         1 UNK         0.0600 
    217 H217       -1.7641  -26.9086  -56.5140 H         1 UNK         0.0600 
    218 H218       -0.5519  -27.0599  -55.2594 H         1 UNK         0.0600 
    219 H219       -1.3637  -25.5188  -55.4983 H         1 UNK         0.0600 
    220 H220       -3.3366  -25.5729  -56.4714 H         1 UNK         0.3000 
    221 H221       -6.2075  -25.5403  -56.0874 H         1 UNK         0.0600 
    222 H222       -4.3506  -23.8074  -57.8214 H         1 UNK         0.0600 
    223 H223       -5.1403  -25.2970  -58.3397 H         1 UNK         0.0600 
    224 H224       -6.1033  -23.8795  -57.9584 H         1 UNK         0.0600 
    225 H225       -7.4658  -23.6694  -55.5254 H         1 UNK         0.3000 
    226 H226       -6.7554  -22.4646  -53.1341 H         1 UNK         0.0600 
    227 H227       -9.0835  -22.8571  -53.8676 H         1 UNK         0.0600 
    228 H228       -8.8715  -21.1659  -53.4484 H         1 UNK         0.0600 
    229 H229       -8.9209  -21.6457  -55.1405 H         1 UNK         0.0600 
    230 H230       -5.9962  -21.2603  -56.3162 H         1 UNK         0.3000 
    231 H231       -5.5202  -18.4916  -55.4860 H         1 UNK         0.0600 
    232 H232       -6.3485  -19.0258  -57.7693 H         1 UNK         0.0600 
    233 H233       -4.9025  -19.9834  -58.0922 H         1 UNK         0.0600 
    234 H234       -4.7780  -18.2451  -57.8496 H         1 UNK         0.0600 
    235 H235       -3.6924  -21.4409  -55.2792 H         1 UNK         0.3000 
    236 H236       -1.1334  -20.4751  -56.0426 H         1 UNK         0.0600 
    237 H237       -0.3297  -22.6281  -55.1010 H         1 UNK         0.0600 
    238 H238       -1.8848  -22.8892  -54.3282 H         1 UNK         0.0600 
    239 H239       -1.7661  -22.8701  -56.0848 H         1 UNK         0.0600 
    240 H240       -2.8460  -19.8591  -53.1375 H         1 UNK         0.3000 
    241 H241       -0.5156  -19.3032  -51.4830 H         1 UNK         0.0600 
    242 H242       -1.8628  -17.5529  -54.1680 H         1 UNK         0.3800 
    243 H243       -1.1517  -16.0216  -53.7245 H         1 UNK         0.3800 
    244 H244       -2.1318  -18.3488  -49.8700 H         1 UNK         0.0800 
    245 H245       -2.5482  -19.9685  -50.3363 H         1 UNK         0.0800 
    246 H246       -6.1098  -18.4875  -49.8402 H         1 UNK         0.0800 
    247 H247       -4.8635  -19.5347  -49.2078 H         1 UNK         0.0800 
@<TRIPOS>BOND
     1    1    2 1    
     2    1  127 1    
     3    1  128 1    
     4    1  129 1    
     5    2    3 2    
     6    2    4 am   BACKBONE|DICT|INTERRES
     7    4    5 1    
     8    4  130 1    
     9    5    6 1    
    10    5   65 1    
    11    5  131 1    
    12    6    7 1    
    13    6  132 1    
    14    6  133 1    
    15    7    8 1    
    16    8    9 1    
    17    8  134 1    
    18    8  135 1    
    19    9   10 ar   
    20    9   14 ar   
    21   10   11 ar   
    22   10  136 1    
    23   11   12 ar   
    24   11  126 1    
    25   12   13 ar   
    26   12  137 1    
    27   13   14 ar   
    28   13   15 1    
    29   14  138 1    
    30   15   16 1    
    31   15  139 1    
    32   15  140 1    
    33   16   17 1    
    34   17   18 1    
    35   17  141 1    
    36   17  142 1    
    37   18   19 1    
    38   18   67 1    
    39   18  143 1    
    40   19   20 am   BACKBONE|DICT|INTERRES
    41   19  144 1    
    42   20   21 2    
    43   20   22 1    
    44   22   23 1    
    45   22   24 1    
    46   22  145 1    
    47   23  146 1    
    48   23  147 1    
    49   23  148 1    
    50   24   25 am   BACKBONE|DICT|INTERRES
    51   24  149 1    
    52   25   26 2    
    53   25   27 1    
    54   27   28 1    
    55   27   29 1    
    56   27  150 1    
    57   28  151 1    
    58   28  152 1    
    59   28  153 1    
    60   29   30 am   BACKBONE|DICT|INTERRES
    61   29  154 1    
    62   30   31 2    
    63   30   32 1    
    64   32   33 1    
    65   32   34 1    
    66   32  155 1    
    67   33  156 1    
    68   33  157 1    
    69   33  158 1    
    70   34   35 am   BACKBONE|DICT|INTERRES
    71   34  159 1    
    72   35   36 2    
    73   35   37 1    
    74   37   38 1    
    75   37   39 1    
    76   37  160 1    
    77   38  161 1    
    78   38  162 1    
    79   38  163 1    
    80   39   40 am   BACKBONE|DICT|INTERRES
    81   39  164 1    
    82   40   41 2    
    83   40   42 1    
    84   42   43 1    
    85   42   44 1    
    86   42  165 1    
    87   43  166 1    
    88   43  167 1    
    89   43  168 1    
    90   44   45 am   BACKBONE|DICT|INTERRES
    91   44  169 1    
    92   45   46 2    
    93   45   47 1    
    94   47   48 1    
    95   47   49 1    
    96   47  170 1    
    97   48  171 1    
    98   48  172 1    
    99   48  173 1    
   100   49   50 am   BACKBONE|DICT|INTERRES
   101   49  174 1    
   102   50   51 2    
   103   50   52 1    
   104   52   53 1    
   105   52   54 1    
   106   52  175 1    
   107   53  176 1    
   108   53  177 1    
   109   53  178 1    
   110   54   55 am   BACKBONE|DICT|INTERRES
   111   54  179 1    
   112   55   56 2    
   113   55   57 1    
   114   57   58 1    
   115   57   59 1    
   116   57  180 1    
   117   58  181 1    
   118   58  182 1    
   119   58  183 1    
   120   59   60 am   BACKBONE|DICT|INTERRES
   121   59  184 1    
   122   60   61 2    
   123   60   62 1    
   124   62   63 1    
   125   62   64 1    
   126   62  185 1    
   127   63  186 1    
   128   63  187 1    
   129   63  188 1    
   130   64   65 am   BACKBONE|DICT|INTERRES
   131   64  189 1    
   132   65   66 2    
   133   67   68 2    
   134   67   69 am   BACKBONE|DICT|INTERRES
   135   69   70 1    
   136   69  190 1    
   137   70   71 1    
   138   70   72 1    
   139   70  191 1    
   140   71  192 1    
   141   71  193 1    
   142   71  194 1    
   143   72   73 2    
   144   72   74 am   BACKBONE|DICT|INTERRES
   145   74   75 1    
   146   74  195 1    
   147   75   76 1    
   148   75   77 1    
   149   75  196 1    
   150   76  197 1    
   151   76  198 1    
   152   76  199 1    
   153   77   78 2    
   154   77   79 am   BACKBONE|DICT|INTERRES
   155   79   80 1    
   156   79  200 1    
   157   80   81 1    
   158   80   82 1    
   159   80  201 1    
   160   81  202 1    
   161   81  203 1    
   162   81  204 1    
   163   82   83 2    
   164   82   84 am   BACKBONE|DICT|INTERRES
   165   84   85 1    
   166   84  205 1    
   167   85   86 1    
   168   85   87 1    
   169   85  206 1    
   170   86  207 1    
   171   86  208 1    
   172   86  209 1    
   173   87   88 2    
   174   87   89 am   BACKBONE|DICT|INTERRES
   175   89   90 1    
   176   89  210 1    
   177   90   91 1    
   178   90   92 1    
   179   90  211 1    
   180   91  212 1    
   181   91  213 1    
   182   91  214 1    
   183   92   93 2    
   184   92   94 am   BACKBONE|DICT|INTERRES
   185   94   95 1    
   186   94  215 1    
   187   95   96 1    
   188   95   97 1    
   189   95  216 1    
   190   96  217 1    
   191   96  218 1    
   192   96  219 1    
   193   97   98 2    
   194   97   99 am   BACKBONE|DICT|INTERRES
   195   99  100 1    
   196   99  220 1    
   197  100  101 1    
   198  100  102 1    
   199  100  221 1    
   200  101  222 1    
   201  101  223 1    
   202  101  224 1    
   203  102  103 2    
   204  102  104 am   BACKBONE|DICT|INTERRES
   205  104  105 1    
   206  104  225 1    
   207  105  106 1    
   208  105  107 1    
   209  105  226 1    
   210  106  227 1    
   211  106  228 1    
   212  106  229 1    
   213  107  108 2    
   214  107  109 am   BACKBONE|DICT|INTERRES
   215  109  110 1    
   216  109  230 1    
   217  110  111 1    
   218  110  112 1    
   219  110  231 1    
   220  111  232 1    
   221  111  233 1    
   222  111  234 1    
   223  112  113 2    
   224  112  114 am   BACKBONE|DICT|INTERRES
   225  114  115 1    
   226  114  235 1    
   227  115  116 1    
   228  115  117 1    
   229  115  236 1    
   230  116  237 1    
   231  116  238 1    
   232  116  239 1    
   233  117  118 2    
   234  117  119 am   BACKBONE|DICT|INTERRES
   235  119  120 1    
   236  119  240 1    
   237  120  121 1    
   238  120  124 1    
   239  120  241 1    
   240  121  122 am   BACKBONE|DICT|INTERRES
   241  121  123 2    
   242  122  242 1    
   243  122  243 1    
   244  124  125 1    
   245  124  244 1    
   246  124  245 1    
   247  125  126 1    
   248  126  246 1    
   249  126  247 1    
@<TRIPOS>SUBSTRUCTURE
     1 UNK         1 GROUP             0       ****    0 ROOT    
