@<TRIPOS>MOLECULE
3R540
247   249    1
SMALL
USER_CHARGES


@<TRIPOS>ATOM
      1 CA          5.0118  -17.1921  -48.8656 C.3       0 UNK        -0.1800 
      2 C           5.1981  -15.8820  -49.6244 C.2       0 UNK         0.5000 
      3 O           5.7300  -15.8976  -50.7330 O.2       0 UNK        -0.5000 
      4 N           4.7894  -14.7301  -49.0818 N.am      1 UNK        -0.5000 
      5 CA          4.2166  -14.5125  -47.7504 C.3       1 UNK         0.1400 
      6 C6          2.7213  -14.1159  -47.8246 C.3       23 UNK        -0.0398 
      7 S7          1.6442  -15.4987  -48.3382 S.3       23 UNK        -0.2404 
      8 C8          0.5932  -14.6768  -49.5702 C.3       23 UNK        -0.0205 
      9 C9         -0.5672  -15.5578  -50.0098 C.ar      23 UNK        -0.0193 
     10 C10        -0.5276  -16.2239  -51.2387 C.ar      23 UNK        -0.1150 
     11 C11        -1.6281  -16.9649  -51.6822 C.ar      23 UNK        -0.0193 
     12 C12        -2.7733  -17.0359  -50.8831 C.ar      23 UNK        -0.1150 
     13 C13        -2.8139  -16.4035  -49.6368 C.ar      23 UNK        -0.0193 
     14 C14        -1.7066  -15.6658  -49.2066 C.ar      23 UNK        -0.1150 
     15 C15        -4.0710  -16.4732  -48.7783 C.3       23 UNK        -0.0205 
     16 S16        -4.4270  -18.1520  -48.1618 S.3       23 UNK        -0.2404 
     17 C17        -3.0071  -18.4790  -47.0632 C.3       23 UNK        -0.0398 
     18 CA         -2.1243  -19.6514  -47.5568 C.3       11 UNK         0.1400 
     19 N          -0.7805  -19.6023  -46.9780 N.am      11 UNK        -0.5000 
     20 C           0.2378  -20.3948  -47.3386 C.2       10 UNK         0.5000 
     21 O           0.1677  -21.2322  -48.2354 O.2       10 UNK        -0.5000 
     22 CA          1.5382  -20.2783  -46.5285 C.3       10 UNK         0.1400 
     23 CB          2.3579  -19.0666  -46.9883 C.3       10 UNK        -0.1800 
     24 N           1.2975  -20.2040  -45.0884 N.am      10 UNK        -0.5000 
     25 C           0.7350  -21.1791  -44.3609 C.2       9 UNK         0.5000 
     26 O           0.3978  -22.2690  -44.8237 O.2       9 UNK        -0.5000 
     27 CA          0.4617  -20.8694  -42.8776 C.3       9 UNK         0.1400 
     28 CB          1.7432  -21.0042  -42.0417 C.3       9 UNK        -0.1800 
     29 N          -0.1219  -19.5424  -42.6759 N.am      9 UNK        -0.5000 
     30 C          -1.3167  -19.1610  -43.1514 C.2       8 UNK         0.5000 
     31 O          -2.0719  -19.8992  -43.7843 O.2       8 UNK        -0.5000 
     32 CA         -1.7151  -17.6922  -42.9273 C.3       8 UNK         0.1400 
     33 CB         -2.2117  -17.4724  -41.4907 C.3       8 UNK        -0.1800 
     34 N          -0.6239  -16.7638  -43.2246 N.am      8 UNK        -0.5000 
     35 C          -0.0577  -16.6254  -44.4323 C.2       7 UNK         0.5000 
     36 O          -0.4262  -17.2368  -45.4327 O.2       7 UNK        -0.5000 
     37 CA          1.1563  -15.6891  -44.5307 C.3       7 UNK         0.1400 
     38 CB          0.7136  -14.2186  -44.5641 C.3       7 UNK        -0.1800 
     39 N           2.1038  -15.8926  -43.4396 N.am      7 UNK        -0.5000 
     40 C           2.7760  -17.0255  -43.1982 C.2       6 UNK         0.5000 
     41 O           2.7089  -18.0282  -43.9058 O.2       6 UNK        -0.5000 
     42 CA          3.6340  -17.0535  -41.9237 C.3       6 UNK         0.1400 
     43 CB          4.9945  -16.3796  -42.1631 C.3       6 UNK        -0.1800 
     44 N           2.9544  -16.4099  -40.7997 N.am      6 UNK        -0.5000 
     45 C           1.8719  -16.9051  -40.1839 C.2       5 UNK         0.5000 
     46 O           1.3484  -17.9807  -40.4775 O.2       5 UNK        -0.5000 
     47 CA          1.2529  -16.0300  -39.0780 C.3       5 UNK         0.1400 
     48 CB          2.0217  -16.1969  -37.7587 C.3       5 UNK        -0.1800 
     49 N           1.2085  -14.6110  -39.4395 N.am      5 UNK        -0.5000 
     50 C           0.4241  -14.1078  -40.4025 C.2       4 UNK         0.5000 
     51 O          -0.3523  -14.7871  -41.0735 O.2       4 UNK        -0.5000 
     52 CA          0.5571  -12.6005  -40.6983 C.3       4 UNK         0.1400 
     53 CB         -0.2943  -11.7834  -39.7149 C.3       4 UNK        -0.1800 
     54 N           1.9314  -12.0824  -40.6976 N.am      4 UNK        -0.5000 
     55 C           2.9470  -12.5798  -41.4158 C.2       3 UNK         0.5000 
     56 O           2.8778  -13.6291  -42.0557 O.2       3 UNK        -0.5000 
     57 CA          4.2713  -11.7929  -41.3943 C.3       3 UNK         0.1400 
     58 CB          5.0452  -12.0929  -40.1010 C.3       3 UNK        -0.1800 
     59 N           5.1278  -12.1262  -42.5368 N.am      3 UNK        -0.5000 
     60 C           4.8288  -11.9070  -43.8255 C.2       2 UNK         0.5000 
     61 O           3.8297  -11.2892  -44.1990 O.2       2 UNK        -0.5000 
     62 CA          5.7916  -12.4742  -44.8841 C.3       2 UNK         0.1400 
     63 CB          7.0366  -13.1804  -44.3062 C.3       2 UNK        -0.1800 
     64 N           5.0578  -13.4179  -45.7262 N.am      2 UNK        -0.5000 
     65 C           5.0396  -13.4042  -47.0639 C.2       1 UNK         0.5000 
     66 O           5.6333  -12.5671  -47.7507 O.2       1 UNK        -0.5000 
     67 C          -2.7909  -21.0243  -47.3172 C.2       11 UNK         0.5000 
     68 O          -3.2940  -21.6303  -48.2627 O.2       11 UNK        -0.5000 
     69 N          -2.7300  -21.5327  -46.0784 N.am      12 UNK        -0.5000 
     70 CA         -3.2479  -22.8525  -45.7092 C.3       12 UNK         0.1400 
     71 CB         -3.1143  -23.0514  -44.1921 C.3       12 UNK        -0.1800 
     72 C          -2.5780  -24.0118  -46.4743 C.2       12 UNK         0.5000 
     73 O          -3.2609  -24.9709  -46.8343 O.2       12 UNK        -0.5000 
     74 N          -1.2679  -23.8931  -46.7219 N.am      13 UNK        -0.5000 
     75 CA         -0.4772  -24.8649  -47.4694 C.3       13 UNK         0.1400 
     76 CB          1.0084  -24.6925  -47.1118 C.3       13 UNK        -0.1800 
     77 C          -0.6923  -24.7709  -48.9917 C.2       13 UNK         0.5000 
     78 O          -1.0409  -25.7737  -49.6160 O.2       13 UNK        -0.5000 
     79 N          -0.4311  -23.5907  -49.5684 N.am      14 UNK        -0.5000 
     80 CA         -0.3147  -23.3947  -51.0136 C.3       14 UNK         0.1400 
     81 CB          0.7586  -22.3318  -51.2954 C.3       14 UNK        -0.1800 
     82 C          -1.6348  -23.0004  -51.6887 C.2       14 UNK         0.5000 
     83 O          -1.8491  -23.3826  -52.8398 O.2       14 UNK        -0.5000 
     84 N          -2.4901  -22.2356  -50.9977 N.am      15 UNK        -0.5000 
     85 CA         -3.7832  -21.8130  -51.5337 C.3       15 UNK         0.1400 
     86 CB         -4.1681  -20.4230  -51.0156 C.3       15 UNK        -0.1800 
     87 C          -4.8700  -22.8452  -51.2233 C.2       15 UNK         0.5000 
     88 O          -5.7056  -23.1076  -52.0900 O.2       15 UNK        -0.5000 
     89 N          -4.8270  -23.4098  -50.0079 N.am      16 UNK        -0.5000 
     90 CA         -5.7065  -24.4620  -49.4897 C.3       16 UNK         0.1400 
     91 CB         -5.4301  -25.7919  -50.2219 C.3       16 UNK        -0.1800 
     92 C          -7.1900  -24.0451  -49.5344 C.2       16 UNK         0.5000 
     93 O          -8.0159  -24.7479  -50.1163 O.2       16 UNK        -0.5000 
     94 N          -7.4813  -22.8591  -48.9773 N.am      17 UNK        -0.5000 
     95 CA         -8.7846  -22.1770  -49.0048 C.3       17 UNK         0.1400 
     96 CB         -9.8348  -22.9570  -48.1860 C.3       17 UNK        -0.1800 
     97 C          -9.2552  -21.8507  -50.4413 C.2       17 UNK         0.5000 
     98 O         -10.4481  -21.9207  -50.7402 O.2       17 UNK        -0.5000 
     99 N          -8.2822  -21.5125  -51.3001 N.am      18 UNK        -0.5000 
    100 CA        -8.3942  -21.2056  -52.7293 C.3       18 UNK         0.1400 
    101 CB        -9.3044  -19.9845  -52.9750 C.3       18 UNK        -0.1800 
    102 C         -8.7602  -22.4158  -53.6167 C.2       18 UNK         0.5000 
    103 O         -9.1465  -22.2183  -54.7696 O.2       18 UNK        -0.5000 
    104 N         -8.6011  -23.6443  -53.1010 N.am      19 UNK        -0.5000 
    105 CA        -8.7586  -24.8785  -53.8741 C.3       19 UNK         0.1400 
    106 CB        -8.9444  -26.0693  -52.9224 C.3       19 UNK        -0.1800 
    107 C         -7.5655  -25.1230  -54.8167 C.2       19 UNK         0.5000 
    108 O         -7.7660  -25.5780  -55.9435 O.2       19 UNK        -0.5000 
    109 N         -6.3545  -24.8033  -54.3420 N.am      20 UNK        -0.5000 
    110 CA        -5.1088  -24.8658  -55.1085 C.3       20 UNK         0.1400 
    111 CB        -4.0168  -25.4920  -54.2292 C.3       20 UNK        -0.1800 
    112 C         -4.6851  -23.4708  -55.6042 C.2       20 UNK         0.5000 
    113 O         -4.0493  -23.3675  -56.6545 O.2       20 UNK        -0.5000 
    114 N         -5.0555  -22.4262  -54.8462 N.am      21 UNK        -0.5000 
    115 CA        -4.9134  -20.9948  -55.1485 C.3       21 UNK         0.1400 
    116 CB        -5.9129  -20.5970  -56.2531 C.3       21 UNK        -0.1800 
    117 C         -3.4711  -20.5304  -55.4608 C.2       21 UNK         0.5000 
    118 O         -3.2920  -19.5568  -56.1939 O.2       21 UNK        -0.5000 
    119 N         -2.4730  -21.2327  -54.9062 N.am      22 UNK        -0.5000 
    120 CA        -1.0333  -21.0437  -55.1514 C.3       22 UNK         0.1400 
    121 C         -0.5783  -21.4366  -56.5920 C.2       22 UNK         0.5000 
    122 N         -1.3628  -22.1892  -57.3568 N.am      22 UNK        -0.7600 
    123 O          0.5179  -21.0838  -57.0190 O.2       22 UNK        -0.5000 
    124 C124       -0.4962  -19.6534  -54.7025 C.3       23 UNK        -0.0398 
    125 S125       -0.7972  -19.2908  -52.9353 S.3       23 UNK        -0.2404 
    126 C126       -1.5867  -17.6547  -53.0389 C.3       23 UNK        -0.0205 
    127 H127        5.6673  -17.2301  -47.9956 H         1 UNK         0.0600 
    128 H128        5.2479  -18.0439  -49.5036 H         1 UNK         0.0600 
    129 H129        3.9811  -17.3022  -48.5359 H         1 UNK         0.0600 
    130 H130        4.9921  -13.8695  -49.5727 H         1 UNK         0.3000 
    131 H131        4.3137  -15.4057  -47.1316 H         1 UNK         0.0600 
    132 H132        2.3633  -13.7733  -46.8540 H         1 UNK         0.0800 
    133 H133        2.5898  -13.2719  -48.5042 H         1 UNK         0.0800 
    134 H134        1.2037  -14.3908  -50.4283 H         1 UNK         0.0800 
    135 H135        0.1988  -13.7507  -49.1492 H         1 UNK         0.0800 
    136 H136        0.3529  -16.1500  -51.8615 H         1 UNK         0.1150 
    137 H137       -3.6396  -17.5793  -51.2306 H         1 UNK         0.1150 
    138 H138       -1.7353  -15.1554  -48.2540 H         1 UNK         0.1150 
    139 H139       -4.0017  -15.7904  -47.9301 H         1 UNK         0.0800 
    140 H140       -4.9205  -16.1331  -49.3720 H         1 UNK         0.0800 
    141 H141       -3.3681  -18.6529  -46.0481 H         1 UNK         0.0800 
    142 H142       -2.4122  -17.5679  -47.0107 H         1 UNK         0.0800 
    143 H143       -1.9923  -19.5383  -48.6355 H         1 UNK         0.0600 
    144 H144       -0.6223  -18.8972  -46.2617 H         1 UNK         0.3000 
    145 H145        2.1283  -21.1768  -46.7203 H         1 UNK         0.0600 
    146 H146        3.3332  -19.0407  -46.5021 H         1 UNK         0.0600 
    147 H147        2.5280  -19.1030  -48.0648 H         1 UNK         0.0600 
    148 H148        1.8485  -18.1289  -46.7664 H         1 UNK         0.0600 
    149 H149        1.5963  -19.3502  -44.6230 H         1 UNK         0.3000 
    150 H150       -0.2575  -21.6061  -42.5139 H         1 UNK         0.0600 
    151 H151        2.1833  -21.9952  -42.1591 H         1 UNK         0.0600 
    152 H152        1.5374  -20.8626  -40.9806 H         1 UNK         0.0600 
    153 H153        2.4963  -20.2729  -42.3355 H         1 UNK         0.0600 
    154 H154        0.4287  -18.8785  -42.1423 H         1 UNK         0.3000 
    155 H155       -2.5379  -17.4655  -43.6084 H         1 UNK         0.0600 
    156 H156       -1.4173  -17.6287  -40.7603 H         1 UNK         0.0600 
    157 H157       -3.0232  -18.1595  -41.2477 H         1 UNK         0.0600 
    158 H158       -2.5928  -16.4599  -41.3575 H         1 UNK         0.0600 
    159 H159       -0.2961  -16.1865  -42.4559 H         1 UNK         0.3000 
    160 H160        1.6803  -15.9157  -45.4594 H         1 UNK         0.0600 
    161 H161        0.1346  -13.9521  -43.6801 H         1 UNK         0.0600 
    162 H162        0.0901  -14.0213  -45.4370 H         1 UNK         0.0600 
    163 H163        1.5696  -13.5452  -44.6116 H         1 UNK         0.0600 
    164 H164        2.2640  -15.0979  -42.8217 H         1 UNK         0.3000 
    165 H165        3.8126  -18.0987  -41.6626 H         1 UNK         0.0600 
    166 H166        5.6268  -16.4437  -41.2776 H         1 UNK         0.0600 
    167 H167        5.5299  -16.8644  -42.9804 H         1 UNK         0.0600 
    168 H168        4.8878  -15.3262  -42.4222 H         1 UNK         0.0600 
    169 H169        3.2692  -15.4832  -40.5524 H         1 UNK         0.3000 
    170 H170        0.2282  -16.3732  -38.9192 H         1 UNK         0.0600 
    171 H171        2.0577  -17.2450  -37.4586 H         1 UNK         0.0600 
    172 H172        3.0502  -15.8435  -37.8421 H         1 UNK         0.0600 
    173 H173        1.5414  -15.6450  -36.9506 H         1 UNK         0.0600 
    174 H174        1.8262  -13.9868  -38.9420 H         1 UNK         0.3000 
    175 H175        0.1584  -12.4365  -41.7012 H         1 UNK         0.0600 
    176 H176        0.0858  -11.8573  -38.6953 H         1 UNK         0.0600 
    177 H177       -0.3140  -10.7289  -39.9908 H         1 UNK         0.0600 
    178 H178       -1.3274  -12.1340  -39.7066 H         1 UNK         0.0600 
    179 H179        2.0813  -11.2300  -40.1774 H         1 UNK         0.3000 
    180 H180        4.0424  -10.7263  -41.4372 H         1 UNK         0.0600 
    181 H181        5.2968  -13.1513  -40.0193 H         1 UNK         0.0600 
    182 H182        4.4606  -11.8257  -39.2198 H         1 UNK         0.0600 
    183 H183        5.9735  -11.5230  -40.0558 H         1 UNK         0.0600 
    184 H184        5.9600  -12.6561  -42.3263 H         1 UNK         0.3000 
    185 H185        6.1312  -11.6183  -45.4708 H         1 UNK         0.0600 
    186 H186        7.6212  -12.5061  -43.6791 H         1 UNK         0.0600 
    187 H187        6.7725  -14.0555  -43.7112 H         1 UNK         0.0600 
    188 H188        7.6949  -13.5173  -45.1073 H         1 UNK         0.0600 
    189 H189        4.4998  -14.0971  -45.2282 H         1 UNK         0.3000 
    190 H190       -2.3180  -20.9791  -45.3311 H         1 UNK         0.3000 
    191 H191       -4.3107  -22.8681  -45.9592 H         1 UNK         0.0600 
    192 H192       -2.0734  -23.0090  -43.8709 H         1 UNK         0.0600 
    193 H193       -3.5137  -24.0195  -43.8874 H         1 UNK         0.0600 
    194 H194       -3.6641  -22.2856  -43.6445 H         1 UNK         0.0600 
    195 H195       -0.7721  -23.0931  -46.3438 H         1 UNK         0.3000 
    196 H196       -0.7759  -25.8672  -47.1546 H         1 UNK         0.0600 
    197 H197        1.6286  -25.4027  -47.6599 H         1 UNK         0.0600 
    198 H198        1.1779  -24.8649  -46.0487 H         1 UNK         0.0600 
    199 H199        1.3691  -23.6902  -47.3457 H         1 UNK         0.0600 
    200 H200       -0.1858  -22.7896  -48.9867 H         1 UNK         0.3000 
    201 H201        0.0214  -24.3261  -51.4746 H         1 UNK         0.0600 
    202 H202        1.7163  -22.6102  -50.8556 H         1 UNK         0.0600 
    203 H203        0.4763  -21.3575  -50.8950 H         1 UNK         0.0600 
    204 H204        0.9151  -22.2093  -52.3678 H         1 UNK         0.0600 
    205 H205       -2.2883  -21.9879  -50.0363 H         1 UNK         0.3000 
    206 H206       -3.7016  -21.7267  -52.6129 H         1 UNK         0.0600 
    207 H207       -3.2894  -19.7857  -50.9364 H         1 UNK         0.0600 
    208 H208       -4.8705  -19.9376  -51.6934 H         1 UNK         0.0600 
    209 H209       -4.6455  -20.4592  -50.0376 H         1 UNK         0.0600 
    210 H210       -4.1364  -23.0484  -49.3565 H         1 UNK         0.3000 
    211 H211       -5.4525  -24.5998  -48.4383 H         1 UNK         0.0600 
    212 H212       -5.6818  -25.7355  -51.2814 H         1 UNK         0.0600 
    213 H213       -6.0146  -26.6045  -49.7894 H         1 UNK         0.0600 
    214 H214       -4.3788  -26.0700  -50.1430 H         1 UNK         0.0600 
    215 H215       -6.7281  -22.3464  -48.5400 H         1 UNK         0.3000 
    216 H216       -8.6361  -21.2150  -48.5123 H         1 UNK         0.0600 
    217 H217      -10.7561  -22.3822  -48.0846 H         1 UNK         0.0600 
    218 H218       -9.4730  -23.1676  -47.1797 H         1 UNK         0.0600 
    219 H219      -10.0941  -23.9065  -48.6551 H         1 UNK         0.0600 
    220 H220       -7.3373  -21.5387  -50.9464 H         1 UNK         0.3000 
    221 H221       -7.3891  -20.9182  -53.0397 H         1 UNK         0.0600 
    222 H222      -10.3519  -20.2117  -52.7766 H         1 UNK         0.0600 
    223 H223       -9.0164  -19.1438  -52.3438 H         1 UNK         0.0600 
    224 H224       -9.2362  -19.6479  -54.0101 H         1 UNK         0.0600 
    225 H225       -8.2821  -23.7416  -52.1448 H         1 UNK         0.3000 
    226 H226       -9.6604  -24.7933  -54.4842 H         1 UNK         0.0600 
    227 H227       -9.7774  -25.9037  -52.2390 H         1 UNK         0.0600 
    228 H228       -9.1554  -26.9826  -53.4798 H         1 UNK         0.0600 
    229 H229       -8.0509  -26.2517  -52.3245 H         1 UNK         0.0600 
    230 H230       -6.2888  -24.4060  -53.4101 H         1 UNK         0.3000 
    231 H231       -5.2343  -25.4994  -55.9888 H         1 UNK         0.0600 
    232 H232       -4.2493  -26.5318  -53.9995 H         1 UNK         0.0600 
    233 H233       -3.9079  -24.9627  -53.2831 H         1 UNK         0.0600 
    234 H234       -3.0479  -25.4767  -54.7301 H         1 UNK         0.0600 
    235 H235       -5.5163  -22.6432  -53.9695 H         1 UNK         0.3000 
    236 H236       -5.2027  -20.4628  -54.2417 H         1 UNK         0.0600 
    237 H237       -5.6567  -21.0545  -57.2093 H         1 UNK         0.0600 
    238 H238       -6.9270  -20.9036  -55.9970 H         1 UNK         0.0600 
    239 H239       -5.9319  -19.5165  -56.3998 H         1 UNK         0.0600 
    240 H240       -2.6945  -22.0351  -54.3303 H         1 UNK         0.3000 
    241 H241       -0.5404  -21.7810  -54.5185 H         1 UNK         0.0600 
    242 H242       -1.0523  -22.4447  -58.2805 H         1 UNK         0.3800 
    243 H243       -2.2695  -22.5073  -57.0293 H         1 UNK         0.3800 
    244 H244       -0.9178  -18.8641  -55.3254 H         1 UNK         0.0800 
    245 H245        0.5834  -19.6010  -54.8509 H         1 UNK         0.0800 
    246 H246       -2.5936  -17.7672  -53.4441 H         1 UNK         0.0800 
    247 H247       -1.0381  -17.0281  -53.7437 H         1 UNK         0.0800 
@<TRIPOS>BOND
     1    1    2 1    
     2    1  127 1    
     3    1  128 1    
     4    1  129 1    
     5    2    3 2    
     6    2    4 am   BACKBONE|DICT|INTERRES
     7    4    5 1    
     8    4  130 1    
     9    5    6 1    
    10    5   65 1    
    11    5  131 1    
    12    6    7 1    
    13    6  132 1    
    14    6  133 1    
    15    7    8 1    
    16    8    9 1    
    17    8  134 1    
    18    8  135 1    
    19    9   10 ar   
    20    9   14 ar   
    21   10   11 ar   
    22   10  136 1    
    23   11   12 ar   
    24   11  126 1    
    25   12   13 ar   
    26   12  137 1    
    27   13   14 ar   
    28   13   15 1    
    29   14  138 1    
    30   15   16 1    
    31   15  139 1    
    32   15  140 1    
    33   16   17 1    
    34   17   18 1    
    35   17  141 1    
    36   17  142 1    
    37   18   19 1    
    38   18   67 1    
    39   18  143 1    
    40   19   20 am   BACKBONE|DICT|INTERRES
    41   19  144 1    
    42   20   21 2    
    43   20   22 1    
    44   22   23 1    
    45   22   24 1    
    46   22  145 1    
    47   23  146 1    
    48   23  147 1    
    49   23  148 1    
    50   24   25 am   BACKBONE|DICT|INTERRES
    51   24  149 1    
    52   25   26 2    
    53   25   27 1    
    54   27   28 1    
    55   27   29 1    
    56   27  150 1    
    57   28  151 1    
    58   28  152 1    
    59   28  153 1    
    60   29   30 am   BACKBONE|DICT|INTERRES
    61   29  154 1    
    62   30   31 2    
    63   30   32 1    
    64   32   33 1    
    65   32   34 1    
    66   32  155 1    
    67   33  156 1    
    68   33  157 1    
    69   33  158 1    
    70   34   35 am   BACKBONE|DICT|INTERRES
    71   34  159 1    
    72   35   36 2    
    73   35   37 1    
    74   37   38 1    
    75   37   39 1    
    76   37  160 1    
    77   38  161 1    
    78   38  162 1    
    79   38  163 1    
    80   39   40 am   BACKBONE|DICT|INTERRES
    81   39  164 1    
    82   40   41 2    
    83   40   42 1    
    84   42   43 1    
    85   42   44 1    
    86   42  165 1    
    87   43  166 1    
    88   43  167 1    
    89   43  168 1    
    90   44   45 am   BACKBONE|DICT|INTERRES
    91   44  169 1    
    92   45   46 2    
    93   45   47 1    
    94   47   48 1    
    95   47   49 1    
    96   47  170 1    
    97   48  171 1    
    98   48  172 1    
    99   48  173 1    
   100   49   50 am   BACKBONE|DICT|INTERRES
   101   49  174 1    
   102   50   51 2    
   103   50   52 1    
   104   52   53 1    
   105   52   54 1    
   106   52  175 1    
   107   53  176 1    
   108   53  177 1    
   109   53  178 1    
   110   54   55 am   BACKBONE|DICT|INTERRES
   111   54  179 1    
   112   55   56 2    
   113   55   57 1    
   114   57   58 1    
   115   57   59 1    
   116   57  180 1    
   117   58  181 1    
   118   58  182 1    
   119   58  183 1    
   120   59   60 am   BACKBONE|DICT|INTERRES
   121   59  184 1    
   122   60   61 2    
   123   60   62 1    
   124   62   63 1    
   125   62   64 1    
   126   62  185 1    
   127   63  186 1    
   128   63  187 1    
   129   63  188 1    
   130   64   65 am   BACKBONE|DICT|INTERRES
   131   64  189 1    
   132   65   66 2    
   133   67   68 2    
   134   67   69 am   BACKBONE|DICT|INTERRES
   135   69   70 1    
   136   69  190 1    
   137   70   71 1    
   138   70   72 1    
   139   70  191 1    
   140   71  192 1    
   141   71  193 1    
   142   71  194 1    
   143   72   73 2    
   144   72   74 am   BACKBONE|DICT|INTERRES
   145   74   75 1    
   146   74  195 1    
   147   75   76 1    
   148   75   77 1    
   149   75  196 1    
   150   76  197 1    
   151   76  198 1    
   152   76  199 1    
   153   77   78 2    
   154   77   79 am   BACKBONE|DICT|INTERRES
   155   79   80 1    
   156   79  200 1    
   157   80   81 1    
   158   80   82 1    
   159   80  201 1    
   160   81  202 1    
   161   81  203 1    
   162   81  204 1    
   163   82   83 2    
   164   82   84 am   BACKBONE|DICT|INTERRES
   165   84   85 1    
   166   84  205 1    
   167   85   86 1    
   168   85   87 1    
   169   85  206 1    
   170   86  207 1    
   171   86  208 1    
   172   86  209 1    
   173   87   88 2    
   174   87   89 am   BACKBONE|DICT|INTERRES
   175   89   90 1    
   176   89  210 1    
   177   90   91 1    
   178   90   92 1    
   179   90  211 1    
   180   91  212 1    
   181   91  213 1    
   182   91  214 1    
   183   92   93 2    
   184   92   94 am   BACKBONE|DICT|INTERRES
   185   94   95 1    
   186   94  215 1    
   187   95   96 1    
   188   95   97 1    
   189   95  216 1    
   190   96  217 1    
   191   96  218 1    
   192   96  219 1    
   193   97   98 2    
   194   97   99 am   BACKBONE|DICT|INTERRES
   195   99  100 1    
   196   99  220 1    
   197  100  101 1    
   198  100  102 1    
   199  100  221 1    
   200  101  222 1    
   201  101  223 1    
   202  101  224 1    
   203  102  103 2    
   204  102  104 am   BACKBONE|DICT|INTERRES
   205  104  105 1    
   206  104  225 1    
   207  105  106 1    
   208  105  107 1    
   209  105  226 1    
   210  106  227 1    
   211  106  228 1    
   212  106  229 1    
   213  107  108 2    
   214  107  109 am   BACKBONE|DICT|INTERRES
   215  109  110 1    
   216  109  230 1    
   217  110  111 1    
   218  110  112 1    
   219  110  231 1    
   220  111  232 1    
   221  111  233 1    
   222  111  234 1    
   223  112  113 2    
   224  112  114 am   BACKBONE|DICT|INTERRES
   225  114  115 1    
   226  114  235 1    
   227  115  116 1    
   228  115  117 1    
   229  115  236 1    
   230  116  237 1    
   231  116  238 1    
   232  116  239 1    
   233  117  118 2    
   234  117  119 am   BACKBONE|DICT|INTERRES
   235  119  120 1    
   236  119  240 1    
   237  120  121 1    
   238  120  124 1    
   239  120  241 1    
   240  121  122 am   BACKBONE|DICT|INTERRES
   241  121  123 2    
   242  122  242 1    
   243  122  243 1    
   244  124  125 1    
   245  124  244 1    
   246  124  245 1    
   247  125  126 1    
   248  126  246 1    
   249  126  247 1    
@<TRIPOS>SUBSTRUCTURE
     1 UNK         1 GROUP             0       ****    0 ROOT    
