@<TRIPOS>MOLECULE
3R540
247   249    1
SMALL
USER_CHARGES


@<TRIPOS>ATOM
      1 CA         -0.2530  -11.1216  -48.0125 C.3       0 UNK        -0.1800 
      2 C          -0.4875  -12.5728  -48.4073 C.2       0 UNK         0.5000 
      3 O          -1.3151  -12.8386  -49.2765 O.2       0 UNK        -0.5000 
      4 N           0.2097  -13.5003  -47.7379 N.am      1 UNK        -0.5000 
      5 CA          0.2165  -14.9682  -47.8680 C.3       1 UNK         0.1400 
      6 C6          0.8302  -15.5138  -49.1894 C.3       23 UNK        -0.0398 
      7 S7         -0.2510  -15.5836  -50.6652 S.3       23 UNK        -0.2404 
      8 C8         -1.0228  -17.2292  -50.5277 C.3       23 UNK        -0.0205 
      9 C9         -0.0573  -18.3683  -50.8129 C.ar      23 UNK        -0.0193 
     10 C10         0.1366  -18.8036  -52.1247 C.ar      23 UNK        -0.1150 
     11 C11         0.9775  -19.8877  -52.4023 C.ar      23 UNK        -0.0193 
     12 C12         1.6233  -20.5281  -51.3395 C.ar      23 UNK        -0.1150 
     13 C13         1.4304  -20.1194  -50.0153 C.ar      23 UNK        -0.0193 
     14 C14         0.5907  -19.0266  -49.7644 C.ar      23 UNK        -0.1150 
     15 C15         2.1434  -20.9080  -48.9121 C.3       23 UNK        -0.0205 
     16 S16         1.7822  -20.4397  -47.1809 S.3       23 UNK        -0.2404 
     17 C17         0.0534  -20.9868  -46.9691 C.3       23 UNK        -0.0398 
     18 CA         -0.1185  -22.5136  -46.7743 C.3       11 UNK         0.1400 
     19 N           0.7517  -23.0811  -45.7407 N.am      11 UNK        -0.5000 
     20 C           0.9672  -24.3951  -45.5763 C.2       10 UNK         0.5000 
     21 O           0.4624  -25.2635  -46.2870 O.2       10 UNK        -0.5000 
     22 CA          1.8520  -24.8124  -44.3875 C.3       10 UNK         0.1400 
     23 CB          3.3384  -24.7115  -44.7606 C.3       10 UNK        -0.1800 
     24 N           1.5984  -24.0123  -43.1896 N.am      10 UNK        -0.5000 
     25 C           0.4299  -23.9664  -42.5336 C.2       9 UNK         0.5000 
     26 O          -0.5448  -24.6563  -42.8275 O.2       9 UNK        -0.5000 
     27 CA          0.3104  -22.9350  -41.3962 C.3       9 UNK         0.1400 
     28 CB          0.6538  -23.5809  -40.0460 C.3       9 UNK        -0.1800 
     29 N           1.1516  -21.7508  -41.5959 N.am      9 UNK        -0.5000 
     30 C           1.0319  -20.8899  -42.6149 C.2       8 UNK         0.5000 
     31 O           0.1911  -20.9964  -43.5134 O.2       8 UNK        -0.5000 
     32 CA          2.0648  -19.7596  -42.6641 C.3       8 UNK         0.1400 
     33 CB          3.3753  -20.2473  -43.3064 C.3       8 UNK        -0.1800 
     34 N           1.5227  -18.6539  -43.4431 N.am      8 UNK        -0.5000 
     35 C           1.8044  -17.3644  -43.2407 C.2       7 UNK         0.5000 
     36 O           2.5706  -16.9610  -42.3619 O.2       7 UNK        -0.5000 
     37 CA          1.0782  -16.3640  -44.1565 C.3       7 UNK         0.1400 
     38 CB         -0.3433  -16.0921  -43.6404 C.3       7 UNK        -0.1800 
     39 N           1.8063  -15.0982  -44.2560 N.am      7 UNK        -0.5000 
     40 C           2.9109  -14.9263  -44.9978 C.2       6 UNK         0.5000 
     41 O           3.3618  -15.7921  -45.7484 O.2       6 UNK        -0.5000 
     42 CA          3.6276  -13.5621  -44.9246 C.3       6 UNK         0.1400 
     43 CB          3.2859  -12.7028  -46.1518 C.3       6 UNK        -0.1800 
     44 N           3.3047  -12.7991  -43.7217 N.am      6 UNK        -0.5000 
     45 C           3.7580  -13.0691  -42.4907 C.2       5 UNK         0.5000 
     46 O           4.5883  -13.9446  -42.2460 O.2       5 UNK        -0.5000 
     47 CA          3.1866  -12.2186  -41.3362 C.3       5 UNK         0.1400 
     48 CB          4.2283  -11.1965  -40.8544 C.3       5 UNK        -0.1800 
     49 N           1.9457  -11.5062  -41.6672 N.am      5 UNK        -0.5000 
     50 C           0.7742  -12.0874  -41.9602 C.2       4 UNK         0.5000 
     51 O           0.6203  -13.3099  -41.9893 O.2       4 UNK        -0.5000 
     52 CA         -0.4085  -11.1401  -42.2565 C.3       4 UNK         0.1400 
     53 CB         -0.0155   -9.9660  -43.1823 C.3       4 UNK        -0.1800 
     54 N          -1.5900  -11.8400  -42.7756 N.am      4 UNK        -0.5000 
     55 C          -1.7183  -12.4648  -43.9545 C.2       3 UNK         0.5000 
     56 O          -0.8328  -12.5245  -44.8149 O.2       3 UNK        -0.5000 
     57 CA         -3.0854  -13.1209  -44.2145 C.3       3 UNK         0.1400 
     58 CB         -4.2172  -12.0754  -44.2592 C.3       3 UNK        -0.1800 
     59 N          -3.0301  -13.8329  -45.4836 N.am      3 UNK        -0.5000 
     60 C          -3.8283  -14.8298  -45.8840 C.2       2 UNK         0.5000 
     61 O          -4.7416  -15.2910  -45.1990 O.2       2 UNK        -0.5000 
     62 CA         -3.5690  -15.4017  -47.2928 C.3       2 UNK         0.1400 
     63 CB         -4.6116  -14.8696  -48.2873 C.3       2 UNK        -0.1800 
     64 N          -2.2404  -15.0468  -47.7859 N.am      2 UNK        -0.5000 
     65 C          -1.1007  -15.6557  -47.4476 C.2       1 UNK         0.5000 
     66 O          -1.0597  -16.7035  -46.8035 O.2       1 UNK        -0.5000 
     67 C          -1.5964  -22.8398  -46.4945 C.2       11 UNK         0.5000 
     68 O          -2.3433  -23.1149  -47.4327 O.2       11 UNK        -0.5000 
     69 N          -1.9897  -22.8161  -45.2135 N.am      12 UNK        -0.5000 
     70 CA         -3.3284  -23.1900  -44.7599 C.3       12 UNK         0.1400 
     71 CB         -3.5190  -22.7652  -43.2964 C.3       12 UNK        -0.1800 
     72 C          -3.6037  -24.6924  -44.9501 C.2       12 UNK         0.5000 
     73 O          -4.6624  -25.0510  -45.4649 O.2       12 UNK        -0.5000 
     74 N          -2.6303  -25.5367  -44.5788 N.am      13 UNK        -0.5000 
     75 CA         -2.6765  -26.9934  -44.7270 C.3       13 UNK         0.1400 
     76 CB         -1.4681  -27.6177  -44.0131 C.3       13 UNK        -0.1800 
     77 C          -2.7343  -27.4523  -46.1959 C.2       13 UNK         0.5000 
     78 O          -3.4757  -28.3828  -46.5133 O.2       13 UNK        -0.5000 
     79 N          -1.9767  -26.7739  -47.0686 N.am      14 UNK        -0.5000 
     80 CA         -1.9692  -27.0003  -48.5159 C.3       14 UNK         0.1400 
     81 CB         -0.6913  -26.3779  -49.1023 C.3       14 UNK        -0.1800 
     82 C          -3.2081  -26.4307  -49.2372 C.2       14 UNK         0.5000 
     83 O          -3.4148  -26.7485  -50.4083 O.2       14 UNK        -0.5000 
     84 N          -3.9702  -25.5654  -48.5498 N.am      15 UNK        -0.5000 
     85 CA         -5.0838  -24.7426  -49.0420 C.3       15 UNK         0.1400 
     86 CB         -6.2314  -25.6060  -49.6023 C.3       15 UNK        -0.1800 
     87 C          -4.6464  -23.6363  -50.0265 C.2       15 UNK         0.5000 
     88 O          -5.4958  -22.9705  -50.6189 O.2       15 UNK        -0.5000 
     89 N          -3.3327  -23.4081  -50.1405 N.am      16 UNK        -0.5000 
     90 CA         -2.7033  -22.3631  -50.9440 C.3       16 UNK         0.1400 
     91 CB         -1.1989  -22.6468  -51.0207 C.3       16 UNK        -0.1800 
     92 C          -2.9726  -20.9488  -50.3983 C.2       16 UNK         0.5000 
     93 O          -2.9365  -19.9896  -51.1634 O.2       16 UNK        -0.5000 
     94 N          -3.2938  -20.8443  -49.1001 N.am      17 UNK        -0.5000 
     95 CA         -3.7909  -19.6196  -48.4707 C.3       17 UNK         0.1400 
     96 CB         -3.8647  -19.8211  -46.9500 C.3       17 UNK        -0.1800 
     97 C          -5.1582  -19.1685  -49.0280 C.2       17 UNK         0.5000 
     98 O          -5.4334  -17.9698  -49.0405 O.2       17 UNK        -0.5000 
     99 N          -5.9786  -20.1250  -49.4883 N.am      18 UNK        -0.5000 
    100 CA        -7.2357  -19.8666  -50.1880 C.3       18 UNK         0.1400 
    101 CB        -8.2568  -20.9634  -49.8443 C.3       18 UNK        -0.1800 
    102 C         -6.9930  -19.7844  -51.7037 C.2       18 UNK         0.5000 
    103 O         -7.3884  -18.8031  -52.3346 O.2       18 UNK        -0.5000 
    104 N         -6.3091  -20.7938  -52.2606 N.am      19 UNK        -0.5000 
    105 CA        -5.9179  -20.8899  -53.6687 C.3       19 UNK         0.1400 
    106 CB        -5.7366  -22.3748  -54.0314 C.3       19 UNK        -0.1800 
    107 C         -4.6614  -20.0453  -53.9691 C.2       19 UNK         0.5000 
    108 O         -3.6548  -20.5689  -54.4518 O.2       19 UNK        -0.5000 
    109 N         -4.7475  -18.7415  -53.6742 N.am      20 UNK        -0.5000 
    110 CA        -3.6468  -17.7728  -53.6991 C.3       20 UNK         0.1400 
    111 CB        -4.1135  -16.4793  -53.0128 C.3       20 UNK        -0.1800 
    112 C         -3.0494  -17.4842  -55.0915 C.2       20 UNK         0.5000 
    113 O         -2.0014  -16.8439  -55.1764 O.2       20 UNK        -0.5000 
    114 N         -3.7027  -17.9729  -56.1541 N.am      21 UNK        -0.5000 
    115 CA        -3.1777  -18.0017  -57.5200 C.3       21 UNK         0.1400 
    116 CB        -4.3302  -18.3238  -58.4839 C.3       21 UNK        -0.1800 
    117 C         -2.0207  -19.0089  -57.7050 C.2       21 UNK         0.5000 
    118 O         -1.2677  -18.8807  -58.6710 O.2       21 UNK        -0.5000 
    119 N         -1.9032  -19.9844  -56.7906 N.am      22 UNK        -0.5000 
    120 CA        -0.8576  -21.0233  -56.7381 C.3       22 UNK         0.1400 
    121 C         -0.9464  -22.0988  -57.8644 C.2       22 UNK         0.5000 
    122 N         -2.0532  -22.2109  -58.5889 N.am      22 UNK        -0.7600 
    123 O         -0.0118  -22.8691  -58.0689 O.2       22 UNK        -0.5000 
    124 C124        0.5844  -20.4556  -56.5722 C.3       23 UNK        -0.0398 
    125 S125        0.7518  -19.2983  -55.1699 S.3       23 UNK        -0.2404 
    126 C126        1.1490  -20.4535  -53.8133 C.3       23 UNK        -0.0205 
    127 H127       -1.1980  -10.6505  -47.7422 H         1 UNK         0.0600 
    128 H128        0.1787  -10.5703  -48.8477 H         1 UNK         0.0600 
    129 H129        0.4205  -11.0344  -47.1597 H         1 UNK         0.0600 
    130 H130        0.7916  -13.1636  -46.9849 H         1 UNK         0.3000 
    131 H131        0.9221  -15.2648  -47.0933 H         1 UNK         0.0600 
    132 H132        1.6972  -14.9073  -49.4535 H         1 UNK         0.0800 
    133 H133        1.2394  -16.5065  -49.0098 H         1 UNK         0.0800 
    134 H134       -1.8539  -17.2761  -51.2299 H         1 UNK         0.0800 
    135 H135       -1.4735  -17.3611  -49.5468 H         1 UNK         0.0800 
    136 H136       -0.3973  -18.3056  -52.9204 H         1 UNK         0.1150 
    137 H137        2.2601  -21.3781  -51.5427 H         1 UNK         0.1150 
    138 H138        0.4181  -18.6863  -48.7545 H         1 UNK         0.1150 
    139 H139        1.9278  -21.9699  -49.0364 H         1 UNK         0.0800 
    140 H140        3.2180  -20.7982  -49.0633 H         1 UNK         0.0800 
    141 H141       -0.5341  -20.6540  -47.8256 H         1 UNK         0.0800 
    142 H142       -0.3448  -20.4453  -46.1093 H         1 UNK         0.0800 
    143 H143        0.1405  -22.9984  -47.7176 H         1 UNK         0.0600 
    144 H144        1.1562  -22.4249  -45.0878 H         1 UNK         0.3000 
    145 H145        1.6256  -25.8543  -44.1518 H         1 UNK         0.0600 
    146 H146        3.9734  -25.0762  -43.9530 H         1 UNK         0.0600 
    147 H147        3.5602  -25.3125  -45.6436 H         1 UNK         0.0600 
    148 H148        3.6310  -23.6839  -44.9808 H         1 UNK         0.0600 
    149 H149        2.3479  -23.4160  -42.8729 H         1 UNK         0.3000 
    150 H150       -0.7293  -22.6033  -41.3629 H         1 UNK         0.0600 
    151 H151        1.6929  -23.9104  -40.0091 H         1 UNK         0.0600 
    152 H152        0.0258  -24.4534  -39.8601 H         1 UNK         0.0600 
    153 H153        0.4917  -22.8849  -39.2228 H         1 UNK         0.0600 
    154 H154        1.8735  -21.5954  -40.9067 H         1 UNK         0.3000 
    155 H155        2.2579  -19.4320  -41.6403 H         1 UNK         0.0600 
    156 H156        3.2173  -20.5943  -44.3284 H         1 UNK         0.0600 
    157 H157        3.8098  -21.0724  -42.7410 H         1 UNK         0.0600 
    158 H158        4.1188  -19.4506  -43.3372 H         1 UNK         0.0600 
    159 H159        0.8343  -18.9275  -44.1328 H         1 UNK         0.3000 
    160 H160        1.0075  -16.8060  -45.1519 H         1 UNK         0.0600 
    161 H161       -0.3380  -15.7090  -42.6198 H         1 UNK         0.0600 
    162 H162       -0.9424  -17.0034  -43.6464 H         1 UNK         0.0600 
    163 H163       -0.8565  -15.3670  -44.2700 H         1 UNK         0.0600 
    164 H164        1.5169  -14.3668  -43.6167 H         1 UNK         0.3000 
    165 H165        4.7016  -13.7594  -44.9349 H         1 UNK         0.0600 
    166 H166        3.9132  -11.8121  -46.1919 H         1 UNK         0.0600 
    167 H167        3.4463  -13.2531  -47.0802 H         1 UNK         0.0600 
    168 H168        2.2471  -12.3753  -46.1320 H         1 UNK         0.0600 
    169 H169        2.6311  -12.0550  -43.8236 H         1 UNK         0.3000 
    170 H170        2.9699  -12.9012  -40.5118 H         1 UNK         0.0600 
    171 H171        5.1570  -11.6902  -40.5649 H         1 UNK         0.0600 
    172 H172        4.4707  -10.4724  -41.6332 H         1 UNK         0.0600 
    173 H173        3.8702  -10.6476  -39.9833 H         1 UNK         0.0600 
    174 H174        1.9968  -10.4977  -41.6574 H         1 UNK         0.3000 
    175 H175       -0.7097  -10.7195  -41.2961 H         1 UNK         0.0600 
    176 H176        0.6968   -9.2973  -42.6987 H         1 UNK         0.0600 
    177 H177        0.4391  -10.3119  -44.1113 H         1 UNK         0.0600 
    178 H178       -0.8860   -9.3640  -43.4433 H         1 UNK         0.0600 
    179 H179       -2.3694  -11.8825  -42.1345 H         1 UNK         0.3000 
    180 H180       -3.2733  -13.8368  -43.4118 H         1 UNK         0.0600 
    181 H181       -4.0446  -11.3342  -45.0407 H         1 UNK         0.0600 
    182 H182       -4.3058  -11.5413  -43.3128 H         1 UNK         0.0600 
    183 H183       -5.1829  -12.5430  -44.4516 H         1 UNK         0.0600 
    184 H184       -2.2560  -13.5539  -46.0724 H         1 UNK         0.3000 
    185 H185       -3.6575  -16.4887  -47.2416 H         1 UNK         0.0600 
    186 H186       -5.6208  -15.1463  -47.9794 H         1 UNK         0.0600 
    187 H187       -4.5757  -13.7823  -48.3671 H         1 UNK         0.0600 
    188 H188       -4.4526  -15.2850  -49.2828 H         1 UNK         0.0600 
    189 H189       -2.1661  -14.2154  -48.3682 H         1 UNK         0.3000 
    190 H190       -1.3159  -22.5611  -44.5033 H         1 UNK         0.3000 
    191 H191       -4.0539  -22.6421  -45.3642 H         1 UNK         0.0600 
    192 H192       -3.3533  -21.6949  -43.1721 H         1 UNK         0.0600 
    193 H193       -4.5342  -22.9790  -42.9598 H         1 UNK         0.0600 
    194 H194       -2.8370  -23.2895  -42.6276 H         1 UNK         0.0600 
    195 H195       -1.8085  -25.1582  -44.1137 H         1 UNK         0.3000 
    196 H196       -3.5837  -27.3483  -44.2337 H         1 UNK         0.0600 
    197 H197       -1.4851  -28.7054  -44.0921 H         1 UNK         0.0600 
    198 H198       -1.4659  -27.3686  -42.9518 H         1 UNK         0.0600 
    199 H199       -0.5264  -27.2708  -44.4395 H         1 UNK         0.0600 
    200 H200       -1.3356  -26.0688  -46.7177 H         1 UNK         0.3000 
    201 H201       -1.9443  -28.0759  -48.7026 H         1 UNK         0.0600 
    202 H202       -0.6286  -26.5441  -50.1785 H         1 UNK         0.0600 
    203 H203        0.2010  -26.8165  -48.6553 H         1 UNK         0.0600 
    204 H204       -0.6547  -25.3009  -48.9332 H         1 UNK         0.0600 
    205 H205       -3.7047  -25.3810  -47.5909 H         1 UNK         0.3000 
    206 H206       -5.4686  -24.2200  -48.1653 H         1 UNK         0.0600 
    207 H207       -6.5224  -26.3823  -48.8947 H         1 UNK         0.0600 
    208 H208       -7.1155  -24.9979  -49.7977 H         1 UNK         0.0600 
    209 H209       -5.9588  -26.0891  -50.5407 H         1 UNK         0.0600 
    210 H210       -2.7221  -23.9324  -49.5299 H         1 UNK         0.3000 
    211 H211       -3.1153  -22.4146  -51.9533 H         1 UNK         0.0600 
    212 H212       -0.7098  -22.5113  -50.0555 H         1 UNK         0.0600 
    213 H213       -0.7275  -21.9717  -51.7320 H         1 UNK         0.0600 
    214 H214       -1.0007  -23.6629  -51.3620 H         1 UNK         0.0600 
    215 H215       -3.2487  -21.6801  -48.5272 H         1 UNK         0.3000 
    216 H216       -3.0745  -18.8218  -48.6721 H         1 UNK         0.0600 
    217 H217       -4.2326  -18.9217  -46.4544 H         1 UNK         0.0600 
    218 H218       -2.8830  -20.0385  -46.5307 H         1 UNK         0.0600 
    219 H219       -4.5353  -20.6392  -46.6859 H         1 UNK         0.0600 
    220 H220       -5.6561  -21.0831  -49.4886 H         1 UNK         0.3000 
    221 H221       -7.6536  -18.9120  -49.8608 H         1 UNK         0.0600 
    222 H222       -7.9150  -21.9540  -50.1445 H         1 UNK         0.0600 
    223 H223       -8.4563  -20.9907  -48.7730 H         1 UNK         0.0600 
    224 H224       -9.2072  -20.7797  -50.3469 H         1 UNK         0.0600 
    225 H225       -6.0101  -21.5639  -51.6662 H         1 UNK         0.3000 
    226 H226       -6.7268  -20.4965  -54.2877 H         1 UNK         0.0600 
    227 H227       -5.4855  -22.4934  -55.0861 H         1 UNK         0.0600 
    228 H228       -4.9408  -22.8392  -53.4490 H         1 UNK         0.0600 
    229 H229       -6.6522  -22.9381  -53.8507 H         1 UNK         0.0600 
    230 H230       -5.6236  -18.4172  -53.2790 H         1 UNK         0.3000 
    231 H231       -2.8358  -18.1984  -53.1080 H         1 UNK         0.0600 
    232 H232       -4.9462  -16.0202  -53.5467 H         1 UNK         0.0600 
    233 H233       -3.3070  -15.7463  -52.9646 H         1 UNK         0.0600 
    234 H234       -4.4344  -16.6721  -51.9883 H         1 UNK         0.0600 
    235 H235       -4.5623  -18.4741  -55.9870 H         1 UNK         0.3000 
    236 H236       -2.7927  -17.0091  -57.7629 H         1 UNK         0.0600 
    237 H237       -5.1241  -17.5801  -58.4121 H         1 UNK         0.0600 
    238 H238       -3.9847  -18.3290  -59.5186 H         1 UNK         0.0600 
    239 H239       -4.7660  -19.3023  -58.2782 H         1 UNK         0.0600 
    240 H240       -2.5741  -20.0220  -56.0293 H         1 UNK         0.3000 
    241 H241       -1.0787  -21.5818  -55.8282 H         1 UNK         0.0600 
    242 H242       -2.8342  -21.5961  -58.4268 H         1 UNK         0.3800 
    243 H243       -2.1077  -22.9150  -59.3082 H         1 UNK         0.3800 
    244 H244        1.3043  -21.2642  -56.4354 H         1 UNK         0.0800 
    245 H245        0.8930  -19.9349  -57.4795 H         1 UNK         0.0800 
    246 H246        0.5077  -21.3315  -53.8977 H         1 UNK         0.0800 
    247 H247        2.1745  -20.8004  -53.9490 H         1 UNK         0.0800 
@<TRIPOS>BOND
     1    1    2 1    
     2    1  127 1    
     3    1  128 1    
     4    1  129 1    
     5    2    3 2    
     6    2    4 am   BACKBONE|DICT|INTERRES
     7    4    5 1    
     8    4  130 1    
     9    5    6 1    
    10    5   65 1    
    11    5  131 1    
    12    6    7 1    
    13    6  132 1    
    14    6  133 1    
    15    7    8 1    
    16    8    9 1    
    17    8  134 1    
    18    8  135 1    
    19    9   10 ar   
    20    9   14 ar   
    21   10   11 ar   
    22   10  136 1    
    23   11   12 ar   
    24   11  126 1    
    25   12   13 ar   
    26   12  137 1    
    27   13   14 ar   
    28   13   15 1    
    29   14  138 1    
    30   15   16 1    
    31   15  139 1    
    32   15  140 1    
    33   16   17 1    
    34   17   18 1    
    35   17  141 1    
    36   17  142 1    
    37   18   19 1    
    38   18   67 1    
    39   18  143 1    
    40   19   20 am   BACKBONE|DICT|INTERRES
    41   19  144 1    
    42   20   21 2    
    43   20   22 1    
    44   22   23 1    
    45   22   24 1    
    46   22  145 1    
    47   23  146 1    
    48   23  147 1    
    49   23  148 1    
    50   24   25 am   BACKBONE|DICT|INTERRES
    51   24  149 1    
    52   25   26 2    
    53   25   27 1    
    54   27   28 1    
    55   27   29 1    
    56   27  150 1    
    57   28  151 1    
    58   28  152 1    
    59   28  153 1    
    60   29   30 am   BACKBONE|DICT|INTERRES
    61   29  154 1    
    62   30   31 2    
    63   30   32 1    
    64   32   33 1    
    65   32   34 1    
    66   32  155 1    
    67   33  156 1    
    68   33  157 1    
    69   33  158 1    
    70   34   35 am   BACKBONE|DICT|INTERRES
    71   34  159 1    
    72   35   36 2    
    73   35   37 1    
    74   37   38 1    
    75   37   39 1    
    76   37  160 1    
    77   38  161 1    
    78   38  162 1    
    79   38  163 1    
    80   39   40 am   BACKBONE|DICT|INTERRES
    81   39  164 1    
    82   40   41 2    
    83   40   42 1    
    84   42   43 1    
    85   42   44 1    
    86   42  165 1    
    87   43  166 1    
    88   43  167 1    
    89   43  168 1    
    90   44   45 am   BACKBONE|DICT|INTERRES
    91   44  169 1    
    92   45   46 2    
    93   45   47 1    
    94   47   48 1    
    95   47   49 1    
    96   47  170 1    
    97   48  171 1    
    98   48  172 1    
    99   48  173 1    
   100   49   50 am   BACKBONE|DICT|INTERRES
   101   49  174 1    
   102   50   51 2    
   103   50   52 1    
   104   52   53 1    
   105   52   54 1    
   106   52  175 1    
   107   53  176 1    
   108   53  177 1    
   109   53  178 1    
   110   54   55 am   BACKBONE|DICT|INTERRES
   111   54  179 1    
   112   55   56 2    
   113   55   57 1    
   114   57   58 1    
   115   57   59 1    
   116   57  180 1    
   117   58  181 1    
   118   58  182 1    
   119   58  183 1    
   120   59   60 am   BACKBONE|DICT|INTERRES
   121   59  184 1    
   122   60   61 2    
   123   60   62 1    
   124   62   63 1    
   125   62   64 1    
   126   62  185 1    
   127   63  186 1    
   128   63  187 1    
   129   63  188 1    
   130   64   65 am   BACKBONE|DICT|INTERRES
   131   64  189 1    
   132   65   66 2    
   133   67   68 2    
   134   67   69 am   BACKBONE|DICT|INTERRES
   135   69   70 1    
   136   69  190 1    
   137   70   71 1    
   138   70   72 1    
   139   70  191 1    
   140   71  192 1    
   141   71  193 1    
   142   71  194 1    
   143   72   73 2    
   144   72   74 am   BACKBONE|DICT|INTERRES
   145   74   75 1    
   146   74  195 1    
   147   75   76 1    
   148   75   77 1    
   149   75  196 1    
   150   76  197 1    
   151   76  198 1    
   152   76  199 1    
   153   77   78 2    
   154   77   79 am   BACKBONE|DICT|INTERRES
   155   79   80 1    
   156   79  200 1    
   157   80   81 1    
   158   80   82 1    
   159   80  201 1    
   160   81  202 1    
   161   81  203 1    
   162   81  204 1    
   163   82   83 2    
   164   82   84 am   BACKBONE|DICT|INTERRES
   165   84   85 1    
   166   84  205 1    
   167   85   86 1    
   168   85   87 1    
   169   85  206 1    
   170   86  207 1    
   171   86  208 1    
   172   86  209 1    
   173   87   88 2    
   174   87   89 am   BACKBONE|DICT|INTERRES
   175   89   90 1    
   176   89  210 1    
   177   90   91 1    
   178   90   92 1    
   179   90  211 1    
   180   91  212 1    
   181   91  213 1    
   182   91  214 1    
   183   92   93 2    
   184   92   94 am   BACKBONE|DICT|INTERRES
   185   94   95 1    
   186   94  215 1    
   187   95   96 1    
   188   95   97 1    
   189   95  216 1    
   190   96  217 1    
   191   96  218 1    
   192   96  219 1    
   193   97   98 2    
   194   97   99 am   BACKBONE|DICT|INTERRES
   195   99  100 1    
   196   99  220 1    
   197  100  101 1    
   198  100  102 1    
   199  100  221 1    
   200  101  222 1    
   201  101  223 1    
   202  101  224 1    
   203  102  103 2    
   204  102  104 am   BACKBONE|DICT|INTERRES
   205  104  105 1    
   206  104  225 1    
   207  105  106 1    
   208  105  107 1    
   209  105  226 1    
   210  106  227 1    
   211  106  228 1    
   212  106  229 1    
   213  107  108 2    
   214  107  109 am   BACKBONE|DICT|INTERRES
   215  109  110 1    
   216  109  230 1    
   217  110  111 1    
   218  110  112 1    
   219  110  231 1    
   220  111  232 1    
   221  111  233 1    
   222  111  234 1    
   223  112  113 2    
   224  112  114 am   BACKBONE|DICT|INTERRES
   225  114  115 1    
   226  114  235 1    
   227  115  116 1    
   228  115  117 1    
   229  115  236 1    
   230  116  237 1    
   231  116  238 1    
   232  116  239 1    
   233  117  118 2    
   234  117  119 am   BACKBONE|DICT|INTERRES
   235  119  120 1    
   236  119  240 1    
   237  120  121 1    
   238  120  124 1    
   239  120  241 1    
   240  121  122 am   BACKBONE|DICT|INTERRES
   241  121  123 2    
   242  122  242 1    
   243  122  243 1    
   244  124  125 1    
   245  124  244 1    
   246  124  245 1    
   247  125  126 1    
   248  126  246 1    
   249  126  247 1    
@<TRIPOS>SUBSTRUCTURE
     1 UNK         1 GROUP             0       ****    0 ROOT    
