@<TRIPOS>MOLECULE
3R540
247   249    1
SMALL
USER_CHARGES


@<TRIPOS>ATOM
      1 CA          6.0494  -15.5805  -47.7392 C.3       0 UNK        -0.1800 
      2 C           4.9394  -14.5812  -47.4512 C.2       0 UNK         0.5000 
      3 O           4.7639  -14.1721  -46.3035 O.2       0 UNK        -0.5000 
      4 N           4.2030  -14.1646  -48.4907 N.am      1 UNK        -0.5000 
      5 CA          3.0298  -13.2770  -48.4245 C.3       1 UNK         0.1400 
      6 C6          2.1738  -13.3497  -49.7146 C.3       23 UNK        -0.0398 
      7 S7          1.2063  -14.8945  -49.8037 S.3       23 UNK        -0.2404 
      8 C8          2.1253  -15.8534  -51.0437 C.3       23 UNK        -0.0205 
      9 C9          1.3309  -17.0757  -51.4780 C.ar      23 UNK        -0.0193 
     10 C10         0.3682  -16.9578  -52.4831 C.ar      23 UNK        -0.1150 
     11 C11        -0.3728  -18.0705  -52.9052 C.ar      23 UNK        -0.0193 
     12 C12        -0.1351  -19.3088  -52.2991 C.ar      23 UNK        -0.1150 
     13 C13         0.8346  -19.4456  -51.3013 C.ar      23 UNK        -0.0193 
     14 C14         1.5637  -18.3229  -50.8942 C.ar      23 UNK        -0.1150 
     15 C15         1.1437  -20.8172  -50.7163 C.3       23 UNK        -0.0205 
     16 S16         1.0080  -20.8558  -48.9014 S.3       23 UNK        -0.2404 
     17 C17        -0.7359  -21.3216  -48.6219 C.3       23 UNK        -0.0398 
     18 CA         -0.8268  -22.4086  -47.5248 C.3       11 UNK         0.1400 
     19 N          -0.4153  -21.9106  -46.2094 N.am      11 UNK        -0.5000 
     20 C          -0.0583  -22.6937  -45.1846 C.2       10 UNK         0.5000 
     21 O          -0.0693  -23.9221  -45.2337 O.2       10 UNK        -0.5000 
     22 CA          0.3402  -21.9964  -43.8739 C.3       10 UNK         0.1400 
     23 CB          1.7477  -21.3906  -43.9808 C.3       10 UNK        -0.1800 
     24 N          -0.6168  -20.9665  -43.4736 N.am      10 UNK        -0.5000 
     25 C          -1.8937  -21.2043  -43.1433 C.2       9 UNK         0.5000 
     26 O          -2.3939  -22.3298  -43.1147 O.2       9 UNK        -0.5000 
     27 CA         -2.7689  -19.9756  -42.8300 C.3       9 UNK         0.1400 
     28 CB         -2.5101  -19.4639  -41.4052 C.3       9 UNK        -0.1800 
     29 N          -2.5786  -18.8845  -43.7875 N.am      9 UNK        -0.5000 
     30 C          -2.8693  -18.9724  -45.0939 C.2       8 UNK         0.5000 
     31 O          -3.3575  -19.9702  -45.6194 O.2       8 UNK        -0.5000 
     32 CA         -2.5040  -17.7679  -45.9767 C.3       8 UNK         0.1400 
     33 CB         -3.5481  -16.6508  -45.8369 C.3       8 UNK        -0.1800 
     34 N          -1.1686  -17.2458  -45.6898 N.am      8 UNK        -0.5000 
     35 C          -0.0380  -17.9551  -45.8187 C.2       7 UNK         0.5000 
     36 O          -0.0036  -19.1164  -46.2182 O.2       7 UNK        -0.5000 
     37 CA          1.2663  -17.2814  -45.3669 C.3       7 UNK         0.1400 
     38 CB          1.7478  -16.2680  -46.4101 C.3       7 UNK        -0.1800 
     39 N           1.1323  -16.6241  -44.0692 N.am      7 UNK        -0.5000 
     40 C           0.8445  -17.2510  -42.9205 C.2       6 UNK         0.5000 
     41 O           0.6941  -18.4680  -42.8194 O.2       6 UNK        -0.5000 
     42 CA          0.6450  -16.3598  -41.6851 C.3       6 UNK         0.1400 
     43 CB          1.9950  -15.9625  -41.0689 C.3       6 UNK        -0.1800 
     44 N          -0.1240  -15.1586  -42.0060 N.am      6 UNK        -0.5000 
     45 C          -1.4297  -15.1572  -42.3075 C.2       5 UNK         0.5000 
     46 O          -2.1333  -16.1683  -42.3174 O.2       5 UNK        -0.5000 
     47 CA         -2.0391  -13.7980  -42.6971 C.3       5 UNK         0.1400 
     48 CB         -2.3750  -12.9730  -41.4457 C.3       5 UNK        -0.1800 
     49 N          -1.1671  -13.0160  -43.5773 N.am      5 UNK        -0.5000 
     50 C          -0.8639  -13.3696  -44.8335 C.2       4 UNK         0.5000 
     51 O          -1.2778  -14.3941  -45.3729 O.2       4 UNK        -0.5000 
     52 CA          0.0812  -12.4414  -45.6158 C.3       4 UNK         0.1400 
     53 CB         -0.6997  -11.2516  -46.1939 C.3       4 UNK        -0.1800 
     54 N           1.2396  -11.9426  -44.8665 N.am      4 UNK        -0.5000 
     55 C           2.1122  -12.6799  -44.1646 C.2       3 UNK         0.5000 
     56 O           1.9715  -13.8829  -43.9424 O.2       3 UNK        -0.5000 
     57 CA          3.3828  -11.9476  -43.7009 C.3       3 UNK         0.1400 
     58 CB          4.2481  -12.7998  -42.7555 C.3       3 UNK        -0.1800 
     59 N           4.1578  -11.6315  -44.8960 N.am      3 UNK        -0.5000 
     60 C           4.3389  -10.4092  -45.4164 C.2       2 UNK         0.5000 
     61 O           3.9988   -9.3680  -44.8543 O.2       2 UNK        -0.5000 
     62 CA          4.9514  -10.3446  -46.8343 C.3       2 UNK         0.1400 
     63 CB          6.4819  -10.2400  -46.7594 C.3       2 UNK        -0.1800 
     64 N           4.5879  -11.5122  -47.6419 N.am      2 UNK        -0.5000 
     65 C           3.3336  -11.8174  -48.0038 C.2       1 UNK         0.5000 
     66 O           2.4099  -11.0057  -47.9427 O.2       1 UNK        -0.5000 
     67 C          -2.2045  -23.1015  -47.4848 C.2       11 UNK         0.5000 
     68 O          -2.4132  -24.0477  -48.2430 O.2       11 UNK        -0.5000 
     69 N          -3.0981  -22.6877  -46.5744 N.am      12 UNK        -0.5000 
     70 CA         -4.3518  -23.3879  -46.2859 C.3       12 UNK         0.1400 
     71 CB         -5.2480  -22.5272  -45.3844 C.3       12 UNK        -0.1800 
     72 C          -4.1264  -24.7813  -45.6731 C.2       12 UNK         0.5000 
     73 O          -4.8313  -25.7223  -46.0389 O.2       12 UNK        -0.5000 
     74 N          -3.1429  -24.8909  -44.7701 N.am      13 UNK        -0.5000 
     75 CA         -2.7518  -26.1450  -44.1303 C.3       13 UNK         0.1400 
     76 CB         -1.9384  -25.8397  -42.8625 C.3       13 UNK        -0.1800 
     77 C          -1.9702  -27.0739  -45.0780 C.2       13 UNK         0.5000 
     78 O          -2.2731  -28.2660  -45.1421 O.2       13 UNK        -0.5000 
     79 N          -0.9717  -26.5197  -45.7795 N.am      14 UNK        -0.5000 
     80 CA         -0.0685  -27.2572  -46.6641 C.3       14 UNK         0.1400 
     81 CB          1.1647  -26.3927  -46.9717 C.3       14 UNK        -0.1800 
     82 C          -0.7408  -27.7224  -47.9668 C.2       14 UNK         0.5000 
     83 O          -0.5511  -28.8734  -48.3596 O.2       14 UNK        -0.5000 
     84 N          -1.5046  -26.8141  -48.5915 N.am      15 UNK        -0.5000 
     85 CA         -2.2392  -26.9435  -49.8517 C.3       15 UNK         0.1400 
     86 CB         -3.5333  -27.7450  -49.6102 C.3       15 UNK        -0.1800 
     87 C          -1.4028  -27.5147  -51.0269 C.2       15 UNK         0.5000 
     88 O          -1.4962  -28.7125  -51.2927 O.2       15 UNK        -0.5000 
     89 N          -0.5896  -26.7316  -51.7595 N.am      16 UNK        -0.5000 
     90 CA         -0.3518  -25.2781  -51.7616 C.3       16 UNK         0.1400 
     91 CB          0.3234  -24.8047  -50.4615 C.3       16 UNK        -0.1800 
     92 C          -1.5857  -24.4433  -52.1695 C.2       16 UNK         0.5000 
     93 O          -1.7791  -23.3318  -51.6735 O.2       16 UNK        -0.5000 
     94 N          -2.4297  -25.0289  -53.0359 N.am      17 UNK        -0.5000 
     95 CA         -3.6704  -24.4784  -53.6111 C.3       17 UNK         0.1400 
     96 CB         -3.3519  -23.2612  -54.5053 C.3       17 UNK        -0.1800 
     97 C          -4.7708  -24.1441  -52.5789 C.2       17 UNK         0.5000 
     98 O          -5.7364  -23.4597  -52.9173 O.2       17 UNK        -0.5000 
     99 N          -4.5797  -24.5833  -51.3260 N.am      18 UNK        -0.5000 
    100 CA        -5.3512  -24.2496  -50.1230 C.3       18 UNK         0.1400 
    101 CB        -6.7490  -24.8970  -50.1843 C.3       18 UNK        -0.1800 
    102 C         -5.4117  -22.7291  -49.8439 C.2       18 UNK         0.5000 
    103 O         -6.3647  -22.2642  -49.2189 O.2       18 UNK        -0.5000 
    104 N         -4.4206  -21.9817  -50.3612 N.am      19 UNK        -0.5000 
    105 CA        -4.3343  -20.5167  -50.4455 C.3       19 UNK         0.1400 
    106 CB        -4.3135  -19.8828  -49.0401 C.3       19 UNK        -0.1800 
    107 C         -5.4162  -19.8561  -51.3346 C.2       19 UNK         0.5000 
    108 O         -5.3900  -18.6358  -51.5011 O.2       19 UNK        -0.5000 
    109 N         -6.3351  -20.6423  -51.9148 N.am      20 UNK        -0.5000 
    110 CA        -7.5271  -20.1793  -52.6313 C.3       20 UNK         0.1400 
    111 CB        -8.4716  -21.3710  -52.8496 C.3       20 UNK        -0.1800 
    112 C         -7.2216  -19.4769  -53.9654 C.2       20 UNK         0.5000 
    113 O         -8.0560  -18.7156  -54.4560 O.2       20 UNK        -0.5000 
    114 N         -6.0257  -19.7245  -54.5138 N.am      21 UNK        -0.5000 
    115 CA        -5.4951  -19.0532  -55.6981 C.3       21 UNK         0.1400 
    116 CB        -4.2659  -19.8300  -56.1966 C.3       21 UNK        -0.1800 
    117 C         -5.1397  -17.5711  -55.4568 C.2       21 UNK         0.5000 
    118 O         -5.0816  -16.8135  -56.4266 O.2       21 UNK        -0.5000 
    119 N         -4.9001  -17.1881  -54.1937 N.am      22 UNK        -0.5000 
    120 CA        -4.4817  -15.8337  -53.7915 C.3       22 UNK         0.1400 
    121 C         -5.4101  -15.1940  -52.7238 C.2       22 UNK         0.5000 
    122 N         -6.0836  -15.9577  -51.8729 N.am      22 UNK        -0.7600 
    123 O         -5.5355  -13.9734  -52.6757 O.2       22 UNK        -0.5000 
    124 C124       -3.0060  -15.8007  -53.3172 C.3       23 UNK        -0.0398 
    125 S125       -1.8436  -16.3309  -54.6216 S.3       23 UNK        -0.2404 
    126 C126       -1.4000  -18.0048  -54.0379 C.3       23 UNK        -0.0205 
    127 H127        6.0968  -15.8411  -48.7968 H         1 UNK         0.0600 
    128 H128        5.8836  -16.4954  -47.1705 H         1 UNK         0.0600 
    129 H129        7.0136  -15.1653  -47.4461 H         1 UNK         0.0600 
    130 H130        4.4255  -14.5139  -49.4113 H         1 UNK         0.3000 
    131 H131        2.4128  -13.6544  -47.6078 H         1 UNK         0.0600 
    132 H132        1.4417  -12.5412  -49.7530 H         1 UNK         0.0800 
    133 H133        2.7946  -13.2284  -50.6034 H         1 UNK         0.0800 
    134 H134        2.3360  -15.2282  -51.9127 H         1 UNK         0.0800 
    135 H135        3.0901  -16.1520  -50.6315 H         1 UNK         0.0800 
    136 H136        0.2153  -15.9887  -52.9338 H         1 UNK         0.1150 
    137 H137       -0.6886  -20.1779  -52.6276 H         1 UNK         0.1150 
    138 H138        2.3182  -18.4237  -50.1265 H         1 UNK         0.1150 
    139 H139        0.5052  -21.5835  -51.1571 H         1 UNK         0.0800 
    140 H140        2.1659  -21.0815  -50.9895 H         1 UNK         0.0800 
    141 H141       -1.1717  -21.6770  -49.5570 H         1 UNK         0.0800 
    142 H142       -1.2924  -20.4289  -48.3351 H         1 UNK         0.0800 
    143 H143       -0.1181  -23.1932  -47.7972 H         1 UNK         0.0600 
    144 H144       -0.3420  -20.8985  -46.1136 H         1 UNK         0.3000 
    145 H145        0.3590  -22.7551  -43.0888 H         1 UNK         0.0600 
    146 H146        2.0690  -20.9718  -43.0271 H         1 UNK         0.0600 
    147 H147        2.4783  -22.1481  -44.2670 H         1 UNK         0.0600 
    148 H148        1.7898  -20.5952  -44.7253 H         1 UNK         0.0600 
    149 H149       -0.2679  -20.0123  -43.4363 H         1 UNK         0.3000 
    150 H150       -3.8126  -20.2909  -42.8907 H         1 UNK         0.0600 
    151 H151       -2.6655  -20.2559  -40.6716 H         1 UNK         0.0600 
    152 H152       -3.1865  -18.6475  -41.1515 H         1 UNK         0.0600 
    153 H153       -1.4895  -19.0999  -41.2853 H         1 UNK         0.0600 
    154 H154       -2.1919  -18.0200  -43.4260 H         1 UNK         0.3000 
    155 H155       -2.5079  -18.1068  -47.0147 H         1 UNK         0.0600 
    156 H156       -3.5510  -16.2255  -44.8326 H         1 UNK         0.0600 
    157 H157       -3.3548  -15.8422  -46.5420 H         1 UNK         0.0600 
    158 H158       -4.5518  -17.0259  -46.0404 H         1 UNK         0.0600 
    159 H159       -1.1155  -16.2752  -45.3910 H         1 UNK         0.3000 
    160 H160        2.0292  -18.0562  -45.2683 H         1 UNK         0.0600 
    161 H161        2.6731  -15.7957  -46.0866 H         1 UNK         0.0600 
    162 H162        1.0128  -15.4813  -46.5798 H         1 UNK         0.0600 
    163 H163        1.9412  -16.7528  -47.3678 H         1 UNK         0.0600 
    164 H164        1.2816  -15.6179  -44.0485 H         1 UNK         0.3000 
    165 H165        0.0883  -16.9349  -40.9420 H         1 UNK         0.0600 
    166 H166        1.8574  -15.3601  -40.1709 H         1 UNK         0.0600 
    167 H167        2.5660  -16.8468  -40.7833 H         1 UNK         0.0600 
    168 H168        2.6068  -15.3904  -41.7669 H         1 UNK         0.0600 
    169 H169        0.3964  -14.2984  -42.0997 H         1 UNK         0.3000 
    170 H170       -2.9702  -13.9956  -43.2327 H         1 UNK         0.0600 
    171 H171       -1.4795  -12.7140  -40.8794 H         1 UNK         0.0600 
    172 H172       -2.8851  -12.0465  -41.7098 H         1 UNK         0.0600 
    173 H173       -3.0362  -13.5281  -40.7789 H         1 UNK         0.0600 
    174 H174       -0.7766  -12.1632  -43.2043 H         1 UNK         0.3000 
    175 H175        0.4707  -13.0204  -46.4539 H         1 UNK         0.0600 
    176 H176       -0.0766  -10.6536  -46.8587 H         1 UNK         0.0600 
    177 H177       -1.0757  -10.5961  -45.4075 H         1 UNK         0.0600 
    178 H178       -1.5570  -11.5919  -46.7764 H         1 UNK         0.0600 
    179 H179        1.4598  -10.9668  -45.0068 H         1 UNK         0.3000 
    180 H180        3.0796  -11.0425  -43.1710 H         1 UNK         0.0600 
    181 H181        4.5742  -13.7262  -43.2309 H         1 UNK         0.0600 
    182 H182        3.6948  -13.0668  -41.8545 H         1 UNK         0.0600 
    183 H183        5.1385  -12.2551  -42.4418 H         1 UNK         0.0600 
    184 H184        4.4412  -12.4405  -45.4435 H         1 UNK         0.3000 
    185 H185        4.5661   -9.4502  -47.3282 H         1 UNK         0.0600 
    186 H186        6.9230  -11.1179  -46.2855 H         1 UNK         0.0600 
    187 H187        6.9194  -10.1383  -47.7527 H         1 UNK         0.0600 
    188 H188        6.7848   -9.3667  -46.1802 H         1 UNK         0.0600 
    189 H189        5.2834  -12.2401  -47.7169 H         1 UNK         0.3000 
    190 H190       -2.9079  -21.8537  -46.0271 H         1 UNK         0.3000 
    191 H191       -4.8826  -23.5354  -47.2237 H         1 UNK         0.0600 
    192 H192       -5.5189  -21.5947  -45.8798 H         1 UNK         0.0600 
    193 H193       -6.1766  -23.0467  -45.1451 H         1 UNK         0.0600 
    194 H194       -4.7574  -22.2788  -44.4435 H         1 UNK         0.0600 
    195 H195       -2.6289  -24.0602  -44.5015 H         1 UNK         0.3000 
    196 H196       -3.6589  -26.6703  -43.8235 H         1 UNK         0.0600 
    197 H197       -1.6505  -26.7595  -42.3522 H         1 UNK         0.0600 
    198 H198       -2.5187  -25.2437  -42.1578 H         1 UNK         0.0600 
    199 H199       -1.0247  -25.2893  -43.0883 H         1 UNK         0.0600 
    200 H200       -0.7537  -25.5363  -45.6258 H         1 UNK         0.3000 
    201 H201        0.2729  -28.1471  -46.1311 H         1 UNK         0.0600 
    202 H202        1.7048  -26.1403  -46.0591 H         1 UNK         0.0600 
    203 H203        0.8913  -25.4594  -47.4644 H         1 UNK         0.0600 
    204 H204        1.8598  -26.9195  -47.6266 H         1 UNK         0.0600 
    205 H205       -1.6006  -25.9030  -48.1564 H         1 UNK         0.3000 
    206 H206       -2.5459  -25.9367  -50.1145 H         1 UNK         0.0600 
    207 H207       -4.1551  -27.2662  -48.8531 H         1 UNK         0.0600 
    208 H208       -4.1277  -27.8157  -50.5219 H         1 UNK         0.0600 
    209 H209       -3.3239  -28.7609  -49.2730 H         1 UNK         0.0600 
    210 H210       -0.0706  -27.2109  -52.4818 H         1 UNK         0.3000 
    211 H211        0.3735  -25.1164  -52.5602 H         1 UNK         0.0600 
    212 H212       -0.3869  -24.6892  -49.6497 H         1 UNK         0.0600 
    213 H213        0.7983  -23.8352  -50.6045 H         1 UNK         0.0600 
    214 H214        1.1000  -25.4977  -50.1379 H         1 UNK         0.0600 
    215 H215       -2.1820  -25.9520  -53.3660 H         1 UNK         0.3000 
    216 H216       -4.0851  -25.2601  -54.2491 H         1 UNK         0.0600 
    217 H217       -4.2353  -22.9381  -55.0571 H         1 UNK         0.0600 
    218 H218       -2.5845  -23.5017  -55.2410 H         1 UNK         0.0600 
    219 H219       -3.0020  -22.4085  -53.9225 H         1 UNK         0.0600 
    220 H220       -3.7316  -25.1007  -51.1631 H         1 UNK         0.3000 
    221 H221       -4.8180  -24.6977  -49.2844 H         1 UNK         0.0600 
    222 H222       -7.3682  -24.4503  -50.9630 H         1 UNK         0.0600 
    223 H223       -6.6788  -25.9664  -50.3828 H         1 UNK         0.0600 
    224 H224       -7.2773  -24.7790  -49.2375 H         1 UNK         0.0600 
    225 H225       -3.6755  -22.4772  -50.8385 H         1 UNK         0.3000 
    226 H226       -3.3755  -20.3034  -50.9204 H         1 UNK         0.0600 
    227 H227       -3.6073  -20.3871  -48.3837 H         1 UNK         0.0600 
    228 H228       -4.0220  -18.8331  -49.0898 H         1 UNK         0.0600 
    229 H229       -5.2917  -19.9243  -48.5604 H         1 UNK         0.0600 
    230 H230       -6.2463  -21.6454  -51.8101 H         1 UNK         0.3000 
    231 H231       -8.0360  -19.4542  -51.9929 H         1 UNK         0.0600 
    232 H232       -8.0250  -22.1240  -53.4997 H         1 UNK         0.0600 
    233 H233       -9.4052  -21.0501  -53.3133 H         1 UNK         0.0600 
    234 H234       -8.7261  -21.8520  -51.9048 H         1 UNK         0.0600 
    235 H235       -5.4200  -20.3833  -54.0475 H         1 UNK         0.3000 
    236 H236       -6.2575  -19.0833  -56.4794 H         1 UNK         0.0600 
    237 H237       -3.8292  -19.3518  -57.0744 H         1 UNK         0.0600 
    238 H238       -3.4884  -19.8896  -55.4347 H         1 UNK         0.0600 
    239 H239       -4.5335  -20.8470  -56.4832 H         1 UNK         0.0600 
    240 H240       -5.0166  -17.8578  -53.4444 H         1 UNK         0.3000 
    241 H241       -4.5516  -15.1678  -54.6538 H         1 UNK         0.0600 
    242 H242       -5.9201  -16.9604  -51.8120 H         1 UNK         0.3800 
    243 H243       -6.6888  -15.5179  -51.1987 H         1 UNK         0.3800 
    244 H244       -2.7231  -14.7881  -53.0241 H         1 UNK         0.0800 
    245 H245       -2.8738  -16.4201  -52.4282 H         1 UNK         0.0800 
    246 H246       -1.0014  -18.5601  -54.8878 H         1 UNK         0.0800 
    247 H247       -2.3093  -18.5236  -53.7320 H         1 UNK         0.0800 
@<TRIPOS>BOND
     1    1    2 1    
     2    1  127 1    
     3    1  128 1    
     4    1  129 1    
     5    2    3 2    
     6    2    4 am   BACKBONE|DICT|INTERRES
     7    4    5 1    
     8    4  130 1    
     9    5    6 1    
    10    5   65 1    
    11    5  131 1    
    12    6    7 1    
    13    6  132 1    
    14    6  133 1    
    15    7    8 1    
    16    8    9 1    
    17    8  134 1    
    18    8  135 1    
    19    9   10 ar   
    20    9   14 ar   
    21   10   11 ar   
    22   10  136 1    
    23   11   12 ar   
    24   11  126 1    
    25   12   13 ar   
    26   12  137 1    
    27   13   14 ar   
    28   13   15 1    
    29   14  138 1    
    30   15   16 1    
    31   15  139 1    
    32   15  140 1    
    33   16   17 1    
    34   17   18 1    
    35   17  141 1    
    36   17  142 1    
    37   18   19 1    
    38   18   67 1    
    39   18  143 1    
    40   19   20 am   BACKBONE|DICT|INTERRES
    41   19  144 1    
    42   20   21 2    
    43   20   22 1    
    44   22   23 1    
    45   22   24 1    
    46   22  145 1    
    47   23  146 1    
    48   23  147 1    
    49   23  148 1    
    50   24   25 am   BACKBONE|DICT|INTERRES
    51   24  149 1    
    52   25   26 2    
    53   25   27 1    
    54   27   28 1    
    55   27   29 1    
    56   27  150 1    
    57   28  151 1    
    58   28  152 1    
    59   28  153 1    
    60   29   30 am   BACKBONE|DICT|INTERRES
    61   29  154 1    
    62   30   31 2    
    63   30   32 1    
    64   32   33 1    
    65   32   34 1    
    66   32  155 1    
    67   33  156 1    
    68   33  157 1    
    69   33  158 1    
    70   34   35 am   BACKBONE|DICT|INTERRES
    71   34  159 1    
    72   35   36 2    
    73   35   37 1    
    74   37   38 1    
    75   37   39 1    
    76   37  160 1    
    77   38  161 1    
    78   38  162 1    
    79   38  163 1    
    80   39   40 am   BACKBONE|DICT|INTERRES
    81   39  164 1    
    82   40   41 2    
    83   40   42 1    
    84   42   43 1    
    85   42   44 1    
    86   42  165 1    
    87   43  166 1    
    88   43  167 1    
    89   43  168 1    
    90   44   45 am   BACKBONE|DICT|INTERRES
    91   44  169 1    
    92   45   46 2    
    93   45   47 1    
    94   47   48 1    
    95   47   49 1    
    96   47  170 1    
    97   48  171 1    
    98   48  172 1    
    99   48  173 1    
   100   49   50 am   BACKBONE|DICT|INTERRES
   101   49  174 1    
   102   50   51 2    
   103   50   52 1    
   104   52   53 1    
   105   52   54 1    
   106   52  175 1    
   107   53  176 1    
   108   53  177 1    
   109   53  178 1    
   110   54   55 am   BACKBONE|DICT|INTERRES
   111   54  179 1    
   112   55   56 2    
   113   55   57 1    
   114   57   58 1    
   115   57   59 1    
   116   57  180 1    
   117   58  181 1    
   118   58  182 1    
   119   58  183 1    
   120   59   60 am   BACKBONE|DICT|INTERRES
   121   59  184 1    
   122   60   61 2    
   123   60   62 1    
   124   62   63 1    
   125   62   64 1    
   126   62  185 1    
   127   63  186 1    
   128   63  187 1    
   129   63  188 1    
   130   64   65 am   BACKBONE|DICT|INTERRES
   131   64  189 1    
   132   65   66 2    
   133   67   68 2    
   134   67   69 am   BACKBONE|DICT|INTERRES
   135   69   70 1    
   136   69  190 1    
   137   70   71 1    
   138   70   72 1    
   139   70  191 1    
   140   71  192 1    
   141   71  193 1    
   142   71  194 1    
   143   72   73 2    
   144   72   74 am   BACKBONE|DICT|INTERRES
   145   74   75 1    
   146   74  195 1    
   147   75   76 1    
   148   75   77 1    
   149   75  196 1    
   150   76  197 1    
   151   76  198 1    
   152   76  199 1    
   153   77   78 2    
   154   77   79 am   BACKBONE|DICT|INTERRES
   155   79   80 1    
   156   79  200 1    
   157   80   81 1    
   158   80   82 1    
   159   80  201 1    
   160   81  202 1    
   161   81  203 1    
   162   81  204 1    
   163   82   83 2    
   164   82   84 am   BACKBONE|DICT|INTERRES
   165   84   85 1    
   166   84  205 1    
   167   85   86 1    
   168   85   87 1    
   169   85  206 1    
   170   86  207 1    
   171   86  208 1    
   172   86  209 1    
   173   87   88 2    
   174   87   89 am   BACKBONE|DICT|INTERRES
   175   89   90 1    
   176   89  210 1    
   177   90   91 1    
   178   90   92 1    
   179   90  211 1    
   180   91  212 1    
   181   91  213 1    
   182   91  214 1    
   183   92   93 2    
   184   92   94 am   BACKBONE|DICT|INTERRES
   185   94   95 1    
   186   94  215 1    
   187   95   96 1    
   188   95   97 1    
   189   95  216 1    
   190   96  217 1    
   191   96  218 1    
   192   96  219 1    
   193   97   98 2    
   194   97   99 am   BACKBONE|DICT|INTERRES
   195   99  100 1    
   196   99  220 1    
   197  100  101 1    
   198  100  102 1    
   199  100  221 1    
   200  101  222 1    
   201  101  223 1    
   202  101  224 1    
   203  102  103 2    
   204  102  104 am   BACKBONE|DICT|INTERRES
   205  104  105 1    
   206  104  225 1    
   207  105  106 1    
   208  105  107 1    
   209  105  226 1    
   210  106  227 1    
   211  106  228 1    
   212  106  229 1    
   213  107  108 2    
   214  107  109 am   BACKBONE|DICT|INTERRES
   215  109  110 1    
   216  109  230 1    
   217  110  111 1    
   218  110  112 1    
   219  110  231 1    
   220  111  232 1    
   221  111  233 1    
   222  111  234 1    
   223  112  113 2    
   224  112  114 am   BACKBONE|DICT|INTERRES
   225  114  115 1    
   226  114  235 1    
   227  115  116 1    
   228  115  117 1    
   229  115  236 1    
   230  116  237 1    
   231  116  238 1    
   232  116  239 1    
   233  117  118 2    
   234  117  119 am   BACKBONE|DICT|INTERRES
   235  119  120 1    
   236  119  240 1    
   237  120  121 1    
   238  120  124 1    
   239  120  241 1    
   240  121  122 am   BACKBONE|DICT|INTERRES
   241  121  123 2    
   242  122  242 1    
   243  122  243 1    
   244  124  125 1    
   245  124  244 1    
   246  124  245 1    
   247  125  126 1    
   248  126  246 1    
   249  126  247 1    
@<TRIPOS>SUBSTRUCTURE
     1 UNK         1 GROUP             0       ****    0 ROOT    
