@<TRIPOS>MOLECULE
3R540
247   249    1
SMALL
USER_CHARGES


@<TRIPOS>ATOM
      1 CA          0.6883  -10.2786  -48.8460 C.3       0 UNK        -0.1800 
      2 C           0.3780  -11.7058  -48.4184 C.2       0 UNK         0.5000 
      3 O           0.6953  -12.0926  -47.2931 O.2       0 UNK        -0.5000 
      4 N          -0.2525  -12.4889  -49.3032 N.am      1 UNK        -0.5000 
      5 CA         -0.6454  -13.8864  -49.0837 C.3       1 UNK         0.1400 
      6 C6         -0.7154  -14.6627  -50.4252 C.3       23 UNK        -0.0398 
      7 S7         -0.5391  -16.4676  -50.2061 S.3       23 UNK        -0.2404 
      8 C8          1.1239  -16.7524  -50.8849 C.3       23 UNK        -0.0205 
      9 C9          1.4411  -18.2365  -50.9921 C.ar      23 UNK        -0.0193 
     10 C10         0.8059  -19.0157  -51.9631 C.ar      23 UNK        -0.1150 
     11 C11         1.1056  -20.3730  -52.0999 C.ar      23 UNK        -0.0193 
     12 C12         2.0504  -20.9527  -51.2465 C.ar      23 UNK        -0.1150 
     13 C13         2.7040  -20.1850  -50.2755 C.ar      23 UNK        -0.0193 
     14 C14         2.3917  -18.8263  -50.1529 C.ar      23 UNK        -0.1150 
     15 C15         3.7831  -20.8202  -49.4013 C.3       23 UNK        -0.0205 
     16 S16         3.5039  -20.6038  -47.6116 S.3       23 UNK        -0.2404 
     17 C17         1.9213  -21.4710  -47.3744 C.3       23 UNK        -0.0398 
     18 CA          2.0474  -22.8243  -46.6339 C.3       11 UNK         0.1400 
     19 N           2.5513  -22.6477  -45.2737 N.am      11 UNK        -0.5000 
     20 C           3.1554  -23.5883  -44.5406 C.2       10 UNK         0.5000 
     21 O           3.4172  -24.7154  -44.9659 O.2       10 UNK        -0.5000 
     22 CA          3.5131  -23.1987  -43.0889 C.3       10 UNK         0.1400 
     23 CB          4.5648  -24.1280  -42.4477 C.3       10 UNK        -0.1800 
     24 N           3.8954  -21.7894  -42.9474 N.am      10 UNK        -0.5000 
     25 C           4.9539  -21.1616  -43.4819 C.2       9 UNK         0.5000 
     26 O           5.8268  -21.7291  -44.1399 O.2       9 UNK        -0.5000 
     27 CA          5.0619  -19.6371  -43.2550 C.3       9 UNK         0.1400 
     28 CB          4.8484  -18.8779  -44.5736 C.3       9 UNK        -0.1800 
     29 N           4.1163  -19.1189  -42.2637 N.am      9 UNK        -0.5000 
     30 C           4.2439  -19.2405  -40.9359 C.2       8 UNK         0.5000 
     31 O           5.2189  -19.7544  -40.3867 O.2       8 UNK        -0.5000 
     32 CA          3.0630  -18.7390  -40.0802 C.3       8 UNK         0.1400 
     33 CB          3.1970  -17.2375  -39.7852 C.3       8 UNK        -0.1800 
     34 N           1.7599  -19.0028  -40.6971 N.am      8 UNK        -0.5000 
     35 C           1.2605  -20.2275  -40.9191 C.2       7 UNK         0.5000 
     36 O           1.8284  -21.2678  -40.5868 O.2       7 UNK        -0.5000 
     37 CA         -0.0682  -20.3114  -41.6894 C.3       7 UNK         0.1400 
     38 CB         -1.2598  -20.0703  -40.7510 C.3       7 UNK        -0.1800 
     39 N          -0.1236  -19.3834  -42.8204 N.am      7 UNK        -0.5000 
     40 C           0.6790  -19.4496  -43.8925 C.2       6 UNK         0.5000 
     41 O           1.5198  -20.3302  -44.0592 O.2       6 UNK        -0.5000 
     42 CA          0.5605  -18.3258  -44.9358 C.3       6 UNK         0.1400 
     43 CB         -0.6229  -18.5762  -45.8752 C.3       6 UNK        -0.1800 
     44 N           0.4228  -17.0065  -44.3305 N.am      6 UNK        -0.5000 
     45 C           1.3343  -16.4219  -43.5434 C.2       5 UNK         0.5000 
     46 O           2.4337  -16.9101  -43.2846 O.2       5 UNK        -0.5000 
     47 CA          0.9116  -15.0975  -42.8874 C.3       5 UNK         0.1400 
     48 CB          1.0541  -13.9238  -43.8691 C.3       5 UNK        -0.1800 
     49 N          -0.4630  -15.1615  -42.3872 N.am      5 UNK        -0.5000 
     50 C          -0.8554  -15.9195  -41.3532 C.2       4 UNK         0.5000 
     51 O          -0.0883  -16.6132  -40.6850 O.2       4 UNK        -0.5000 
     52 CA         -2.3624  -15.9290  -41.0365 C.3       4 UNK         0.1400 
     53 CB         -2.7434  -14.7127  -40.1795 C.3       4 UNK        -0.1800 
     54 N          -3.1922  -15.9520  -42.2429 N.am      4 UNK        -0.5000 
     55 C          -3.2874  -17.0000  -43.0736 C.2       3 UNK         0.5000 
     56 O          -2.7045  -18.0676  -42.8951 O.2       3 UNK        -0.5000 
     57 CA         -4.1366  -16.8062  -44.3446 C.3       3 UNK         0.1400 
     58 CB         -5.6128  -17.1219  -44.0652 C.3       3 UNK        -0.1800 
     59 N          -4.0196  -15.4674  -44.9324 N.am      3 UNK        -0.5000 
     60 C          -2.8719  -14.9453  -45.3833 C.2       2 UNK         0.5000 
     61 O          -1.7808  -15.5092  -45.2789 O.2       2 UNK        -0.5000 
     62 CA         -2.9383  -13.5442  -46.0123 C.3       2 UNK         0.1400 
     63 CB         -2.7226  -12.4661  -44.9393 C.3       2 UNK        -0.1800 
     64 N          -1.9050  -13.4047  -47.0353 N.am      2 UNK        -0.5000 
     65 C          -1.9437  -13.9766  -48.2445 C.2       1 UNK         0.5000 
     66 O          -2.9497  -14.5269  -48.6965 O.2       1 UNK        -0.5000 
     67 C           0.6613  -23.4974  -46.6057 C.2       11 UNK         0.5000 
     68 O          -0.1092  -23.2912  -45.6642 O.2       11 UNK        -0.5000 
     69 N           0.3196  -24.1939  -47.7005 N.am      12 UNK        -0.5000 
     70 CA         -1.0345  -24.6912  -47.9820 C.3       12 UNK         0.1400 
     71 CB         -0.9965  -25.5828  -49.2317 C.3       12 UNK        -0.1800 
     72 C          -2.0634  -23.5567  -48.1704 C.2       12 UNK         0.5000 
     73 O          -3.2524  -23.7575  -47.9191 O.2       12 UNK        -0.5000 
     74 N          -1.5738  -22.3693  -48.5576 N.am      13 UNK        -0.5000 
     75 CA         -2.2979  -21.1060  -48.7195 C.3       13 UNK         0.1400 
     76 CB         -1.2948  -20.0254  -49.1447 C.3       13 UNK        -0.1800 
     77 C          -3.1131  -20.6423  -47.4948 C.2       13 UNK         0.5000 
     78 O          -4.0314  -19.8392  -47.6541 O.2       13 UNK        -0.5000 
     79 N          -2.8123  -21.1878  -46.3068 N.am      14 UNK        -0.5000 
     80 CA         -3.6027  -21.0225  -45.0858 C.3       14 UNK         0.1400 
     81 CB         -2.8855  -21.7405  -43.9353 C.3       14 UNK        -0.1800 
     82 C          -5.0495  -21.5411  -45.2269 C.2       14 UNK         0.5000 
     83 O          -5.9491  -20.9989  -44.5845 O.2       14 UNK        -0.5000 
     84 N          -5.2430  -22.5567  -46.0803 N.am      15 UNK        -0.5000 
     85 CA         -6.5452  -23.0922  -46.4706 C.3       15 UNK         0.1400 
     86 CB         -6.5725  -24.6007  -46.1790 C.3       15 UNK        -0.1800 
     87 C          -6.8341  -22.8303  -47.9597 C.2       15 UNK         0.5000 
     88 O          -7.9812  -22.5514  -48.3093 O.2       15 UNK        -0.5000 
     89 N          -5.8048  -22.9336  -48.8137 N.am      16 UNK        -0.5000 
     90 CA         -5.9254  -22.8598  -50.2725 C.3       16 UNK         0.1400 
     91 CB         -4.7368  -23.5969  -50.9110 C.3       16 UNK        -0.1800 
     92 C          -6.0525  -21.4320  -50.8420 C.2       16 UNK         0.5000 
     93 O          -6.3566  -21.3039  -52.0258 O.2       16 UNK        -0.5000 
     94 N          -5.8332  -20.4008  -50.0137 N.am      17 UNK        -0.5000 
     95 CA         -5.8268  -18.9737  -50.3558 C.3       17 UNK         0.1400 
     96 CB         -7.1940  -18.5126  -50.9122 C.3       17 UNK        -0.1800 
     97 C          -4.6131  -18.5716  -51.2256 C.2       17 UNK         0.5000 
     98 O          -3.5621  -19.2006  -51.1232 O.2       17 UNK        -0.5000 
     99 N          -4.7513  -17.4851  -51.9983 N.am      18 UNK        -0.5000 
    100 CA        -3.6801  -16.8059  -52.7352 C.3       18 UNK         0.1400 
    101 CB        -4.2742  -15.5466  -53.3873 C.3       18 UNK        -0.1800 
    102 C         -2.9612  -17.6660  -53.7957 C.2       18 UNK         0.5000 
    103 O         -3.4891  -18.6928  -54.2311 O.2       18 UNK        -0.5000 
    104 N         -1.7934  -17.1796  -54.2466 N.am      19 UNK        -0.5000 
    105 CA        -0.8886  -17.7706  -55.2462 C.3       19 UNK         0.1400 
    106 CB         0.4593  -17.0275  -55.1853 C.3       19 UNK        -0.1800 
    107 C         -1.4554  -17.8283  -56.6868 C.2       19 UNK         0.5000 
    108 O         -0.7916  -17.4307  -57.6459 O.2       19 UNK        -0.5000 
    109 N         -2.6780  -18.3406  -56.7999 N.am      20 UNK        -0.5000 
    110 CA        -3.4474  -18.6020  -58.0115 C.3       20 UNK         0.1400 
    111 CB        -4.0219  -17.2931  -58.5816 C.3       20 UNK        -0.1800 
    112 C         -4.5676  -19.6092  -57.6987 C.2       20 UNK         0.5000 
    113 O         -4.9161  -20.4172  -58.5595 O.2       20 UNK        -0.5000 
    114 N         -5.0897  -19.5626  -56.4635 N.am      21 UNK        -0.5000 
    115 CA        -6.0385  -20.5239  -55.9085 C.3       21 UNK         0.1400 
    116 CB        -6.8556  -19.8217  -54.8153 C.3       21 UNK        -0.1800 
    117 C         -5.3416  -21.7907  -55.3669 C.2       21 UNK         0.5000 
    118 O         -5.9915  -22.8348  -55.2909 O.2       21 UNK        -0.5000 
    119 N         -4.0413  -21.6915  -55.0390 N.am      22 UNK        -0.5000 
    120 CA        -3.1381  -22.8097  -54.7083 C.3       22 UNK         0.1400 
    121 C         -3.1801  -23.9624  -55.7551 C.2       22 UNK         0.5000 
    122 N         -3.2534  -25.2111  -55.3140 N.am      22 UNK        -0.7600 
    123 O         -3.0919  -23.7342  -56.9597 O.2       22 UNK        -0.5000 
    124 C124       -1.6693  -22.3338  -54.5534 C.3       23 UNK        -0.0398 
    125 S125       -1.3500  -21.3220  -53.0715 S.3       23 UNK        -0.2404 
    126 C126        0.4640  -21.1931  -53.2123 C.3       23 UNK        -0.0205 
    127 H127        0.3499  -10.0767  -49.8625 H         1 UNK         0.0600 
    128 H128        1.7627  -10.1000  -48.8033 H         1 UNK         0.0600 
    129 H129        0.1973   -9.5719  -48.1770 H         1 UNK         0.0600 
    130 H130       -0.5200  -12.0973  -50.1952 H         1 UNK         0.3000 
    131 H131        0.1404  -14.3530  -48.4847 H         1 UNK         0.0600 
    132 H132       -1.6443  -14.4546  -50.9588 H         1 UNK         0.0800 
    133 H133        0.0801  -14.3225  -51.0894 H         1 UNK         0.0800 
    134 H134        1.8579  -16.2440  -50.2578 H         1 UNK         0.0800 
    135 H135        1.1973  -16.3026  -51.8756 H         1 UNK         0.0800 
    136 H136        0.0695  -18.5656  -52.6110 H         1 UNK         0.1150 
    137 H137        2.2999  -21.9984  -51.3589 H         1 UNK         0.1150 
    138 H138        2.8995  -18.2275  -49.4100 H         1 UNK         0.1150 
    139 H139        3.8764  -21.8867  -49.6121 H         1 UNK         0.0800 
    140 H140        4.7443  -20.3739  -49.6590 H         1 UNK         0.0800 
    141 H141        1.4526  -21.6099  -48.3486 H         1 UNK         0.0800 
    142 H142        1.2675  -20.7988  -46.8205 H         1 UNK         0.0800 
    143 H143        2.7369  -23.4651  -47.1878 H         1 UNK         0.0600 
    144 H144        2.3083  -21.7670  -44.8233 H         1 UNK         0.3000 
    145 H145        2.5904  -23.3116  -42.5181 H         1 UNK         0.0600 
    146 H146        4.7841  -23.8263  -41.4235 H         1 UNK         0.0600 
    147 H147        4.2058  -25.1571  -42.4118 H         1 UNK         0.0600 
    148 H148        5.5012  -24.1294  -43.0060 H         1 UNK         0.0600 
    149 H149        3.2283  -21.2169  -42.4466 H         1 UNK         0.3000 
    150 H150        6.0764  -19.4326  -42.9070 H         1 UNK         0.0600 
    151 H151        5.5477  -19.2133  -45.3405 H         1 UNK         0.0600 
    152 H152        4.9991  -17.8065  -44.4415 H         1 UNK         0.0600 
    153 H153        3.8405  -19.0276  -44.9610 H         1 UNK         0.0600 
    154 H154        3.3127  -18.6166  -42.6280 H         1 UNK         0.3000 
    155 H155        3.0947  -19.2741  -39.1289 H         1 UNK         0.0600 
    156 H156        4.1454  -17.0196  -39.2927 H         1 UNK         0.0600 
    157 H157        2.4005  -16.8933  -39.1253 H         1 UNK         0.0600 
    158 H158        3.1558  -16.6411  -40.6966 H         1 UNK         0.0600 
    159 H159        1.2092  -18.1936  -40.9652 H         1 UNK         0.3000 
    160 H160       -0.1518  -21.3250  -42.0869 H         1 UNK         0.0600 
    161 H161       -1.2555  -19.0593  -40.3441 H         1 UNK         0.0600 
    162 H162       -1.2404  -20.7635  -39.9093 H         1 UNK         0.0600 
    163 H163       -2.2068  -20.2172  -41.2693 H         1 UNK         0.0600 
    164 H164       -0.8471  -18.6716  -42.7881 H         1 UNK         0.3000 
    165 H165        1.4754  -18.3292  -45.5318 H         1 UNK         0.0600 
    166 H166       -0.6177  -17.8829  -46.7169 H         1 UNK         0.0600 
    167 H167       -0.5839  -19.5857  -46.2758 H         1 UNK         0.0600 
    168 H168       -1.5766  -18.4712  -45.3599 H         1 UNK         0.0600 
    169 H169       -0.4390  -16.5036  -44.5332 H         1 UNK         0.3000 
    170 H170        1.5757  -14.9155  -42.0398 H         1 UNK         0.0600 
    171 H171        2.0827  -13.8350  -44.2207 H         1 UNK         0.0600 
    172 H172        0.4206  -14.0465  -44.7480 H         1 UNK         0.0600 
    173 H173        0.7905  -12.9782  -43.3954 H         1 UNK         0.0600 
    174 H174       -1.1632  -14.6676  -42.9191 H         1 UNK         0.3000 
    175 H175       -2.5749  -16.8313  -40.4592 H         1 UNK         0.0600 
    176 H176       -2.1503  -14.6796  -39.2645 H         1 UNK         0.0600 
    177 H177       -2.5790  -13.7749  -40.7116 H         1 UNK         0.0600 
    178 H178       -3.7921  -14.7520  -39.8841 H         1 UNK         0.0600 
    179 H179       -3.7038  -15.1112  -42.4656 H         1 UNK         0.3000 
    180 H180       -3.7782  -17.5191  -45.0897 H         1 UNK         0.0600 
    181 H181       -5.7245  -18.1245  -43.6495 H         1 UNK         0.0600 
    182 H182       -6.0488  -16.4197  -43.3536 H         1 UNK         0.0600 
    183 H183       -6.2038  -17.0859  -44.9805 H         1 UNK         0.0600 
    184 H184       -4.8760  -14.9422  -45.0357 H         1 UNK         0.3000 
    185 H185       -3.9187  -13.4007  -46.4713 H         1 UNK         0.0600 
    186 H186       -3.4864  -12.5261  -44.1630 H         1 UNK         0.0600 
    187 H187       -1.7510  -12.5670  -44.4541 H         1 UNK         0.0600 
    188 H188       -2.7772  -11.4664  -45.3707 H         1 UNK         0.0600 
    189 H189       -1.0326  -12.9714  -46.7519 H         1 UNK         0.3000 
    190 H190        1.0065  -24.3405  -48.4267 H         1 UNK         0.3000 
    191 H191       -1.3608  -25.2955  -47.1330 H         1 UNK         0.0600 
    192 H192       -0.6629  -25.0311  -50.1116 H         1 UNK         0.0600 
    193 H193       -1.9860  -25.9856  -49.4535 H         1 UNK         0.0600 
    194 H194       -0.3262  -26.4310  -49.0915 H         1 UNK         0.0600 
    195 H195       -0.5911  -22.3323  -48.7751 H         1 UNK         0.3000 
    196 H196       -3.0118  -21.2431  -49.5315 H         1 UNK         0.0600 
    197 H197       -0.9606  -20.2023  -50.1648 H         1 UNK         0.0600 
    198 H198       -0.4134  -19.9925  -48.5079 H         1 UNK         0.0600 
    199 H199       -1.7474  -19.0333  -49.1285 H         1 UNK         0.0600 
    200 H200       -2.0464  -21.8460  -46.2575 H         1 UNK         0.3000 
    201 H201       -3.6483  -19.9570  -44.8553 H         1 UNK         0.0600 
    202 H202       -3.4076  -21.5835  -42.9908 H         1 UNK         0.0600 
    203 H203       -2.8248  -22.8160  -44.1066 H         1 UNK         0.0600 
    204 H204       -1.8702  -21.3667  -43.8153 H         1 UNK         0.0600 
    205 H205       -4.4382  -22.9381  -46.5662 H         1 UNK         0.3000 
    206 H206       -7.3442  -22.6211  -45.8945 H         1 UNK         0.0600 
    207 H207       -6.4294  -24.7972  -45.1164 H         1 UNK         0.0600 
    208 H208       -7.5303  -25.0375  -46.4648 H         1 UNK         0.0600 
    209 H209       -5.7915  -25.1315  -46.7253 H         1 UNK         0.0600 
    210 H210       -4.8926  -23.2084  -48.4582 H         1 UNK         0.3000 
    211 H211       -6.8325  -23.3955  -50.5607 H         1 UNK         0.0600 
    212 H212       -4.8903  -23.7074  -51.9844 H         1 UNK         0.0600 
    213 H213       -4.6200  -24.5989  -50.4978 H         1 UNK         0.0600 
    214 H214       -3.7985  -23.0615  -50.7678 H         1 UNK         0.0600 
    215 H215       -5.5323  -20.6058  -49.0698 H         1 UNK         0.3000 
    216 H216       -5.6821  -18.4565  -49.4065 H         1 UNK         0.0600 
    217 H217       -7.2696  -17.4251  -50.9290 H         1 UNK         0.0600 
    218 H218       -8.0114  -18.8758  -50.2890 H         1 UNK         0.0600 
    219 H219       -7.3671  -18.8712  -51.9267 H         1 UNK         0.0600 
    220 H220       -5.6590  -17.0477  -52.0397 H         1 UNK         0.3000 
    221 H221       -2.9339  -16.4986  -52.0014 H         1 UNK         0.0600 
    222 H222       -5.0457  -15.7996  -54.1158 H         1 UNK         0.0600 
    223 H223       -4.7197  -14.8884  -52.6409 H         1 UNK         0.0600 
    224 H224       -3.5105  -14.9671  -53.9075 H         1 UNK         0.0600 
    225 H225       -1.4786  -16.3008  -53.8634 H         1 UNK         0.3000 
    226 H226       -0.7089  -18.8052  -54.9493 H         1 UNK         0.0600 
    227 H227        0.3547  -15.9843  -55.4857 H         1 UNK         0.0600 
    228 H228        0.8846  -17.0439  -54.1833 H         1 UNK         0.0600 
    229 H229        1.1924  -17.4889  -55.8482 H         1 UNK         0.0600 
    230 H230       -3.1043  -18.6354  -55.9248 H         1 UNK         0.3000 
    231 H231       -2.7870  -19.0566  -58.7527 H         1 UNK         0.0600 
    232 H232       -3.2286  -16.6040  -58.8714 H         1 UNK         0.0600 
    233 H233       -4.6581  -16.7853  -57.8559 H         1 UNK         0.0600 
    234 H234       -4.6237  -17.4862  -59.4705 H         1 UNK         0.0600 
    235 H235       -4.7506  -18.8755  -55.8028 H         1 UNK         0.3000 
    236 H236       -6.7279  -20.8380  -56.6951 H         1 UNK         0.0600 
    237 H237       -7.4067  -18.9714  -55.2170 H         1 UNK         0.0600 
    238 H238       -7.5836  -20.5025  -54.3728 H         1 UNK         0.0600 
    239 H239       -6.2136  -19.4568  -54.0130 H         1 UNK         0.0600 
    240 H240       -3.6241  -20.7714  -55.0336 H         1 UNK         0.3000 
    241 H241       -3.4706  -23.2107  -53.7509 H         1 UNK         0.0600 
    242 H242       -3.3174  -25.4241  -54.3307 H         1 UNK         0.3800 
    243 H243       -3.2636  -25.9654  -55.9830 H         1 UNK         0.3800 
    244 H244       -0.9996  -23.1943  -54.4915 H         1 UNK         0.0800 
    245 H245       -1.3578  -21.7725  -55.4364 H         1 UNK         0.0800 
    246 H246        0.8866  -22.1988  -53.2308 H         1 UNK         0.0800 
    247 H247        0.7177  -20.7374  -54.1702 H         1 UNK         0.0800 
@<TRIPOS>BOND
     1    1    2 1    
     2    1  127 1    
     3    1  128 1    
     4    1  129 1    
     5    2    3 2    
     6    2    4 am   BACKBONE|DICT|INTERRES
     7    4    5 1    
     8    4  130 1    
     9    5    6 1    
    10    5   65 1    
    11    5  131 1    
    12    6    7 1    
    13    6  132 1    
    14    6  133 1    
    15    7    8 1    
    16    8    9 1    
    17    8  134 1    
    18    8  135 1    
    19    9   10 ar   
    20    9   14 ar   
    21   10   11 ar   
    22   10  136 1    
    23   11   12 ar   
    24   11  126 1    
    25   12   13 ar   
    26   12  137 1    
    27   13   14 ar   
    28   13   15 1    
    29   14  138 1    
    30   15   16 1    
    31   15  139 1    
    32   15  140 1    
    33   16   17 1    
    34   17   18 1    
    35   17  141 1    
    36   17  142 1    
    37   18   19 1    
    38   18   67 1    
    39   18  143 1    
    40   19   20 am   BACKBONE|DICT|INTERRES
    41   19  144 1    
    42   20   21 2    
    43   20   22 1    
    44   22   23 1    
    45   22   24 1    
    46   22  145 1    
    47   23  146 1    
    48   23  147 1    
    49   23  148 1    
    50   24   25 am   BACKBONE|DICT|INTERRES
    51   24  149 1    
    52   25   26 2    
    53   25   27 1    
    54   27   28 1    
    55   27   29 1    
    56   27  150 1    
    57   28  151 1    
    58   28  152 1    
    59   28  153 1    
    60   29   30 am   BACKBONE|DICT|INTERRES
    61   29  154 1    
    62   30   31 2    
    63   30   32 1    
    64   32   33 1    
    65   32   34 1    
    66   32  155 1    
    67   33  156 1    
    68   33  157 1    
    69   33  158 1    
    70   34   35 am   BACKBONE|DICT|INTERRES
    71   34  159 1    
    72   35   36 2    
    73   35   37 1    
    74   37   38 1    
    75   37   39 1    
    76   37  160 1    
    77   38  161 1    
    78   38  162 1    
    79   38  163 1    
    80   39   40 am   BACKBONE|DICT|INTERRES
    81   39  164 1    
    82   40   41 2    
    83   40   42 1    
    84   42   43 1    
    85   42   44 1    
    86   42  165 1    
    87   43  166 1    
    88   43  167 1    
    89   43  168 1    
    90   44   45 am   BACKBONE|DICT|INTERRES
    91   44  169 1    
    92   45   46 2    
    93   45   47 1    
    94   47   48 1    
    95   47   49 1    
    96   47  170 1    
    97   48  171 1    
    98   48  172 1    
    99   48  173 1    
   100   49   50 am   BACKBONE|DICT|INTERRES
   101   49  174 1    
   102   50   51 2    
   103   50   52 1    
   104   52   53 1    
   105   52   54 1    
   106   52  175 1    
   107   53  176 1    
   108   53  177 1    
   109   53  178 1    
   110   54   55 am   BACKBONE|DICT|INTERRES
   111   54  179 1    
   112   55   56 2    
   113   55   57 1    
   114   57   58 1    
   115   57   59 1    
   116   57  180 1    
   117   58  181 1    
   118   58  182 1    
   119   58  183 1    
   120   59   60 am   BACKBONE|DICT|INTERRES
   121   59  184 1    
   122   60   61 2    
   123   60   62 1    
   124   62   63 1    
   125   62   64 1    
   126   62  185 1    
   127   63  186 1    
   128   63  187 1    
   129   63  188 1    
   130   64   65 am   BACKBONE|DICT|INTERRES
   131   64  189 1    
   132   65   66 2    
   133   67   68 2    
   134   67   69 am   BACKBONE|DICT|INTERRES
   135   69   70 1    
   136   69  190 1    
   137   70   71 1    
   138   70   72 1    
   139   70  191 1    
   140   71  192 1    
   141   71  193 1    
   142   71  194 1    
   143   72   73 2    
   144   72   74 am   BACKBONE|DICT|INTERRES
   145   74   75 1    
   146   74  195 1    
   147   75   76 1    
   148   75   77 1    
   149   75  196 1    
   150   76  197 1    
   151   76  198 1    
   152   76  199 1    
   153   77   78 2    
   154   77   79 am   BACKBONE|DICT|INTERRES
   155   79   80 1    
   156   79  200 1    
   157   80   81 1    
   158   80   82 1    
   159   80  201 1    
   160   81  202 1    
   161   81  203 1    
   162   81  204 1    
   163   82   83 2    
   164   82   84 am   BACKBONE|DICT|INTERRES
   165   84   85 1    
   166   84  205 1    
   167   85   86 1    
   168   85   87 1    
   169   85  206 1    
   170   86  207 1    
   171   86  208 1    
   172   86  209 1    
   173   87   88 2    
   174   87   89 am   BACKBONE|DICT|INTERRES
   175   89   90 1    
   176   89  210 1    
   177   90   91 1    
   178   90   92 1    
   179   90  211 1    
   180   91  212 1    
   181   91  213 1    
   182   91  214 1    
   183   92   93 2    
   184   92   94 am   BACKBONE|DICT|INTERRES
   185   94   95 1    
   186   94  215 1    
   187   95   96 1    
   188   95   97 1    
   189   95  216 1    
   190   96  217 1    
   191   96  218 1    
   192   96  219 1    
   193   97   98 2    
   194   97   99 am   BACKBONE|DICT|INTERRES
   195   99  100 1    
   196   99  220 1    
   197  100  101 1    
   198  100  102 1    
   199  100  221 1    
   200  101  222 1    
   201  101  223 1    
   202  101  224 1    
   203  102  103 2    
   204  102  104 am   BACKBONE|DICT|INTERRES
   205  104  105 1    
   206  104  225 1    
   207  105  106 1    
   208  105  107 1    
   209  105  226 1    
   210  106  227 1    
   211  106  228 1    
   212  106  229 1    
   213  107  108 2    
   214  107  109 am   BACKBONE|DICT|INTERRES
   215  109  110 1    
   216  109  230 1    
   217  110  111 1    
   218  110  112 1    
   219  110  231 1    
   220  111  232 1    
   221  111  233 1    
   222  111  234 1    
   223  112  113 2    
   224  112  114 am   BACKBONE|DICT|INTERRES
   225  114  115 1    
   226  114  235 1    
   227  115  116 1    
   228  115  117 1    
   229  115  236 1    
   230  116  237 1    
   231  116  238 1    
   232  116  239 1    
   233  117  118 2    
   234  117  119 am   BACKBONE|DICT|INTERRES
   235  119  120 1    
   236  119  240 1    
   237  120  121 1    
   238  120  124 1    
   239  120  241 1    
   240  121  122 am   BACKBONE|DICT|INTERRES
   241  121  123 2    
   242  122  242 1    
   243  122  243 1    
   244  124  125 1    
   245  124  244 1    
   246  124  245 1    
   247  125  126 1    
   248  126  246 1    
   249  126  247 1    
@<TRIPOS>SUBSTRUCTURE
     1 UNK         1 GROUP             0       ****    0 ROOT    
