@<TRIPOS>MOLECULE
3R540
247   249    1
SMALL
USER_CHARGES


@<TRIPOS>ATOM
      1 CA         -3.5379  -11.6833  -48.0256 C.3       0 UNK        -0.1800 
      2 C          -3.0133  -12.9675  -47.4026 C.2       0 UNK         0.5000 
      3 O          -3.3814  -13.2936  -46.2737 O.2       0 UNK        -0.5000 
      4 N          -2.1716  -13.7078  -48.1378 N.am      1 UNK        -0.5000 
      5 CA         -1.4925  -14.9415  -47.7091 C.3       1 UNK         0.1400 
      6 C6         -0.5721  -15.5116  -48.8147 C.3       23 UNK        -0.0398 
      7 S7          0.6711  -14.3231  -49.4337 S.3       23 UNK        -0.2404 
      8 C8          2.2413  -15.2149  -49.1766 C.3       23 UNK        -0.0205 
      9 C9          2.3275  -16.4863  -50.0079 C.ar      23 UNK        -0.0193 
     10 C10         2.6891  -16.4336  -51.3566 C.ar      23 UNK        -0.1150 
     11 C11         2.7633  -17.6071  -52.1124 C.ar      23 UNK        -0.0193 
     12 C12         2.4620  -18.8334  -51.5131 C.ar      23 UNK        -0.1150 
     13 C13         2.1133  -18.9056  -50.1620 C.ar      23 UNK        -0.0193 
     14 C14         2.0550  -17.7223  -49.4173 C.ar      23 UNK        -0.1150 
     15 C15         1.7905  -20.2726  -49.5599 C.3       23 UNK        -0.0205 
     16 S16         2.0853  -20.4248  -47.7684 S.3       23 UNK        -0.2404 
     17 C17         0.4888  -19.8425  -47.0910 C.3       23 UNK        -0.0398 
     18 CA         -0.4558  -21.0182  -46.7549 C.3       11 UNK         0.1400 
     19 N           0.1693  -21.9869  -45.8515 N.am      11 UNK        -0.5000 
     20 C          -0.3165  -23.2056  -45.5807 C.2       10 UNK         0.5000 
     21 O          -1.3695  -23.6364  -46.0457 O.2       10 UNK        -0.5000 
     22 CA          0.4804  -24.0760  -44.5910 C.3       10 UNK         0.1400 
     23 CB          1.4853  -24.9530  -45.3522 C.3       10 UNK        -0.1800 
     24 N           1.1969  -23.3100  -43.5707 N.am      10 UNK        -0.5000 
     25 C           0.6684  -22.4028  -42.7352 C.2       9 UNK         0.5000 
     26 O          -0.5335  -22.1369  -42.6795 O.2       9 UNK        -0.5000 
     27 CA          1.6707  -21.6066  -41.8750 C.3       9 UNK         0.1400 
     28 CB          1.8277  -22.2571  -40.4933 C.3       9 UNK        -0.1800 
     29 N           2.9932  -21.4680  -42.5021 N.am      9 UNK        -0.5000 
     30 C           3.2153  -20.8536  -43.6726 C.2       8 UNK         0.5000 
     31 O           2.3230  -20.3277  -44.3408 O.2       8 UNK        -0.5000 
     32 CA          4.6514  -20.9050  -44.2235 C.3       8 UNK         0.1400 
     33 CB          4.8442  -22.1723  -45.0713 C.3       8 UNK        -0.1800 
     34 N           4.9285  -19.7368  -45.0570 N.am      8 UNK        -0.5000 
     35 C           5.1616  -18.5095  -44.5785 C.2       7 UNK         0.5000 
     36 O           5.3051  -18.2685  -43.3774 O.2       7 UNK        -0.5000 
     37 CA          5.1989  -17.3425  -45.5808 C.3       7 UNK         0.1400 
     38 CB          4.8991  -17.7509  -47.0419 C.3       7 UNK        -0.1800 
     39 N           4.2183  -16.3803  -45.0992 N.am      7 UNK        -0.5000 
     40 C           3.9983  -15.1359  -45.5304 C.2       6 UNK         0.5000 
     41 O           4.6730  -14.5821  -46.3997 O.2       6 UNK        -0.5000 
     42 CA          2.8298  -14.3828  -44.8517 C.3       6 UNK         0.1400 
     43 CB          2.1445  -13.3598  -45.7803 C.3       6 UNK        -0.1800 
     44 N           1.8176  -15.2500  -44.2311 N.am      6 UNK        -0.5000 
     45 C           1.0845  -16.2139  -44.8105 C.2       5 UNK         0.5000 
     46 O           1.2091  -16.5697  -45.9806 O.2       5 UNK        -0.5000 
     47 CA         -0.0072  -16.8564  -43.9380 C.3       5 UNK         0.1400 
     48 CB          0.5644  -17.5650  -42.6922 C.3       5 UNK        -0.1800 
     49 N          -1.0562  -15.8820  -43.6129 N.am      5 UNK        -0.5000 
     50 C          -0.9700  -14.8098  -42.8109 C.2       4 UNK         0.5000 
     51 O          -0.0052  -14.5778  -42.0804 O.2       4 UNK        -0.5000 
     52 CA         -2.1131  -13.7811  -42.8705 C.3       4 UNK         0.1400 
     53 CB         -1.6070  -12.4745  -43.5046 C.3       4 UNK        -0.1800 
     54 N          -3.2800  -14.2333  -43.6286 N.am      4 UNK        -0.5000 
     55 C          -4.2816  -14.9623  -43.1210 C.2       3 UNK         0.5000 
     56 O          -4.2778  -15.4283  -41.9815 O.2       3 UNK        -0.5000 
     57 CA         -5.4945  -15.1988  -44.0335 C.3       3 UNK         0.1400 
     58 CB         -6.3680  -13.9358  -44.1038 C.3       3 UNK        -0.1800 
     59 N          -5.0781  -15.5654  -45.3866 N.am      3 UNK        -0.5000 
     60 C          -5.2727  -16.7696  -45.9406 C.2       2 UNK         0.5000 
     61 O          -5.8471  -17.6944  -45.3680 O.2       2 UNK        -0.5000 
     62 CA         -4.7537  -16.9876  -47.3786 C.3       2 UNK         0.1400 
     63 CB         -5.9029  -16.8563  -48.3913 C.3       2 UNK        -0.1800 
     64 N          -3.6820  -16.0707  -47.7706 N.am      2 UNK        -0.5000 
     65 C          -2.4586  -16.0466  -47.2246 C.2       1 UNK         0.5000 
     66 O          -2.0965  -16.8276  -46.3481 O.2       1 UNK        -0.5000 
     67 C          -1.8145  -20.5126  -46.2261 C.2       11 UNK         0.5000 
     68 O          -2.7036  -20.2368  -47.0313 O.2       11 UNK        -0.5000 
     69 N          -1.9582  -20.4427  -44.8942 N.am      12 UNK        -0.5000 
     70 CA         -3.2125  -20.1203  -44.2183 C.3       12 UNK         0.1400 
     71 CB         -2.9185  -19.3036  -42.9515 C.3       12 UNK        -0.1800 
     72 C          -4.0102  -21.3895  -43.8711 C.2       12 UNK         0.5000 
     73 O          -5.2350  -21.3816  -43.9865 O.2       12 UNK        -0.5000 
     74 N          -3.3210  -22.4596  -43.4461 N.am      13 UNK        -0.5000 
     75 CA         -3.9457  -23.7152  -43.0168 C.3       13 UNK         0.1400 
     76 CB         -2.9085  -24.5948  -42.3051 C.3       13 UNK        -0.1800 
     77 C          -4.6264  -24.4908  -44.1614 C.2       13 UNK         0.5000 
     78 O          -5.6831  -25.0830  -43.9403 O.2       13 UNK        -0.5000 
     79 N          -4.0308  -24.4528  -45.3600 N.am      14 UNK        -0.5000 
     80 CA         -4.5593  -25.0437  -46.5905 C.3       14 UNK         0.1400 
     81 CB         -3.5209  -26.0170  -47.1753 C.3       14 UNK        -0.1800 
     82 C          -4.9811  -23.9433  -47.5836 C.2       14 UNK         0.5000 
     83 O          -4.8374  -24.1047  -48.7984 O.2       14 UNK        -0.5000 
     84 N          -5.5044  -22.8319  -47.0507 N.am      15 UNK        -0.5000 
     85 CA         -6.1138  -21.7548  -47.8239 C.3       15 UNK         0.1400 
     86 CB         -6.3361  -20.5488  -46.9042 C.3       15 UNK        -0.1800 
     87 C          -7.4605  -22.1942  -48.4450 C.2       15 UNK         0.5000 
     88 O          -8.1437  -23.0388  -47.8644 O.2       15 UNK        -0.5000 
     89 N          -7.8893  -21.6192  -49.5770 N.am      16 UNK        -0.5000 
     90 CA         -7.1661  -20.6531  -50.4093 C.3       16 UNK         0.1400 
     91 CB         -8.1842  -19.8617  -51.2432 C.3       16 UNK        -0.1800 
     92 C          -6.1301  -21.3165  -51.3353 C.2       16 UNK         0.5000 
     93 O          -5.2570  -20.6147  -51.8380 O.2       16 UNK        -0.5000 
     94 N          -6.2410  -22.6370  -51.5407 N.am      17 UNK        -0.5000 
     95 CA         -5.4854  -23.4356  -52.5104 C.3       17 UNK         0.1400 
     96 CB         -5.8750  -24.9139  -52.3573 C.3       17 UNK        -0.1800 
     97 C          -3.9559  -23.2718  -52.4487 C.2       17 UNK         0.5000 
     98 O          -3.3283  -23.0988  -53.4938 O.2       17 UNK        -0.5000 
     99 N          -3.3870  -23.3066  -51.2359 N.am      18 UNK        -0.5000 
    100 CA        -1.9490  -23.1442  -51.0119 C.3       18 UNK         0.1400 
    101 CB        -1.6062  -23.5340  -49.5679 C.3       18 UNK        -0.1800 
    102 C         -1.4417  -21.7269  -51.3335 C.2       18 UNK         0.5000 
    103 O         -0.3616  -21.5863  -51.9052 O.2       18 UNK        -0.5000 
    104 N         -2.2338  -20.7071  -50.9790 N.am      19 UNK        -0.5000 
    105 CA        -1.9436  -19.2992  -51.2547 C.3       19 UNK         0.1400 
    106 CB        -2.8244  -18.4213  -50.3525 C.3       19 UNK        -0.1800 
    107 C         -2.1449  -18.9381  -52.7383 C.2       19 UNK         0.5000 
    108 O         -1.3827  -18.1421  -53.2833 O.2       19 UNK        -0.5000 
    109 N         -3.1621  -19.5388  -53.3682 N.am      20 UNK        -0.5000 
    110 CA        -3.5275  -19.3413  -54.7707 C.3       20 UNK         0.1400 
    111 CB        -4.9538  -19.8710  -54.9879 C.3       20 UNK        -0.1800 
    112 C         -2.5563  -19.9961  -55.7717 C.2       20 UNK         0.5000 
    113 O         -2.6088  -19.6597  -56.9553 O.2       20 UNK        -0.5000 
    114 N         -1.6942  -20.9092  -55.3004 N.am      21 UNK        -0.5000 
    115 CA        -0.7516  -21.6975  -56.1017 C.3       21 UNK         0.1400 
    116 CB         0.0227  -22.6438  -55.1720 C.3       21 UNK        -0.1800 
    117 C          0.2270  -20.8655  -56.9566 C.2       21 UNK         0.5000 
    118 O          0.6077  -21.3093  -58.0407 O.2       21 UNK        -0.5000 
    119 N          0.5955  -19.6764  -56.4670 N.am      22 UNK        -0.5000 
    120 CA         1.4067  -18.6738  -57.1770 C.3       22 UNK         0.1400 
    121 C          0.5761  -17.6298  -57.9830 C.2       22 UNK         0.5000 
    122 N         -0.7452  -17.7329  -58.0657 N.am      22 UNK        -0.7600 
    123 O          1.1440  -16.7150  -58.5739 O.2       22 UNK        -0.5000 
    124 C124        2.4553  -18.0136  -56.2417 C.3       23 UNK        -0.0398 
    125 S125        1.7643  -17.3625  -54.6794 S.3       23 UNK        -0.2404 
    126 C126        3.1909  -17.5650  -53.5696 C.3       23 UNK        -0.0205 
    127 H127       -3.1383  -11.5254  -49.0276 H         1 UNK         0.0600 
    128 H128       -3.2597  -10.8289  -47.4088 H         1 UNK         0.0600 
    129 H129       -4.6252  -11.7171  -48.0927 H         1 UNK         0.0600 
    130 H130       -1.9054  -13.3751  -49.0540 H         1 UNK         0.3000 
    131 H131       -0.8674  -14.6747  -46.8543 H         1 UNK         0.0600 
    132 H132       -0.0665  -16.3977  -48.4341 H         1 UNK         0.0800 
    133 H133       -1.1586  -15.8425  -49.6722 H         1 UNK         0.0800 
    134 H134        3.0706  -14.5544  -49.4334 H         1 UNK         0.0800 
    135 H135        2.3611  -15.4494  -48.1190 H         1 UNK         0.0800 
    136 H136        2.9108  -15.4809  -51.8168 H         1 UNK         0.1150 
    137 H137        2.5049  -19.7388  -52.1029 H         1 UNK         0.1150 
    138 H138        1.7949  -17.7485  -48.3701 H         1 UNK         0.1150 
    139 H139        0.7508  -20.5160  -49.7704 H         1 UNK         0.0800 
    140 H140        2.3903  -21.0365  -50.0568 H         1 UNK         0.0800 
    141 H141        0.0130  -19.1615  -47.7989 H         1 UNK         0.0800 
    142 H142        0.6979  -19.2523  -46.1977 H         1 UNK         0.0800 
    143 H143       -0.6623  -21.5404  -47.6896 H         1 UNK         0.0600 
    144 H144        1.0279  -21.6813  -45.4080 H         1 UNK         0.3000 
    145 H145       -0.2226  -24.7331  -44.0811 H         1 UNK         0.0600 
    146 H146        1.9993  -25.6404  -44.6801 H         1 UNK         0.0600 
    147 H147        0.9819  -25.5565  -46.1090 H         1 UNK         0.0600 
    148 H148        2.2400  -24.3514  -45.8607 H         1 UNK         0.0600 
    149 H149        2.1957  -23.4463  -43.5345 H         1 UNK         0.3000 
    150 H150        1.2581  -20.6051  -41.7377 H         1 UNK         0.0600 
    151 H151        2.2616  -23.2553  -40.5644 H         1 UNK         0.0600 
    152 H152        0.8618  -22.3536  -39.9955 H         1 UNK         0.0600 
    153 H153        2.4669  -21.6573  -39.8451 H         1 UNK         0.0600 
    154 H154        3.7702  -21.8859  -42.0103 H         1 UNK         0.3000 
    155 H155        5.3557  -20.9262  -43.3892 H         1 UNK         0.0600 
    156 H156        4.1505  -22.2035  -45.9130 H         1 UNK         0.0600 
    157 H157        4.6799  -23.0720  -44.4772 H         1 UNK         0.0600 
    158 H158        5.8571  -22.2290  -45.4703 H         1 UNK         0.0600 
    159 H159        4.7456  -19.8405  -46.0446 H         1 UNK         0.3000 
    160 H160        6.1916  -16.8921  -45.5294 H         1 UNK         0.0600 
    161 H161        3.8930  -18.1569  -47.1420 H         1 UNK         0.0600 
    162 H162        5.6057  -18.4995  -47.4017 H         1 UNK         0.0600 
    163 H163        4.9741  -16.9003  -47.7190 H         1 UNK         0.0600 
    164 H164        3.6354  -16.7239  -44.3482 H         1 UNK         0.3000 
    165 H165        3.2853  -13.8222  -44.0344 H         1 UNK         0.0600 
    166 H166        2.8663  -12.6705  -46.2195 H         1 UNK         0.0600 
    167 H167        1.4201  -12.7591  -45.2303 H         1 UNK         0.0600 
    168 H168        1.6138  -13.8463  -46.5965 H         1 UNK         0.0600 
    169 H169        1.5704  -15.0153  -43.2747 H         1 UNK         0.3000 
    170 H170       -0.4818  -17.6301  -44.5420 H         1 UNK         0.0600 
    171 H171        1.2623  -18.3480  -42.9857 H         1 UNK         0.0600 
    172 H172        1.1061  -16.8898  -42.0308 H         1 UNK         0.0600 
    173 H173       -0.2258  -18.0379  -42.1100 H         1 UNK         0.0600 
    174 H174       -1.8782  -15.9525  -44.1985 H         1 UNK         0.3000 
    175 H175       -2.4143  -13.5657  -41.8432 H         1 UNK         0.0600 
    176 H176       -2.3923  -11.7190  -43.5335 H         1 UNK         0.0600 
    177 H177       -0.7760  -12.0561  -42.9352 H         1 UNK         0.0600 
    178 H178       -1.2572  -12.6330  -44.5258 H         1 UNK         0.0600 
    179 H179       -3.3574  -13.8761  -44.5792 H         1 UNK         0.3000 
    180 H180       -6.0929  -15.9923  -43.5811 H         1 UNK         0.0600 
    181 H181       -5.8349  -13.0989  -44.5570 H         1 UNK         0.0600 
    182 H182       -6.6862  -13.6240  -43.1081 H         1 UNK         0.0600 
    183 H183       -7.2684  -14.1150  -44.6915 H         1 UNK         0.0600 
    184 H184       -4.5719  -14.8598  -45.9106 H         1 UNK         0.3000 
    185 H185       -4.3627  -18.0058  -47.4314 H         1 UNK         0.0600 
    186 H186       -6.7373  -17.5078  -48.1319 H         1 UNK         0.0600 
    187 H187       -6.2886  -15.8368  -48.4283 H         1 UNK         0.0600 
    188 H188       -5.5791  -17.1296  -49.3954 H         1 UNK         0.0600 
    189 H189       -3.9091  -15.3788  -48.4696 H         1 UNK         0.3000 
    190 H190       -1.1930  -20.7468  -44.3064 H         1 UNK         0.3000 
    191 H191       -3.8329  -19.5016  -44.8687 H         1 UNK         0.0600 
    192 H192       -2.4766  -18.3410  -43.2033 H         1 UNK         0.0600 
    193 H193       -3.8357  -19.0972  -42.3983 H         1 UNK         0.0600 
    194 H194       -2.2368  -19.8259  -42.2792 H         1 UNK         0.0600 
    195 H195       -2.3167  -22.3818  -43.3155 H         1 UNK         0.3000 
    196 H196       -4.7190  -23.4623  -42.2882 H         1 UNK         0.0600 
    197 H197       -3.3814  -25.4759  -41.8698 H         1 UNK         0.0600 
    198 H198       -2.4164  -24.0553  -41.4954 H         1 UNK         0.0600 
    199 H199       -2.1419  -24.9458  -42.9926 H         1 UNK         0.0600 
    200 H200       -3.1491  -23.9558  -45.4637 H         1 UNK         0.3000 
    201 H201       -5.4623  -25.6196  -46.3802 H         1 UNK         0.0600 
    202 H202       -3.8896  -26.4893  -48.0866 H         1 UNK         0.0600 
    203 H203       -2.5876  -25.5123  -47.4189 H         1 UNK         0.0600 
    204 H204       -3.2913  -26.8139  -46.4681 H         1 UNK         0.0600 
    205 H205       -5.5958  -22.7725  -46.0460 H         1 UNK         0.3000 
    206 H206       -5.4006  -21.4771  -48.5998 H         1 UNK         0.0600 
    207 H207       -5.3888  -20.1668  -46.5285 H         1 UNK         0.0600 
    208 H208       -6.8294  -19.7311  -47.4274 H         1 UNK         0.0600 
    209 H209       -6.9601  -20.8040  -46.0470 H         1 UNK         0.0600 
    210 H210       -8.7926  -21.8980  -49.9314 H         1 UNK         0.3000 
    211 H211       -6.6388  -19.9353  -49.7797 H         1 UNK         0.0600 
    212 H212       -8.7530  -20.5111  -51.9099 H         1 UNK         0.0600 
    213 H213       -7.6863  -19.1128  -51.8610 H         1 UNK         0.0600 
    214 H214       -8.8917  -19.3333  -50.6038 H         1 UNK         0.0600 
    215 H215       -6.9720  -23.1256  -51.0450 H         1 UNK         0.3000 
    216 H216       -5.8015  -23.1070  -53.5024 H         1 UNK         0.0600 
    217 H217       -5.3381  -25.5372  -53.0737 H         1 UNK         0.0600 
    218 H218       -6.9403  -25.0624  -52.5343 H         1 UNK         0.0600 
    219 H219       -5.6451  -25.2880  -51.3586 H         1 UNK         0.0600 
    220 H220       -3.9664  -23.4947  -50.4214 H         1 UNK         0.3000 
    221 H221       -1.4245  -23.8342  -51.6766 H         1 UNK         0.0600 
    222 H222       -2.1823  -22.9552  -48.8450 H         1 UNK         0.0600 
    223 H223       -1.8159  -24.5887  -49.3953 H         1 UNK         0.0600 
    224 H224       -0.5480  -23.3766  -49.3550 H         1 UNK         0.0600 
    225 H225       -3.1316  -20.9139  -50.5664 H         1 UNK         0.3000 
    226 H226       -0.8990  -19.0996  -51.0066 H         1 UNK         0.0600 
    227 H227       -2.6895  -17.3641  -50.5798 H         1 UNK         0.0600 
    228 H228       -3.8833  -18.6470  -50.4800 H         1 UNK         0.0600 
    229 H229       -2.5752  -18.5656  -49.3010 H         1 UNK         0.0600 
    230 H230       -3.7891  -20.1251  -52.8215 H         1 UNK         0.3000 
    231 H231       -3.5278  -18.2687  -54.9744 H         1 UNK         0.0600 
    232 H232       -5.0194  -20.9391  -54.7772 H         1 UNK         0.0600 
    233 H233       -5.2789  -19.7174  -56.0177 H         1 UNK         0.0600 
    234 H234       -5.6676  -19.3580  -54.3431 H         1 UNK         0.0600 
    235 H235       -1.7441  -21.1358  -54.3167 H         1 UNK         0.3000 
    236 H236       -1.3453  -22.3050  -56.7875 H         1 UNK         0.0600 
    237 H237        0.6272  -22.0907  -54.4521 H         1 UNK         0.0600 
    238 H238       -0.6537  -23.2915  -54.6136 H         1 UNK         0.0600 
    239 H239        0.6951  -23.2878  -55.7401 H         1 UNK         0.0600 
    240 H240        0.2252  -19.3821  -55.5735 H         1 UNK         0.3000 
    241 H241        1.9834  -19.1924  -57.9449 H         1 UNK         0.0600 
    242 H242       -1.2511  -18.4953  -57.6250 H         1 UNK         0.3800 
    243 H243       -1.2556  -17.0501  -58.6026 H         1 UNK         0.3800 
    244 H244        2.9963  -17.2135  -56.7496 H         1 UNK         0.0800 
    245 H245        3.2100  -18.7635  -56.0036 H         1 UNK         0.0800 
    246 H246        3.8950  -16.7483  -53.7356 H         1 UNK         0.0800 
    247 H247        3.7274  -18.4843  -53.8081 H         1 UNK         0.0800 
@<TRIPOS>BOND
     1    1    2 1    
     2    1  127 1    
     3    1  128 1    
     4    1  129 1    
     5    2    3 2    
     6    2    4 am   BACKBONE|DICT|INTERRES
     7    4    5 1    
     8    4  130 1    
     9    5    6 1    
    10    5   65 1    
    11    5  131 1    
    12    6    7 1    
    13    6  132 1    
    14    6  133 1    
    15    7    8 1    
    16    8    9 1    
    17    8  134 1    
    18    8  135 1    
    19    9   10 ar   
    20    9   14 ar   
    21   10   11 ar   
    22   10  136 1    
    23   11   12 ar   
    24   11  126 1    
    25   12   13 ar   
    26   12  137 1    
    27   13   14 ar   
    28   13   15 1    
    29   14  138 1    
    30   15   16 1    
    31   15  139 1    
    32   15  140 1    
    33   16   17 1    
    34   17   18 1    
    35   17  141 1    
    36   17  142 1    
    37   18   19 1    
    38   18   67 1    
    39   18  143 1    
    40   19   20 am   BACKBONE|DICT|INTERRES
    41   19  144 1    
    42   20   21 2    
    43   20   22 1    
    44   22   23 1    
    45   22   24 1    
    46   22  145 1    
    47   23  146 1    
    48   23  147 1    
    49   23  148 1    
    50   24   25 am   BACKBONE|DICT|INTERRES
    51   24  149 1    
    52   25   26 2    
    53   25   27 1    
    54   27   28 1    
    55   27   29 1    
    56   27  150 1    
    57   28  151 1    
    58   28  152 1    
    59   28  153 1    
    60   29   30 am   BACKBONE|DICT|INTERRES
    61   29  154 1    
    62   30   31 2    
    63   30   32 1    
    64   32   33 1    
    65   32   34 1    
    66   32  155 1    
    67   33  156 1    
    68   33  157 1    
    69   33  158 1    
    70   34   35 am   BACKBONE|DICT|INTERRES
    71   34  159 1    
    72   35   36 2    
    73   35   37 1    
    74   37   38 1    
    75   37   39 1    
    76   37  160 1    
    77   38  161 1    
    78   38  162 1    
    79   38  163 1    
    80   39   40 am   BACKBONE|DICT|INTERRES
    81   39  164 1    
    82   40   41 2    
    83   40   42 1    
    84   42   43 1    
    85   42   44 1    
    86   42  165 1    
    87   43  166 1    
    88   43  167 1    
    89   43  168 1    
    90   44   45 am   BACKBONE|DICT|INTERRES
    91   44  169 1    
    92   45   46 2    
    93   45   47 1    
    94   47   48 1    
    95   47   49 1    
    96   47  170 1    
    97   48  171 1    
    98   48  172 1    
    99   48  173 1    
   100   49   50 am   BACKBONE|DICT|INTERRES
   101   49  174 1    
   102   50   51 2    
   103   50   52 1    
   104   52   53 1    
   105   52   54 1    
   106   52  175 1    
   107   53  176 1    
   108   53  177 1    
   109   53  178 1    
   110   54   55 am   BACKBONE|DICT|INTERRES
   111   54  179 1    
   112   55   56 2    
   113   55   57 1    
   114   57   58 1    
   115   57   59 1    
   116   57  180 1    
   117   58  181 1    
   118   58  182 1    
   119   58  183 1    
   120   59   60 am   BACKBONE|DICT|INTERRES
   121   59  184 1    
   122   60   61 2    
   123   60   62 1    
   124   62   63 1    
   125   62   64 1    
   126   62  185 1    
   127   63  186 1    
   128   63  187 1    
   129   63  188 1    
   130   64   65 am   BACKBONE|DICT|INTERRES
   131   64  189 1    
   132   65   66 2    
   133   67   68 2    
   134   67   69 am   BACKBONE|DICT|INTERRES
   135   69   70 1    
   136   69  190 1    
   137   70   71 1    
   138   70   72 1    
   139   70  191 1    
   140   71  192 1    
   141   71  193 1    
   142   71  194 1    
   143   72   73 2    
   144   72   74 am   BACKBONE|DICT|INTERRES
   145   74   75 1    
   146   74  195 1    
   147   75   76 1    
   148   75   77 1    
   149   75  196 1    
   150   76  197 1    
   151   76  198 1    
   152   76  199 1    
   153   77   78 2    
   154   77   79 am   BACKBONE|DICT|INTERRES
   155   79   80 1    
   156   79  200 1    
   157   80   81 1    
   158   80   82 1    
   159   80  201 1    
   160   81  202 1    
   161   81  203 1    
   162   81  204 1    
   163   82   83 2    
   164   82   84 am   BACKBONE|DICT|INTERRES
   165   84   85 1    
   166   84  205 1    
   167   85   86 1    
   168   85   87 1    
   169   85  206 1    
   170   86  207 1    
   171   86  208 1    
   172   86  209 1    
   173   87   88 2    
   174   87   89 am   BACKBONE|DICT|INTERRES
   175   89   90 1    
   176   89  210 1    
   177   90   91 1    
   178   90   92 1    
   179   90  211 1    
   180   91  212 1    
   181   91  213 1    
   182   91  214 1    
   183   92   93 2    
   184   92   94 am   BACKBONE|DICT|INTERRES
   185   94   95 1    
   186   94  215 1    
   187   95   96 1    
   188   95   97 1    
   189   95  216 1    
   190   96  217 1    
   191   96  218 1    
   192   96  219 1    
   193   97   98 2    
   194   97   99 am   BACKBONE|DICT|INTERRES
   195   99  100 1    
   196   99  220 1    
   197  100  101 1    
   198  100  102 1    
   199  100  221 1    
   200  101  222 1    
   201  101  223 1    
   202  101  224 1    
   203  102  103 2    
   204  102  104 am   BACKBONE|DICT|INTERRES
   205  104  105 1    
   206  104  225 1    
   207  105  106 1    
   208  105  107 1    
   209  105  226 1    
   210  106  227 1    
   211  106  228 1    
   212  106  229 1    
   213  107  108 2    
   214  107  109 am   BACKBONE|DICT|INTERRES
   215  109  110 1    
   216  109  230 1    
   217  110  111 1    
   218  110  112 1    
   219  110  231 1    
   220  111  232 1    
   221  111  233 1    
   222  111  234 1    
   223  112  113 2    
   224  112  114 am   BACKBONE|DICT|INTERRES
   225  114  115 1    
   226  114  235 1    
   227  115  116 1    
   228  115  117 1    
   229  115  236 1    
   230  116  237 1    
   231  116  238 1    
   232  116  239 1    
   233  117  118 2    
   234  117  119 am   BACKBONE|DICT|INTERRES
   235  119  120 1    
   236  119  240 1    
   237  120  121 1    
   238  120  124 1    
   239  120  241 1    
   240  121  122 am   BACKBONE|DICT|INTERRES
   241  121  123 2    
   242  122  242 1    
   243  122  243 1    
   244  124  125 1    
   245  124  244 1    
   246  124  245 1    
   247  125  126 1    
   248  126  246 1    
   249  126  247 1    
@<TRIPOS>SUBSTRUCTURE
     1 UNK         1 GROUP             0       ****    0 ROOT    
