@<TRIPOS>MOLECULE
3R540
247   249    1
SMALL
USER_CHARGES


@<TRIPOS>ATOM
      1 CA          0.5894  -13.4701  -41.8776 C.3       0 UNK        -0.1800 
      2 C           0.9789  -12.4524  -42.9390 C.2       0 UNK         0.5000 
      3 O           2.1641  -12.1791  -43.1209 O.2       0 UNK        -0.5000 
      4 N          -0.0132  -11.8840  -43.6342 N.am      1 UNK        -0.5000 
      5 CA          0.1273  -10.8544  -44.6710 C.3       1 UNK         0.1400 
      6 C6          0.8753  -11.3297  -45.9519 C.3       23 UNK        -0.0398 
      7 S7          0.1629  -12.8391  -46.6885 S.3       23 UNK        -0.2404 
      8 C8         -1.1683  -12.1481  -47.7115 C.3       23 UNK        -0.0205 
      9 C9         -2.0036  -13.2516  -48.3412 C.ar      23 UNK        -0.0193 
     10 C10        -1.8164  -13.6046  -49.6811 C.ar      23 UNK        -0.1150 
     11 C11        -2.6007  -14.6035  -50.2658 C.ar      23 UNK        -0.0193 
     12 C12        -3.5867  -15.2366  -49.5065 C.ar      23 UNK        -0.1150 
     13 C13        -3.7619  -14.9170  -48.1584 C.ar      23 UNK        -0.0193 
     14 C14        -2.9713  -13.9181  -47.5823 C.ar      23 UNK        -0.1150 
     15 C15        -4.8040  -15.6507  -47.3281 C.3       23 UNK        -0.0205 
     16 S16        -4.1508  -17.2076  -46.6453 S.3       23 UNK        -0.2404 
     17 C17        -4.2305  -18.3120  -48.1006 C.3       23 UNK        -0.0398 
     18 CA         -3.9281  -19.8143  -47.8589 C.3       11 UNK         0.1400 
     19 N          -2.4950  -20.1219  -47.8524 N.am      11 UNK        -0.5000 
     20 C          -2.0036  -21.3473  -48.0918 C.2       10 UNK         0.5000 
     21 O          -2.7047  -22.3272  -48.3385 O.2       10 UNK        -0.5000 
     22 CA         -0.4809  -21.5338  -48.0241 C.3       10 UNK         0.1400 
     23 CB          0.1823  -21.0433  -49.3199 C.3       10 UNK        -0.1800 
     24 N           0.1222  -20.8770  -46.8676 N.am      10 UNK        -0.5000 
     25 C          -0.1490  -21.1750  -45.5887 C.2       9 UNK         0.5000 
     26 O          -0.9351  -22.0569  -45.2404 O.2       9 UNK        -0.5000 
     27 CA          0.5351  -20.3017  -44.5209 C.3       9 UNK         0.1400 
     28 CB          1.9974  -20.7217  -44.3100 C.3       9 UNK        -0.1800 
     29 N           0.4727  -18.8782  -44.8530 N.am      9 UNK        -0.5000 
     30 C          -0.6692  -18.1811  -44.9422 C.2       8 UNK         0.5000 
     31 O          -1.7773  -18.6535  -44.6941 O.2       8 UNK        -0.5000 
     32 CA         -0.5533  -16.7264  -45.4240 C.3       8 UNK         0.1400 
     33 CB         -0.1449  -15.8086  -44.2654 C.3       8 UNK        -0.1800 
     34 N           0.3915  -16.5854  -46.5306 N.am      8 UNK        -0.5000 
     35 C           0.2019  -17.1029  -47.7536 C.2       7 UNK         0.5000 
     36 O          -0.7986  -17.7394  -48.0834 O.2       7 UNK        -0.5000 
     37 CA          1.3632  -16.9413  -48.7522 C.3       7 UNK         0.1400 
     38 CB          1.3433  -15.5489  -49.3986 C.3       7 UNK        -0.1800 
     39 N           2.6717  -17.1613  -48.1336 N.am      7 UNK        -0.5000 
     40 C           3.0804  -18.3175  -47.5910 C.2       6 UNK         0.5000 
     41 O           2.4094  -19.3471  -47.5931 O.2       6 UNK        -0.5000 
     42 CA          4.4519  -18.3131  -46.8912 C.3       6 UNK         0.1400 
     43 CB          5.5586  -18.7289  -47.8713 C.3       6 UNK        -0.1800 
     44 N           4.7843  -17.0124  -46.3060 N.am      6 UNK        -0.5000 
     45 C           4.1393  -16.4623  -45.2699 C.2       5 UNK         0.5000 
     46 O           3.2102  -17.0069  -44.6668 O.2       5 UNK        -0.5000 
     47 CA          4.5657  -15.0404  -44.8940 C.3       5 UNK         0.1400 
     48 CB          3.7613  -14.0132  -45.7134 C.3       5 UNK        -0.1800 
     49 N           4.3430  -14.8229  -43.4691 N.am      5 UNK        -0.5000 
     50 C           4.9215  -13.8525  -42.7554 C.2       4 UNK         0.5000 
     51 O           5.7634  -13.0728  -43.2121 O.2       4 UNK        -0.5000 
     52 CA          4.4882  -13.7071  -41.2911 C.3       4 UNK         0.1400 
     53 CB          5.4874  -14.3783  -40.3342 C.3       4 UNK        -0.1800 
     54 N           4.4055  -12.2787  -41.0167 N.am      4 UNK        -0.5000 
     55 C           3.5956  -11.6891  -40.1325 C.2       3 UNK         0.5000 
     56 O           2.9017  -12.2961  -39.3165 O.2       3 UNK        -0.5000 
     57 CA          3.5248  -10.1585  -40.2108 C.3       3 UNK         0.1400 
     58 CB          4.8390   -9.5393  -39.6871 C.3       3 UNK        -0.1800 
     59 N           3.2364   -9.7518  -41.5904 N.am      3 UNK        -0.5000 
     60 C           3.0258   -8.4970  -42.0135 C.2       2 UNK         0.5000 
     61 O           3.0213   -7.5146  -41.2707 O.2       2 UNK        -0.5000 
     62 CA          2.7792   -8.2913  -43.5210 C.3       2 UNK         0.1400 
     63 CB          4.1145   -8.1142  -44.2605 C.3       2 UNK        -0.1800 
     64 N           2.0429   -9.3968  -44.1311 N.am      2 UNK        -0.5000 
     65 C           0.7150   -9.5617  -44.0596 C.2       1 UNK         0.5000 
     66 O          -0.0428   -8.7573  -43.5145 O.2       1 UNK        -0.5000 
     67 C          -4.6671  -20.4272  -46.6492 C.2       11 UNK         0.5000 
     68 O          -5.7901  -20.9031  -46.8168 O.2       11 UNK        -0.5000 
     69 N          -4.0173  -20.4606  -45.4744 N.am      12 UNK        -0.5000 
     70 CA         -4.5376  -21.0879  -44.2564 C.3       12 UNK         0.1400 
     71 CB         -3.6530  -20.7142  -43.0579 C.3       12 UNK        -0.1800 
     72 C          -4.6611  -22.6168  -44.3851 C.2       12 UNK         0.5000 
     73 O          -5.6603  -23.1865  -43.9455 O.2       12 UNK        -0.5000 
     74 N          -3.6628  -23.2469  -45.0188 N.am      13 UNK        -0.5000 
     75 CA         -3.6627  -24.6716  -45.3586 C.3       13 UNK         0.1400 
     76 CB         -2.2123  -25.1135  -45.6114 C.3       13 UNK        -0.1800 
     77 C          -4.5322  -25.0033  -46.5884 C.2       13 UNK         0.5000 
     78 O          -4.7574  -26.1829  -46.8641 O.2       13 UNK        -0.5000 
     79 N          -4.9415  -23.9713  -47.3423 N.am      14 UNK        -0.5000 
     80 CA         -5.6190  -24.0141  -48.6434 C.3       14 UNK         0.1400 
     81 CB         -7.0713  -24.5052  -48.4755 C.3       14 UNK        -0.1800 
     82 C          -4.8300  -24.8291  -49.6906 C.2       14 UNK         0.5000 
     83 O          -5.4319  -25.5433  -50.4902 O.2       14 UNK        -0.5000 
     84 N          -3.4919  -24.7669  -49.6040 N.am      15 UNK        -0.5000 
     85 CA         -2.5031  -25.5792  -50.3237 C.3       15 UNK         0.1400 
     86 CB         -2.3593  -25.0840  -51.7743 C.3       15 UNK        -0.1800 
     87 C          -2.7466  -27.1043  -50.2220 C.2       15 UNK         0.5000 
     88 O          -2.4856  -27.8325  -51.1799 O.2       15 UNK        -0.5000 
     89 N          -3.2540  -27.5518  -49.0616 N.am      16 UNK        -0.5000 
     90 CA         -3.7196  -28.9111  -48.7644 C.3       16 UNK         0.1400 
     91 CB         -2.5665  -29.9352  -48.8326 C.3       16 UNK        -0.1800 
     92 C          -4.9473  -29.2991  -49.6171 C.2       16 UNK         0.5000 
     93 O          -5.0118  -30.4091  -50.1484 O.2       16 UNK        -0.5000 
     94 N          -5.8955  -28.3557  -49.7163 N.am      17 UNK        -0.5000 
     95 CA         -7.1343  -28.3910  -50.4977 C.3       17 UNK         0.1400 
     96 CB         -8.0789  -29.5051  -49.9988 C.3       17 UNK        -0.1800 
     97 C          -6.8577  -28.4486  -52.0133 C.2       17 UNK         0.5000 
     98 O          -7.2813  -29.3887  -52.6898 O.2       17 UNK        -0.5000 
     99 N          -6.1435  -27.4354  -52.5155 N.am      18 UNK        -0.5000 
    100 CA        -5.7947  -27.2683  -53.9232 C.3       18 UNK         0.1400 
    101 CB        -4.3806  -27.8234  -54.1647 C.3       18 UNK        -0.1800 
    102 C         -5.8749  -25.7866  -54.3210 C.2       18 UNK         0.5000 
    103 O         -5.8205  -24.9021  -53.4654 O.2       18 UNK        -0.5000 
    104 N         -5.9581  -25.5369  -55.6331 N.am      19 UNK        -0.5000 
    105 CA        -5.9951  -24.1977  -56.2327 C.3       19 UNK         0.1400 
    106 CB        -6.6000  -24.3130  -57.6418 C.3       19 UNK        -0.1800 
    107 C         -4.6172  -23.5000  -56.2857 C.2       19 UNK         0.5000 
    108 O         -4.5386  -22.3488  -56.7145 O.2       19 UNK        -0.5000 
    109 N         -3.5559  -24.2062  -55.8727 N.am      20 UNK        -0.5000 
    110 CA        -2.1608  -23.7650  -55.9092 C.3       20 UNK         0.1400 
    111 CB        -1.2595  -24.9931  -55.7035 C.3       20 UNK        -0.1800 
    112 C         -1.8011  -22.6546  -54.9001 C.2       20 UNK         0.5000 
    113 O         -0.7207  -22.0739  -55.0234 O.2       20 UNK        -0.5000 
    114 N         -2.6790  -22.3781  -53.9232 N.am      21 UNK        -0.5000 
    115 CA        -2.5089  -21.3393  -52.9032 C.3       21 UNK         0.1400 
    116 CB        -3.6934  -21.3797  -51.9228 C.3       21 UNK        -0.1800 
    117 C         -2.3474  -19.9425  -53.5353 C.2       21 UNK         0.5000 
    118 O         -3.2873  -19.4443  -54.1578 O.2       21 UNK        -0.5000 
    119 N         -1.1431  -19.3734  -53.3952 N.am      22 UNK        -0.5000 
    120 CA        -0.6882  -18.1224  -54.0318 C.3       22 UNK         0.1400 
    121 C         -0.4986  -18.2190  -55.5786 C.2       22 UNK         0.5000 
    122 N         -0.4162  -19.4062  -56.1679 N.am      22 UNK        -0.7600 
    123 O         -0.3884  -17.2028  -56.2597 O.2       22 UNK        -0.5000 
    124 C124       -1.5072  -16.8693  -53.6088 C.3       23 UNK        -0.0398 
    125 S125       -1.5237  -16.6169  -51.8046 S.3       23 UNK        -0.2404 
    126 C126       -2.3840  -15.0170  -51.7116 C.3       23 UNK        -0.0205 
    127 H127       -0.4661  -13.7354  -41.9396 H         1 UNK         0.0600 
    128 H128        1.1760  -14.3804  -41.9958 H         1 UNK         0.0600 
    129 H129        0.7807  -13.0669  -40.8839 H         1 UNK         0.0600 
    130 H130       -0.9661  -12.1392  -43.4185 H         1 UNK         0.3000 
    131 H131       -0.8906  -10.6036  -44.9729 H         1 UNK         0.0600 
    132 H132        0.8826  -10.5404  -46.7055 H         1 UNK         0.0800 
    133 H133        1.9206  -11.5512  -45.7362 H         1 UNK         0.0800 
    134 H134       -1.8105  -11.5135  -47.0996 H         1 UNK         0.0800 
    135 H135       -0.7380  -11.5058  -48.4814 H         1 UNK         0.0800 
    136 H136       -1.0559  -13.1068  -50.2662 H         1 UNK         0.1150 
    137 H137       -4.1983  -16.0014  -49.9631 H         1 UNK         0.1150 
    138 H138       -3.1039  -13.6608  -46.5408 H         1 UNK         0.1150 
    139 H139       -5.1296  -15.0180  -46.5011 H         1 UNK         0.0800 
    140 H140       -5.6951  -15.8492  -47.9254 H         1 UNK         0.0800 
    141 H141       -3.5484  -17.9331  -48.8619 H         1 UNK         0.0800 
    142 H142       -5.2310  -18.2187  -48.5257 H         1 UNK         0.0800 
    143 H143       -4.3332  -20.3287  -48.7337 H         1 UNK         0.0600 
    144 H144       -1.8593  -19.3433  -47.6986 H         1 UNK         0.3000 
    145 H145       -0.2850  -22.6039  -47.9304 H         1 UNK         0.0600 
    146 H146        1.2534  -21.2455  -49.3150 H         1 UNK         0.0600 
    147 H147       -0.2394  -21.5491  -50.1891 H         1 UNK         0.0600 
    148 H148        0.0450  -19.9714  -49.4637 H         1 UNK         0.0600 
    149 H149        0.8191  -20.1635  -47.0675 H         1 UNK         0.3000 
    150 H150        0.0019  -20.4486  -43.5793 H         1 UNK         0.0600 
    151 H151        2.0604  -21.7671  -44.0053 H         1 UNK         0.0600 
    152 H152        2.4705  -20.1254  -43.5295 H         1 UNK         0.0600 
    153 H153        2.5876  -20.6107  -45.2193 H         1 UNK         0.0600 
    154 H154        1.3462  -18.4107  -45.0576 H         1 UNK         0.3000 
    155 H155       -1.5331  -16.4037  -45.7775 H         1 UNK         0.0600 
    156 H156       -0.8365  -15.9091  -43.4281 H         1 UNK         0.0600 
    157 H157       -0.1593  -14.7644  -44.5698 H         1 UNK         0.0600 
    158 H158        0.8541  -16.0384  -43.8958 H         1 UNK         0.0600 
    159 H159        1.2561  -16.1061  -46.3322 H         1 UNK         0.3000 
    160 H160        1.2308  -17.6859  -49.5399 H         1 UNK         0.0600 
    161 H161        1.5138  -14.7592  -48.6665 H         1 UNK         0.0600 
    162 H162        0.3808  -15.3554  -49.8697 H         1 UNK         0.0600 
    163 H163        2.1052  -15.4614  -50.1731 H         1 UNK         0.0600 
    164 H164        3.2939  -16.3686  -48.0943 H         1 UNK         0.3000 
    165 H165        4.4146  -19.0490  -46.0853 H         1 UNK         0.0600 
    166 H166        6.5237  -18.8004  -47.3694 H         1 UNK         0.0600 
    167 H167        5.3468  -19.7068  -48.3061 H         1 UNK         0.0600 
    168 H168        5.6582  -18.0189  -48.6933 H         1 UNK         0.0600 
    169 H169        5.5349  -16.5001  -46.7470 H         1 UNK         0.3000 
    170 H170        5.6303  -14.9300  -45.1117 H         1 UNK         0.0600 
    171 H171        3.8819  -14.1746  -46.7850 H         1 UNK         0.0600 
    172 H172        2.6961  -14.0739  -45.4871 H         1 UNK         0.0600 
    173 H173        4.0856  -12.9942  -45.5027 H         1 UNK         0.0600 
    174 H174        3.6842  -15.4619  -43.0431 H         1 UNK         0.3000 
    175 H175        3.5025  -14.1593  -41.1660 H         1 UNK         0.0600 
    176 H176        6.4843  -13.9458  -40.4274 H         1 UNK         0.0600 
    177 H177        5.1720  -14.2721  -39.2961 H         1 UNK         0.0600 
    178 H178        5.5692  -15.4456  -40.5426 H         1 UNK         0.0600 
    179 H179        4.9321  -11.7112  -41.6689 H         1 UNK         0.3000 
    180 H180        2.6999   -9.8280  -39.5766 H         1 UNK         0.0600 
    181 H181        4.7547   -8.4611  -39.5561 H         1 UNK         0.0600 
    182 H182        5.6727   -9.7291  -40.3639 H         1 UNK         0.0600 
    183 H183        5.1053   -9.9541  -38.7140 H         1 UNK         0.0600 
    184 H184        3.1177  -10.5149  -42.2502 H         1 UNK         0.3000 
    185 H185        2.2021   -7.3721  -43.6432 H         1 UNK         0.0600 
    186 H186        4.7373   -9.0069  -44.1889 H         1 UNK         0.0600 
    187 H187        3.9544   -7.9002  -45.3174 H         1 UNK         0.0600 
    188 H188        4.6840   -7.2823  -43.8439 H         1 UNK         0.0600 
    189 H189        2.5975  -10.1400  -44.5310 H         1 UNK         0.3000 
    190 H190       -3.1176  -19.9955  -45.3958 H         1 UNK         0.3000 
    191 H191       -5.5377  -20.6885  -44.0754 H         1 UNK         0.0600 
    192 H192       -2.6221  -21.0397  -43.2008 H         1 UNK         0.0600 
    193 H193       -3.6442  -19.6359  -42.8978 H         1 UNK         0.0600 
    194 H194       -4.0205  -21.1754  -42.1404 H         1 UNK         0.0600 
    195 H195       -2.8418  -22.7150  -45.2932 H         1 UNK         0.3000 
    196 H196       -4.0542  -25.2397  -44.5124 H         1 UNK         0.0600 
    197 H197       -1.5864  -24.9282  -44.7383 H         1 UNK         0.0600 
    198 H198       -1.7725  -24.5807  -46.4558 H         1 UNK         0.0600 
    199 H199       -2.1569  -26.1808  -45.8298 H         1 UNK         0.0600 
    200 H200       -4.6630  -23.0479  -47.0399 H         1 UNK         0.3000 
    201 H201       -5.6495  -22.9878  -49.0120 H         1 UNK         0.0600 
    202 H202       -7.6205  -24.4333  -49.4150 H         1 UNK         0.0600 
    203 H203       -7.6060  -23.9024  -47.7413 H         1 UNK         0.0600 
    204 H204       -7.1129  -25.5450  -48.1499 H         1 UNK         0.0600 
    205 H205       -3.1128  -24.0815  -48.9551 H         1 UNK         0.3000 
    206 H206       -1.5486  -25.4038  -49.8257 H         1 UNK         0.0600 
    207 H207       -2.0322  -24.0463  -51.7913 H         1 UNK         0.0600 
    208 H208       -3.2989  -25.1542  -52.3218 H         1 UNK         0.0600 
    209 H209       -1.6112  -25.6598  -52.3194 H         1 UNK         0.0600 
    210 H210       -3.4792  -26.8679  -48.3478 H         1 UNK         0.3000 
    211 H211       -4.0684  -28.8883  -47.7309 H         1 UNK         0.0600 
    212 H212       -1.7227  -29.6200  -48.2190 H         1 UNK         0.0600 
    213 H213       -2.8909  -30.9084  -48.4627 H         1 UNK         0.0600 
    214 H214       -2.2063  -30.0803  -49.8512 H         1 UNK         0.0600 
    215 H215       -5.6885  -27.4553  -49.3046 H         1 UNK         0.3000 
    216 H216       -7.6347  -27.4387  -50.3147 H         1 UNK         0.0600 
    217 H217       -9.0410  -29.4542  -50.5098 H         1 UNK         0.0600 
    218 H218       -7.6702  -30.5002  -50.1754 H         1 UNK         0.0600 
    219 H219       -8.2733  -29.4071  -48.9308 H         1 UNK         0.0600 
    220 H220       -5.8620  -26.6699  -51.9018 H         1 UNK         0.3000 
    221 H221       -6.5052  -27.8147  -54.5471 H         1 UNK         0.0600 
    222 H222       -3.6304  -27.2692  -53.6003 H         1 UNK         0.0600 
    223 H223       -4.3121  -28.8699  -53.8669 H         1 UNK         0.0600 
    224 H224       -4.1071  -27.7681  -55.2188 H         1 UNK         0.0600 
    225 H225       -5.9868  -26.3133  -56.2790 H         1 UNK         0.3000 
    226 H226       -6.6525  -23.5650  -55.6325 H         1 UNK         0.0600 
    227 H227       -7.5971  -24.7526  -57.6086 H         1 UNK         0.0600 
    228 H228       -6.6967  -23.3325  -58.1101 H         1 UNK         0.0600 
    229 H229       -5.9818  -24.9293  -58.2956 H         1 UNK         0.0600 
    230 H230       -3.7207  -25.1421  -55.5356 H         1 UNK         0.3000 
    231 H231       -1.9626  -23.3629  -56.9049 H         1 UNK         0.0600 
    232 H232       -0.2044  -24.7191  -55.7443 H         1 UNK         0.0600 
    233 H233       -1.4280  -25.7402  -56.4792 H         1 UNK         0.0600 
    234 H234       -1.4387  -25.4665  -54.7380 H         1 UNK         0.0600 
    235 H235       -3.5514  -22.8856  -53.9111 H         1 UNK         0.3000 
    236 H236       -1.6042  -21.5771  -52.3403 H         1 UNK         0.0600 
    237 H237       -3.5854  -20.6144  -51.1532 H         1 UNK         0.0600 
    238 H238       -4.6428  -21.2053  -52.4304 H         1 UNK         0.0600 
    239 H239       -3.7578  -22.3413  -51.4144 H         1 UNK         0.0600 
    240 H240       -0.4280  -19.8792  -52.8935 H         1 UNK         0.3000 
    241 H241        0.3243  -17.9713  -53.6562 H         1 UNK         0.0600 
    242 H242       -0.2794  -19.4509  -57.1649 H         1 UNK         0.3800 
    243 H243       -0.4900  -20.2681  -55.6347 H         1 UNK         0.3800 
    244 H244       -1.0832  -15.9704  -54.0593 H         1 UNK         0.0800 
    245 H245       -2.5343  -16.9344  -53.9693 H         1 UNK         0.0800 
    246 H246       -1.8054  -14.2613  -52.2450 H         1 UNK         0.0800 
    247 H247       -3.3474  -15.0896  -52.2185 H         1 UNK         0.0800 
@<TRIPOS>BOND
     1    1    2 1    
     2    1  127 1    
     3    1  128 1    
     4    1  129 1    
     5    2    3 2    
     6    2    4 am   BACKBONE|DICT|INTERRES
     7    4    5 1    
     8    4  130 1    
     9    5    6 1    
    10    5   65 1    
    11    5  131 1    
    12    6    7 1    
    13    6  132 1    
    14    6  133 1    
    15    7    8 1    
    16    8    9 1    
    17    8  134 1    
    18    8  135 1    
    19    9   10 ar   
    20    9   14 ar   
    21   10   11 ar   
    22   10  136 1    
    23   11   12 ar   
    24   11  126 1    
    25   12   13 ar   
    26   12  137 1    
    27   13   14 ar   
    28   13   15 1    
    29   14  138 1    
    30   15   16 1    
    31   15  139 1    
    32   15  140 1    
    33   16   17 1    
    34   17   18 1    
    35   17  141 1    
    36   17  142 1    
    37   18   19 1    
    38   18   67 1    
    39   18  143 1    
    40   19   20 am   BACKBONE|DICT|INTERRES
    41   19  144 1    
    42   20   21 2    
    43   20   22 1    
    44   22   23 1    
    45   22   24 1    
    46   22  145 1    
    47   23  146 1    
    48   23  147 1    
    49   23  148 1    
    50   24   25 am   BACKBONE|DICT|INTERRES
    51   24  149 1    
    52   25   26 2    
    53   25   27 1    
    54   27   28 1    
    55   27   29 1    
    56   27  150 1    
    57   28  151 1    
    58   28  152 1    
    59   28  153 1    
    60   29   30 am   BACKBONE|DICT|INTERRES
    61   29  154 1    
    62   30   31 2    
    63   30   32 1    
    64   32   33 1    
    65   32   34 1    
    66   32  155 1    
    67   33  156 1    
    68   33  157 1    
    69   33  158 1    
    70   34   35 am   BACKBONE|DICT|INTERRES
    71   34  159 1    
    72   35   36 2    
    73   35   37 1    
    74   37   38 1    
    75   37   39 1    
    76   37  160 1    
    77   38  161 1    
    78   38  162 1    
    79   38  163 1    
    80   39   40 am   BACKBONE|DICT|INTERRES
    81   39  164 1    
    82   40   41 2    
    83   40   42 1    
    84   42   43 1    
    85   42   44 1    
    86   42  165 1    
    87   43  166 1    
    88   43  167 1    
    89   43  168 1    
    90   44   45 am   BACKBONE|DICT|INTERRES
    91   44  169 1    
    92   45   46 2    
    93   45   47 1    
    94   47   48 1    
    95   47   49 1    
    96   47  170 1    
    97   48  171 1    
    98   48  172 1    
    99   48  173 1    
   100   49   50 am   BACKBONE|DICT|INTERRES
   101   49  174 1    
   102   50   51 2    
   103   50   52 1    
   104   52   53 1    
   105   52   54 1    
   106   52  175 1    
   107   53  176 1    
   108   53  177 1    
   109   53  178 1    
   110   54   55 am   BACKBONE|DICT|INTERRES
   111   54  179 1    
   112   55   56 2    
   113   55   57 1    
   114   57   58 1    
   115   57   59 1    
   116   57  180 1    
   117   58  181 1    
   118   58  182 1    
   119   58  183 1    
   120   59   60 am   BACKBONE|DICT|INTERRES
   121   59  184 1    
   122   60   61 2    
   123   60   62 1    
   124   62   63 1    
   125   62   64 1    
   126   62  185 1    
   127   63  186 1    
   128   63  187 1    
   129   63  188 1    
   130   64   65 am   BACKBONE|DICT|INTERRES
   131   64  189 1    
   132   65   66 2    
   133   67   68 2    
   134   67   69 am   BACKBONE|DICT|INTERRES
   135   69   70 1    
   136   69  190 1    
   137   70   71 1    
   138   70   72 1    
   139   70  191 1    
   140   71  192 1    
   141   71  193 1    
   142   71  194 1    
   143   72   73 2    
   144   72   74 am   BACKBONE|DICT|INTERRES
   145   74   75 1    
   146   74  195 1    
   147   75   76 1    
   148   75   77 1    
   149   75  196 1    
   150   76  197 1    
   151   76  198 1    
   152   76  199 1    
   153   77   78 2    
   154   77   79 am   BACKBONE|DICT|INTERRES
   155   79   80 1    
   156   79  200 1    
   157   80   81 1    
   158   80   82 1    
   159   80  201 1    
   160   81  202 1    
   161   81  203 1    
   162   81  204 1    
   163   82   83 2    
   164   82   84 am   BACKBONE|DICT|INTERRES
   165   84   85 1    
   166   84  205 1    
   167   85   86 1    
   168   85   87 1    
   169   85  206 1    
   170   86  207 1    
   171   86  208 1    
   172   86  209 1    
   173   87   88 2    
   174   87   89 am   BACKBONE|DICT|INTERRES
   175   89   90 1    
   176   89  210 1    
   177   90   91 1    
   178   90   92 1    
   179   90  211 1    
   180   91  212 1    
   181   91  213 1    
   182   91  214 1    
   183   92   93 2    
   184   92   94 am   BACKBONE|DICT|INTERRES
   185   94   95 1    
   186   94  215 1    
   187   95   96 1    
   188   95   97 1    
   189   95  216 1    
   190   96  217 1    
   191   96  218 1    
   192   96  219 1    
   193   97   98 2    
   194   97   99 am   BACKBONE|DICT|INTERRES
   195   99  100 1    
   196   99  220 1    
   197  100  101 1    
   198  100  102 1    
   199  100  221 1    
   200  101  222 1    
   201  101  223 1    
   202  101  224 1    
   203  102  103 2    
   204  102  104 am   BACKBONE|DICT|INTERRES
   205  104  105 1    
   206  104  225 1    
   207  105  106 1    
   208  105  107 1    
   209  105  226 1    
   210  106  227 1    
   211  106  228 1    
   212  106  229 1    
   213  107  108 2    
   214  107  109 am   BACKBONE|DICT|INTERRES
   215  109  110 1    
   216  109  230 1    
   217  110  111 1    
   218  110  112 1    
   219  110  231 1    
   220  111  232 1    
   221  111  233 1    
   222  111  234 1    
   223  112  113 2    
   224  112  114 am   BACKBONE|DICT|INTERRES
   225  114  115 1    
   226  114  235 1    
   227  115  116 1    
   228  115  117 1    
   229  115  236 1    
   230  116  237 1    
   231  116  238 1    
   232  116  239 1    
   233  117  118 2    
   234  117  119 am   BACKBONE|DICT|INTERRES
   235  119  120 1    
   236  119  240 1    
   237  120  121 1    
   238  120  124 1    
   239  120  241 1    
   240  121  122 am   BACKBONE|DICT|INTERRES
   241  121  123 2    
   242  122  242 1    
   243  122  243 1    
   244  124  125 1    
   245  124  244 1    
   246  124  245 1    
   247  125  126 1    
   248  126  246 1    
   249  126  247 1    
@<TRIPOS>SUBSTRUCTURE
     1 UNK         1 GROUP             0       ****    0 ROOT    
