@<TRIPOS>MOLECULE
3R540
247   249    1
SMALL
USER_CHARGES


@<TRIPOS>ATOM
      1 CA          0.0656  -12.2911  -52.8443 C.3       0 UNK        -0.1800 
      2 C          -0.5362  -12.2769  -51.4463 C.2       0 UNK         0.5000 
      3 O          -1.5103  -11.5642  -51.2061 O.2       0 UNK        -0.5000 
      4 N           0.0416  -13.0635  -50.5281 N.am      1 UNK        -0.5000 
      5 CA         -0.3862  -13.2267  -49.1309 C.3       1 UNK         0.1400 
      6 C6         -1.8329  -13.7891  -48.9954 C.3       23 UNK        -0.0398 
      7 S7         -1.9377  -15.1122  -47.7446 S.3       23 UNK        -0.2404 
      8 C8         -2.2478  -16.5832  -48.7724 C.3       23 UNK        -0.0205 
      9 C9         -1.0528  -16.9775  -49.6307 C.ar      23 UNK        -0.0193 
     10 C10        -0.9504  -16.5328  -50.9525 C.ar      23 UNK        -0.1150 
     11 C11         0.1199  -16.9326  -51.7556 C.ar      23 UNK        -0.0193 
     12 C12         1.0730  -17.8164  -51.2398 C.ar      23 UNK        -0.1150 
     13 C13         0.9780  -18.2819  -49.9241 C.ar      23 UNK        -0.0193 
     14 C14        -0.0738  -17.8331  -49.1175 C.ar      23 UNK        -0.1150 
     15 C15         2.0143  -19.2631  -49.3868 C.3       23 UNK        -0.0205 
     16 S16         1.4060  -20.9875  -49.3646 S.3       23 UNK        -0.2404 
     17 C17         0.7944  -21.0883  -47.6556 C.3       23 UNK        -0.0398 
     18 CA         -0.0147  -22.3508  -47.2705 C.3       11 UNK         0.1400 
     19 N          -0.1510  -22.4429  -45.8119 N.am      11 UNK        -0.5000 
     20 C          -0.8113  -23.3767  -45.1107 C.2       10 UNK         0.5000 
     21 O          -1.3334  -24.3778  -45.6066 O.2       10 UNK        -0.5000 
     22 CA         -0.9477  -23.1208  -43.5969 C.3       10 UNK         0.1400 
     23 CB          0.3178  -23.5707  -42.8527 C.3       10 UNK        -0.1800 
     24 N          -1.2417  -21.7200  -43.2744 N.am      10 UNK        -0.5000 
     25 C          -2.3492  -21.0648  -43.6571 C.2       9 UNK         0.5000 
     26 O          -3.2574  -21.5827  -44.3028 O.2       9 UNK        -0.5000 
     27 CA         -2.4294  -19.5620  -43.3282 C.3       9 UNK         0.1400 
     28 CB         -2.7856  -19.3237  -41.8535 C.3       9 UNK        -0.1800 
     29 N          -1.1881  -18.8689  -43.6689 N.am      9 UNK        -0.5000 
     30 C          -0.7205  -18.7553  -44.9196 C.2       8 UNK         0.5000 
     31 O          -1.3485  -19.1197  -45.9146 O.2       8 UNK        -0.5000 
     32 CA          0.7084  -18.2062  -45.0823 C.3       8 UNK         0.1400 
     33 CB          0.7035  -16.6835  -45.2524 C.3       8 UNK        -0.1800 
     34 N           1.5767  -18.5791  -43.9644 N.am      8 UNK        -0.5000 
     35 C           2.0546  -19.8155  -43.7633 C.2       7 UNK         0.5000 
     36 O           1.8285  -20.7606  -44.5162 O.2       7 UNK        -0.5000 
     37 CA          2.8838  -20.0482  -42.4866 C.3       7 UNK         0.1400 
     38 CB          4.3384  -19.6023  -42.6966 C.3       7 UNK        -0.1800 
     39 N           2.3274  -19.3572  -41.3241 N.am      7 UNK        -0.5000 
     40 C           1.1373  -19.6353  -40.7729 C.2       6 UNK         0.5000 
     41 O           0.4198  -20.5658  -41.1393 O.2       6 UNK        -0.5000 
     42 CA          0.6416  -18.6774  -39.6690 C.3       6 UNK         0.1400 
     43 CB          1.0528  -19.1957  -38.2833 C.3       6 UNK        -0.1800 
     44 N           1.1182  -17.2981  -39.8327 N.am      6 UNK        -0.5000 
     45 C           0.8692  -16.5271  -40.9004 C.2       5 UNK         0.5000 
     46 O           0.1731  -16.8972  -41.8494 O.2       5 UNK        -0.5000 
     47 CA          1.5772  -15.1585  -40.9358 C.3       5 UNK         0.1400 
     48 CB          3.1040  -15.3388  -41.0054 C.3       5 UNK        -0.1800 
     49 N           1.1688  -14.3717  -42.0963 N.am      5 UNK        -0.5000 
     50 C           0.0456  -13.6579  -42.2111 C.2       4 UNK         0.5000 
     51 O          -0.7524  -13.4996  -41.2849 O.2       4 UNK        -0.5000 
     52 CA         -0.2107  -13.0035  -43.5905 C.3       4 UNK         0.1400 
     53 CB         -1.4759  -12.1268  -43.6021 C.3       4 UNK        -0.1800 
     54 N           0.9153  -12.2012  -44.0833 N.am      4 UNK        -0.5000 
     55 C           2.0777  -12.6678  -44.5575 C.2       3 UNK         0.5000 
     56 O           2.3662  -13.8647  -44.5961 O.2       3 UNK        -0.5000 
     57 CA          3.0523  -11.6210  -45.1230 C.3       3 UNK         0.1400 
     58 CB          4.4700  -12.1834  -45.3321 C.3       3 UNK        -0.1800 
     59 N           2.5377  -11.1509  -46.4053 N.am      3 UNK        -0.5000 
     60 C           1.7490  -10.0830  -46.5746 C.2       2 UNK         0.5000 
     61 O           1.4410   -9.3077  -45.6685 O.2       2 UNK        -0.5000 
     62 CA          1.1786   -9.8733  -47.9903 C.3       2 UNK         0.1400 
     63 CB          2.1673   -9.0869  -48.8645 C.3       2 UNK        -0.1800 
     64 N           0.8304  -11.1293  -48.6630 N.am      2 UNK        -0.5000 
     65 C          -0.1456  -11.9623  -48.2678 C.2       1 UNK         0.5000 
     66 O          -0.8363  -11.7572  -47.2689 O.2       1 UNK        -0.5000 
     67 C          -1.3905  -22.4175  -47.9622 C.2       11 UNK         0.5000 
     68 O          -1.6276  -23.3332  -48.7531 O.2       11 UNK        -0.5000 
     69 N          -2.2926  -21.4968  -47.5956 N.am      12 UNK        -0.5000 
     70 CA         -3.6660  -21.4511  -48.0960 C.3       12 UNK         0.1400 
     71 CB         -4.3223  -20.1335  -47.6618 C.3       12 UNK        -0.1800 
     72 C          -4.5266  -22.6545  -47.6696 C.2       12 UNK         0.5000 
     73 O          -5.3594  -23.1012  -48.4564 O.2       12 UNK        -0.5000 
     74 N          -4.3282  -23.1513  -46.4418 N.am      13 UNK        -0.5000 
     75 CA         -5.0972  -24.2563  -45.8738 C.3       13 UNK         0.1400 
     76 CB         -4.8542  -24.3507  -44.3599 C.3       13 UNK        -0.1800 
     77 C          -4.8198  -25.6097  -46.5469 C.2       13 UNK         0.5000 
     78 O          -5.7764  -26.3057  -46.8924 O.2       13 UNK        -0.5000 
     79 N          -3.5386  -25.9787  -46.6962 N.am      14 UNK        -0.5000 
     80 CA         -3.1611  -27.3194  -47.1528 C.3       14 UNK         0.1400 
     81 CB         -3.3315  -28.3334  -46.0039 C.3       14 UNK        -0.1800 
     82 C          -1.7454  -27.4311  -47.7351 C.2       14 UNK         0.5000 
     83 O          -1.5372  -28.2923  -48.5909 O.2       14 UNK        -0.5000 
     84 N          -0.7854  -26.6190  -47.2650 N.am      15 UNK        -0.5000 
     85 CA          0.6304  -26.7694  -47.6304 C.3       15 UNK         0.1400 
     86 CB          1.5236  -26.0298  -46.6227 C.3       15 UNK        -0.1800 
     87 C           0.9452  -26.3779  -49.0890 C.2       15 UNK         0.5000 
     88 O           1.9084  -26.8968  -49.6551 O.2       15 UNK        -0.5000 
     89 N           0.1063  -25.5208  -49.6814 N.am      16 UNK        -0.5000 
     90 CA          0.0423  -25.2690  -51.1211 C.3       16 UNK         0.1400 
     91 CB          0.5487  -23.8543  -51.4326 C.3       16 UNK        -0.1800 
     92 C          -1.3938  -25.4634  -51.6355 C.2       16 UNK         0.5000 
     93 O          -1.5700  -25.9519  -52.7519 O.2       16 UNK        -0.5000 
     94 N          -2.3916  -25.0853  -50.8191 N.am      17 UNK        -0.5000 
     95 CA         -3.8447  -25.2108  -51.0053 C.3       17 UNK         0.1400 
     96 CB         -4.2701  -26.6734  -51.2324 C.3       17 UNK        -0.1800 
     97 C          -4.4173  -24.2771  -52.0884 C.2       17 UNK         0.5000 
     98 O          -5.3852  -23.5630  -51.8282 O.2       17 UNK        -0.5000 
     99 N          -3.7781  -24.2411  -53.2653 N.am      18 UNK        -0.5000 
    100 CA        -4.0769  -23.3191  -54.3674 C.3       18 UNK         0.1400 
    101 CB        -3.2304  -23.7052  -55.5884 C.3       18 UNK        -0.1800 
    102 C         -3.8391  -21.8427  -53.9934 C.2       18 UNK         0.5000 
    103 O         -4.4804  -20.9533  -54.5548 O.2       18 UNK        -0.5000 
    104 N         -2.9619  -21.6196  -53.0053 N.am      19 UNK        -0.5000 
    105 CA        -2.6378  -20.3378  -52.3812 C.3       19 UNK         0.1400 
    106 CB        -1.4949  -20.5656  -51.3892 C.3       19 UNK        -0.1800 
    107 C         -3.8215  -19.6261  -51.6931 C.2       19 UNK         0.5000 
    108 O         -3.7096  -18.4390  -51.3925 O.2       19 UNK        -0.5000 
    109 N         -4.9471  -20.3287  -51.4885 N.am      20 UNK        -0.5000 
    110 CA        -6.2218  -19.7349  -51.0765 C.3       20 UNK         0.1400 
    111 CB        -7.2399  -20.8534  -50.8140 C.3       20 UNK        -0.1800 
    112 C         -6.7756  -18.7280  -52.1078 C.2       20 UNK         0.5000 
    113 O         -7.4529  -17.7765  -51.7173 O.2       20 UNK        -0.5000 
    114 N         -6.4504  -18.9402  -53.3907 N.am      21 UNK        -0.5000 
    115 CA        -6.6680  -17.9885  -54.4774 C.3       21 UNK         0.1400 
    116 CB        -7.3323  -18.7108  -55.6607 C.3       21 UNK        -0.1800 
    117 C         -5.3292  -17.3604  -54.9013 C.2       21 UNK         0.5000 
    118 O         -5.2414  -16.1385  -55.0233 O.2       21 UNK        -0.5000 
    119 N         -4.3121  -18.2100  -55.1052 N.am      22 UNK        -0.5000 
    120 CA        -2.9512  -17.8629  -55.5466 C.3       22 UNK         0.1400 
    121 C         -2.8596  -17.2674  -56.9882 C.2       22 UNK         0.5000 
    122 N         -3.8407  -17.4946  -57.8537 N.am      22 UNK        -0.7600 
    123 O         -1.8847  -16.6113  -57.3443 O.2       22 UNK        -0.5000 
    124 C124       -2.1613  -17.0516  -54.4769 C.3       23 UNK        -0.0398 
    125 S125       -0.4051  -17.5485  -54.4112 S.3       23 UNK        -0.2404 
    126 C126        0.2623  -16.3972  -53.1726 C.3       23 UNK        -0.0205 
    127 H127       -0.6759  -12.6298  -53.5678 H         1 UNK         0.0600 
    128 H128        0.9295  -12.9533  -52.9082 H         1 UNK         0.0600 
    129 H129        0.3850  -11.2876  -53.1257 H         1 UNK         0.0600 
    130 H130        0.8384  -13.6236  -50.7976 H         1 UNK         0.3000 
    131 H131        0.3069  -13.9704  -48.7342 H         1 UNK         0.0600 
    132 H132       -2.1870  -14.1838  -49.9461 H         1 UNK         0.0800 
    133 H133       -2.5539  -13.0086  -48.7461 H         1 UNK         0.0800 
    134 H134       -3.1279  -16.4212  -49.3970 H         1 UNK         0.0800 
    135 H135       -2.4986  -17.4100  -48.1077 H         1 UNK         0.0800 
    136 H136       -1.7079  -15.8813  -51.3626 H         1 UNK         0.1150 
    137 H137        1.8894  -18.1440  -51.8680 H         1 UNK         0.1150 
    138 H138       -0.1564  -18.1664  -48.0960 H         1 UNK         0.1150 
    139 H139        2.9126  -19.2275  -50.0049 H         1 UNK         0.0800 
    140 H140        2.3304  -18.9585  -48.3880 H         1 UNK         0.0800 
    141 H141        0.2106  -20.1988  -47.4568 H         1 UNK         0.0800 
    142 H142        1.6800  -21.0206  -47.0247 H         1 UNK         0.0800 
    143 H143        0.5533  -23.2159  -47.6078 H         1 UNK         0.0600 
    144 H144        0.3090  -21.7075  -45.2836 H         1 UNK         0.3000 
    145 H145       -1.7807  -23.7239  -43.2329 H         1 UNK         0.0600 
    146 H146        0.1991  -23.4629  -41.7744 H         1 UNK         0.0600 
    147 H147        1.1914  -22.9912  -43.1507 H         1 UNK         0.0600 
    148 H148        0.5361  -24.6204  -43.0534 H         1 UNK         0.0600 
    149 H149       -0.5590  -21.2314  -42.7024 H         1 UNK         0.3000 
    150 H150       -3.2263  -19.1299  -43.9374 H         1 UNK         0.0600 
    151 H151       -3.7668  -19.7399  -41.6226 H         1 UNK         0.0600 
    152 H152       -2.8200  -18.2589  -41.6219 H         1 UNK         0.0600 
    153 H153       -2.0701  -19.7910  -41.1789 H         1 UNK         0.0600 
    154 H154       -0.6400  -18.4832  -42.9083 H         1 UNK         0.3000 
    155 H155        1.1317  -18.6336  -45.9921 H         1 UNK         0.0600 
    156 H156        0.1151  -16.3933  -46.1218 H         1 UNK         0.0600 
    157 H157        1.7134  -16.3054  -45.4074 H         1 UNK         0.0600 
    158 H158        0.2804  -16.1778  -44.3855 H         1 UNK         0.0600 
    159 H159        1.7341  -17.8706  -43.2623 H         1 UNK         0.3000 
    160 H160        2.8808  -21.1202  -42.2778 H         1 UNK         0.0600 
    161 H161        4.4102  -18.5299  -42.8827 H         1 UNK         0.0600 
    162 H162        4.7834  -20.1145  -43.5508 H         1 UNK         0.0600 
    163 H163        4.9512  -19.8338  -41.8253 H         1 UNK         0.0600 
    164 H164        2.8585  -18.5834  -40.9542 H         1 UNK         0.3000 
    165 H165       -0.4488  -18.6580  -39.7165 H         1 UNK         0.0600 
    166 H166        0.6344  -18.5761  -37.4899 H         1 UNK         0.0600 
    167 H167        0.6914  -20.2126  -38.1240 H         1 UNK         0.0600 
    168 H168        2.1368  -19.2099  -38.1635 H         1 UNK         0.0600 
    169 H169        1.6983  -16.9340  -39.0905 H         1 UNK         0.3000 
    170 H170        1.3227  -14.6144  -40.0241 H         1 UNK         0.0600 
    171 H171        3.4023  -15.9101  -41.8857 H         1 UNK         0.0600 
    172 H172        3.6105  -14.3743  -41.0494 H         1 UNK         0.0600 
    173 H173        3.4875  -15.8598  -40.1276 H         1 UNK         0.0600 
    174 H174        1.7514  -14.4445  -42.9260 H         1 UNK         0.3000 
    175 H175       -0.3757  -13.8179  -44.2987 H         1 UNK         0.0600 
    176 H176       -1.3858  -11.2812  -42.9192 H         1 UNK         0.0600 
    177 H177       -1.6733  -11.7332  -44.5994 H         1 UNK         0.0600 
    178 H178       -2.3545  -12.7006  -43.3046 H         1 UNK         0.0600 
    179 H179        0.7653  -11.2019  -44.1080 H         1 UNK         0.3000 
    180 H180        3.1201  -10.7970  -44.4095 H         1 UNK         0.0600 
    181 H181        5.1481  -11.4114  -45.6964 H         1 UNK         0.0600 
    182 H182        4.4808  -13.0034  -46.0513 H         1 UNK         0.0600 
    183 H183        4.8811  -12.5615  -44.3953 H         1 UNK         0.0600 
    184 H184        2.7001  -11.7527  -47.1994 H         1 UNK         0.3000 
    185 H185        0.2659   -9.2814  -47.8932 H         1 UNK         0.0600 
    186 H186        3.0937   -9.6400  -49.0242 H         1 UNK         0.0600 
    187 H187        1.7375   -8.8617  -49.8408 H         1 UNK         0.0600 
    188 H188        2.4287   -8.1358  -48.3987 H         1 UNK         0.0600 
    189 H189        1.3433  -11.3558  -49.5024 H         1 UNK         0.3000 
    190 H190       -2.0308  -20.7852  -46.9203 H         1 UNK         0.3000 
    191 H191       -3.6251  -21.4630  -49.1861 H         1 UNK         0.0600 
    192 H192       -4.2704  -19.9948  -46.5811 H         1 UNK         0.0600 
    193 H193       -5.3742  -20.1037  -47.9482 H         1 UNK         0.0600 
    194 H194       -3.8349  -19.2833  -48.1362 H         1 UNK         0.0600 
    195 H195       -3.6809  -22.6790  -45.8171 H         1 UNK         0.3000 
    196 H196       -6.1556  -24.0297  -46.0204 H         1 UNK         0.0600 
    197 H197       -5.1623  -23.4367  -43.8525 H         1 UNK         0.0600 
    198 H198       -3.8037  -24.5267  -44.1316 H         1 UNK         0.0600 
    199 H199       -5.4257  -25.1703  -43.9225 H         1 UNK         0.0600 
    200 H200       -2.7991  -25.3491  -46.3976 H         1 UNK         0.3000 
    201 H201       -3.8348  -27.6076  -47.9628 H         1 UNK         0.0600 
    202 H202       -4.3699  -28.4040  -45.6806 H         1 UNK         0.0600 
    203 H203       -2.7293  -28.0576  -45.1374 H         1 UNK         0.0600 
    204 H204       -3.0254  -29.3341  -46.3121 H         1 UNK         0.0600 
    205 H205       -1.0044  -25.9075  -46.5726 H         1 UNK         0.3000 
    206 H206        0.8762  -27.8301  -47.5421 H         1 UNK         0.0600 
    207 H207        2.5783  -26.1593  -46.8686 H         1 UNK         0.0600 
    208 H208        1.3253  -24.9627  -46.5973 H         1 UNK         0.0600 
    209 H209        1.3771  -26.4160  -45.6139 H         1 UNK         0.0600 
    210 H210       -0.6375  -25.1189  -49.1248 H         1 UNK         0.3000 
    211 H211        0.6702  -25.9829  -51.6584 H         1 UNK         0.0600 
    212 H212       -0.0498  -23.0967  -50.9300 H         1 UNK         0.0600 
    213 H213        0.5095  -23.6489  -52.5030 H         1 UNK         0.0600 
    214 H214        1.5831  -23.7282  -51.1129 H         1 UNK         0.0600 
    215 H215       -2.1320  -24.5609  -49.9861 H         1 UNK         0.3000 
    216 H216       -4.2822  -24.8972  -50.0572 H         1 UNK         0.0600 
    217 H217       -5.3568  -26.7648  -51.2231 H         1 UNK         0.0600 
    218 H218       -3.8820  -27.3230  -50.4483 H         1 UNK         0.0600 
    219 H219       -3.9206  -27.0596  -52.1901 H         1 UNK         0.0600 
    220 H220       -2.9841  -24.8658  -53.3816 H         1 UNK         0.3000 
    221 H221       -5.1319  -23.4287  -54.6258 H         1 UNK         0.0600 
    222 H222       -2.1627  -23.6361  -55.3758 H         1 UNK         0.0600 
    223 H223       -3.4430  -24.7254  -55.9084 H         1 UNK         0.0600 
    224 H224       -3.4413  -23.0491  -56.4341 H         1 UNK         0.0600 
    225 H225       -2.5004  -22.4271  -52.6152 H         1 UNK         0.3000 
    226 H226       -2.2790  -19.6702  -53.1646 H         1 UNK         0.0600 
    227 H227       -0.5731  -20.8369  -51.9039 H         1 UNK         0.0600 
    228 H228       -1.2900  -19.6639  -50.8161 H         1 UNK         0.0600 
    229 H229       -1.7321  -21.3544  -50.6780 H         1 UNK         0.0600 
    230 H230       -4.9675  -21.3105  -51.7352 H         1 UNK         0.3000 
    231 H231       -6.0554  -19.1929  -50.1437 H         1 UNK         0.0600 
    232 H232       -8.1955  -20.4440  -50.4844 H         1 UNK         0.0600 
    233 H233       -6.8904  -21.5297  -50.0345 H         1 UNK         0.0600 
    234 H234       -7.4260  -21.4458  -51.7108 H         1 UNK         0.0600 
    235 H235       -5.8759  -19.7451  -53.6113 H         1 UNK         0.3000 
    236 H236       -7.3308  -17.1812  -54.1591 H         1 UNK         0.0600 
    237 H237       -6.7286  -19.5454  -56.0197 H         1 UNK         0.0600 
    238 H238       -8.3089  -19.1045  -55.3789 H         1 UNK         0.0600 
    239 H239       -7.4861  -18.0292  -56.4982 H         1 UNK         0.0600 
    240 H240       -4.4777  -19.2075  -54.9912 H         1 UNK         0.3000 
    241 H241       -2.4697  -18.8372  -55.6382 H         1 UNK         0.0600 
    242 H242       -3.7767  -17.1153  -58.7855 H         1 UNK         0.3800 
    243 H243       -4.6444  -18.0406  -57.5888 H         1 UNK         0.3800 
    244 H244       -2.2413  -15.9783  -54.6567 H         1 UNK         0.0800 
    245 H245       -2.5795  -17.2168  -53.4841 H         1 UNK         0.0800 
    246 H246       -0.2216  -15.4241  -53.2684 H         1 UNK         0.0800 
    247 H247        1.3184  -16.2294  -53.3884 H         1 UNK         0.0800 
@<TRIPOS>BOND
     1    1    2 1    
     2    1  127 1    
     3    1  128 1    
     4    1  129 1    
     5    2    3 2    
     6    2    4 am   BACKBONE|DICT|INTERRES
     7    4    5 1    
     8    4  130 1    
     9    5    6 1    
    10    5   65 1    
    11    5  131 1    
    12    6    7 1    
    13    6  132 1    
    14    6  133 1    
    15    7    8 1    
    16    8    9 1    
    17    8  134 1    
    18    8  135 1    
    19    9   10 ar   
    20    9   14 ar   
    21   10   11 ar   
    22   10  136 1    
    23   11   12 ar   
    24   11  126 1    
    25   12   13 ar   
    26   12  137 1    
    27   13   14 ar   
    28   13   15 1    
    29   14  138 1    
    30   15   16 1    
    31   15  139 1    
    32   15  140 1    
    33   16   17 1    
    34   17   18 1    
    35   17  141 1    
    36   17  142 1    
    37   18   19 1    
    38   18   67 1    
    39   18  143 1    
    40   19   20 am   BACKBONE|DICT|INTERRES
    41   19  144 1    
    42   20   21 2    
    43   20   22 1    
    44   22   23 1    
    45   22   24 1    
    46   22  145 1    
    47   23  146 1    
    48   23  147 1    
    49   23  148 1    
    50   24   25 am   BACKBONE|DICT|INTERRES
    51   24  149 1    
    52   25   26 2    
    53   25   27 1    
    54   27   28 1    
    55   27   29 1    
    56   27  150 1    
    57   28  151 1    
    58   28  152 1    
    59   28  153 1    
    60   29   30 am   BACKBONE|DICT|INTERRES
    61   29  154 1    
    62   30   31 2    
    63   30   32 1    
    64   32   33 1    
    65   32   34 1    
    66   32  155 1    
    67   33  156 1    
    68   33  157 1    
    69   33  158 1    
    70   34   35 am   BACKBONE|DICT|INTERRES
    71   34  159 1    
    72   35   36 2    
    73   35   37 1    
    74   37   38 1    
    75   37   39 1    
    76   37  160 1    
    77   38  161 1    
    78   38  162 1    
    79   38  163 1    
    80   39   40 am   BACKBONE|DICT|INTERRES
    81   39  164 1    
    82   40   41 2    
    83   40   42 1    
    84   42   43 1    
    85   42   44 1    
    86   42  165 1    
    87   43  166 1    
    88   43  167 1    
    89   43  168 1    
    90   44   45 am   BACKBONE|DICT|INTERRES
    91   44  169 1    
    92   45   46 2    
    93   45   47 1    
    94   47   48 1    
    95   47   49 1    
    96   47  170 1    
    97   48  171 1    
    98   48  172 1    
    99   48  173 1    
   100   49   50 am   BACKBONE|DICT|INTERRES
   101   49  174 1    
   102   50   51 2    
   103   50   52 1    
   104   52   53 1    
   105   52   54 1    
   106   52  175 1    
   107   53  176 1    
   108   53  177 1    
   109   53  178 1    
   110   54   55 am   BACKBONE|DICT|INTERRES
   111   54  179 1    
   112   55   56 2    
   113   55   57 1    
   114   57   58 1    
   115   57   59 1    
   116   57  180 1    
   117   58  181 1    
   118   58  182 1    
   119   58  183 1    
   120   59   60 am   BACKBONE|DICT|INTERRES
   121   59  184 1    
   122   60   61 2    
   123   60   62 1    
   124   62   63 1    
   125   62   64 1    
   126   62  185 1    
   127   63  186 1    
   128   63  187 1    
   129   63  188 1    
   130   64   65 am   BACKBONE|DICT|INTERRES
   131   64  189 1    
   132   65   66 2    
   133   67   68 2    
   134   67   69 am   BACKBONE|DICT|INTERRES
   135   69   70 1    
   136   69  190 1    
   137   70   71 1    
   138   70   72 1    
   139   70  191 1    
   140   71  192 1    
   141   71  193 1    
   142   71  194 1    
   143   72   73 2    
   144   72   74 am   BACKBONE|DICT|INTERRES
   145   74   75 1    
   146   74  195 1    
   147   75   76 1    
   148   75   77 1    
   149   75  196 1    
   150   76  197 1    
   151   76  198 1    
   152   76  199 1    
   153   77   78 2    
   154   77   79 am   BACKBONE|DICT|INTERRES
   155   79   80 1    
   156   79  200 1    
   157   80   81 1    
   158   80   82 1    
   159   80  201 1    
   160   81  202 1    
   161   81  203 1    
   162   81  204 1    
   163   82   83 2    
   164   82   84 am   BACKBONE|DICT|INTERRES
   165   84   85 1    
   166   84  205 1    
   167   85   86 1    
   168   85   87 1    
   169   85  206 1    
   170   86  207 1    
   171   86  208 1    
   172   86  209 1    
   173   87   88 2    
   174   87   89 am   BACKBONE|DICT|INTERRES
   175   89   90 1    
   176   89  210 1    
   177   90   91 1    
   178   90   92 1    
   179   90  211 1    
   180   91  212 1    
   181   91  213 1    
   182   91  214 1    
   183   92   93 2    
   184   92   94 am   BACKBONE|DICT|INTERRES
   185   94   95 1    
   186   94  215 1    
   187   95   96 1    
   188   95   97 1    
   189   95  216 1    
   190   96  217 1    
   191   96  218 1    
   192   96  219 1    
   193   97   98 2    
   194   97   99 am   BACKBONE|DICT|INTERRES
   195   99  100 1    
   196   99  220 1    
   197  100  101 1    
   198  100  102 1    
   199  100  221 1    
   200  101  222 1    
   201  101  223 1    
   202  101  224 1    
   203  102  103 2    
   204  102  104 am   BACKBONE|DICT|INTERRES
   205  104  105 1    
   206  104  225 1    
   207  105  106 1    
   208  105  107 1    
   209  105  226 1    
   210  106  227 1    
   211  106  228 1    
   212  106  229 1    
   213  107  108 2    
   214  107  109 am   BACKBONE|DICT|INTERRES
   215  109  110 1    
   216  109  230 1    
   217  110  111 1    
   218  110  112 1    
   219  110  231 1    
   220  111  232 1    
   221  111  233 1    
   222  111  234 1    
   223  112  113 2    
   224  112  114 am   BACKBONE|DICT|INTERRES
   225  114  115 1    
   226  114  235 1    
   227  115  116 1    
   228  115  117 1    
   229  115  236 1    
   230  116  237 1    
   231  116  238 1    
   232  116  239 1    
   233  117  118 2    
   234  117  119 am   BACKBONE|DICT|INTERRES
   235  119  120 1    
   236  119  240 1    
   237  120  121 1    
   238  120  124 1    
   239  120  241 1    
   240  121  122 am   BACKBONE|DICT|INTERRES
   241  121  123 2    
   242  122  242 1    
   243  122  243 1    
   244  124  125 1    
   245  124  244 1    
   246  124  245 1    
   247  125  126 1    
   248  126  246 1    
   249  126  247 1    
@<TRIPOS>SUBSTRUCTURE
     1 UNK         1 GROUP             0       ****    0 ROOT    
