@<TRIPOS>MOLECULE
3R540
247   249    1
SMALL
USER_CHARGES


@<TRIPOS>ATOM
      1 CA         -0.2714  -11.9695  -45.1063 C.3       0 UNK        -0.1800 
      2 C           0.9677  -11.9245  -45.9894 C.2       0 UNK         0.5000 
      3 O           2.0475  -12.2877  -45.5302 O.2       0 UNK        -0.5000 
      4 N           0.8046  -11.4859  -47.2466 N.am      1 UNK        -0.5000 
      5 CA          1.8300  -11.3524  -48.2940 C.3       1 UNK         0.1400 
      6 C6          2.1129  -12.6825  -49.0598 C.3       23 UNK        -0.0398 
      7 S7          3.0125  -13.9855  -48.1387 S.3       23 UNK        -0.2404 
      8 C8          1.6678  -15.1168  -47.6634 C.3       23 UNK        -0.0205 
      9 C9          1.4105  -16.1668  -48.7326 C.ar      23 UNK        -0.0193 
     10 C10         0.5130  -15.9141  -49.7748 C.ar      23 UNK        -0.1150 
     11 C11         0.2998  -16.8685  -50.7725 C.ar      23 UNK        -0.0193 
     12 C12         0.9615  -18.0970  -50.7038 C.ar      23 UNK        -0.1150 
     13 C13         1.8521  -18.3678  -49.6620 C.ar      23 UNK        -0.0193 
     14 C14         2.0779  -17.3946  -48.6826 C.ar      23 UNK        -0.1150 
     15 C15         2.5977  -19.6953  -49.6256 C.3       23 UNK        -0.0205 
     16 S16         2.2965  -20.6344  -48.0968 S.3       23 UNK        -0.2404 
     17 C17         0.5036  -20.9575  -48.1961 C.3       23 UNK        -0.0398 
     18 CA          0.1129  -22.2044  -47.3689 C.3       11 UNK         0.1400 
     19 N           0.3375  -22.0216  -45.9309 N.am      11 UNK        -0.5000 
     20 C           0.2863  -23.0055  -45.0231 C.2       10 UNK         0.5000 
     21 O           0.1043  -24.1876  -45.3120 O.2       10 UNK        -0.5000 
     22 CA          0.4003  -22.5996  -43.5418 C.3       10 UNK         0.1400 
     23 CB          1.8684  -22.4253  -43.1259 C.3       10 UNK        -0.1800 
     24 N          -0.3593  -21.3860  -43.2326 N.am      10 UNK        -0.5000 
     25 C          -1.6954  -21.2985  -43.3073 C.2       9 UNK         0.5000 
     26 O          -2.4223  -22.2497  -43.5903 O.2       9 UNK        -0.5000 
     27 CA         -2.3303  -19.9167  -43.0680 C.3       9 UNK         0.1400 
     28 CB         -2.5041  -19.6504  -41.5658 C.3       9 UNK        -0.1800 
     29 N          -1.5717  -18.8257  -43.6789 N.am      9 UNK        -0.5000 
     30 C          -1.3705  -18.6755  -44.9963 C.2       8 UNK         0.5000 
     31 O          -1.8485  -19.4219  -45.8503 O.2       8 UNK        -0.5000 
     32 CA         -0.4231  -17.5370  -45.4240 C.3       8 UNK         0.1400 
     33 CB         -1.1468  -16.1822  -45.4006 C.3       8 UNK        -0.1800 
     34 N           0.7790  -17.4706  -44.5889 N.am      8 UNK        -0.5000 
     35 C           1.6644  -18.4708  -44.4645 C.2       7 UNK         0.5000 
     36 O           1.5849  -19.5330  -45.0766 O.2       7 UNK        -0.5000 
     37 CA          2.7844  -18.2836  -43.4304 C.3       7 UNK         0.1400 
     38 CB          3.9313  -17.4400  -44.0052 C.3       7 UNK        -0.1800 
     39 N           2.2733  -17.6754  -42.2023 N.am      7 UNK        -0.5000 
     40 C           1.5027  -18.3208  -41.3139 C.2       6 UNK         0.5000 
     41 O           1.1945  -19.5079  -41.4161 O.2       6 UNK        -0.5000 
     42 CA          0.9522  -17.4947  -40.1353 C.3       6 UNK         0.1400 
     43 CB          1.9688  -17.4525  -38.9848 C.3       6 UNK        -0.1800 
     44 N           0.5994  -16.1268  -40.5176 N.am      6 UNK        -0.5000 
     45 C          -0.3862  -15.8045  -41.3675 C.2       5 UNK         0.5000 
     46 O          -1.1507  -16.6287  -41.8658 O.2       5 UNK        -0.5000 
     47 CA         -0.5016  -14.3217  -41.7737 C.3       5 UNK         0.1400 
     48 CB         -1.4836  -13.5835  -40.8531 C.3       5 UNK        -0.1800 
     49 N           0.7835  -13.6148  -41.7795 N.am      5 UNK        -0.5000 
     50 C           1.8313  -13.9466  -42.5448 C.2       4 UNK         0.5000 
     51 O           1.8205  -14.8866  -43.3459 O.2       4 UNK        -0.5000 
     52 CA          3.1176  -13.1411  -42.3199 C.3       4 UNK         0.1400 
     53 CB          3.7832  -13.5380  -40.9883 C.3       4 UNK        -0.1800 
     54 N           4.0324  -13.4003  -43.4228 N.am      4 UNK        -0.5000 
     55 C           5.0364  -12.6091  -43.8127 C.2       3 UNK         0.5000 
     56 O           5.3392  -11.5618  -43.2376 O.2       3 UNK        -0.5000 
     57 CA          5.8496  -13.0579  -45.0418 C.3       3 UNK         0.1400 
     58 CB          5.6676  -14.5451  -45.4057 C.3       3 UNK        -0.1800 
     59 N           5.4845  -12.2465  -46.1977 N.am      3 UNK        -0.5000 
     60 C           6.0962  -11.1180  -46.5831 C.2       2 UNK         0.5000 
     61 O           7.0694  -10.6356  -46.0018 O.2       2 UNK        -0.5000 
     62 CA          5.5594  -10.4190  -47.8506 C.3       2 UNK         0.1400 
     63 CB          6.5622  -10.5600  -49.0074 C.3       2 UNK        -0.1800 
     64 N           4.2712  -10.9606  -48.2868 N.am      2 UNK        -0.5000 
     65 C           3.0786  -10.5549  -47.8337 C.2       1 UNK         0.5000 
     66 O           2.9356   -9.5761  -47.0961 O.2       1 UNK        -0.5000 
     67 C          -1.3336  -22.6521  -47.6636 C.2       11 UNK         0.5000 
     68 O          -1.5298  -23.5662  -48.4646 O.2       11 UNK        -0.5000 
     69 N          -2.3176  -22.0594  -46.9725 N.am      12 UNK        -0.5000 
     70 CA         -3.7240  -22.4545  -47.0545 C.3       12 UNK         0.1400 
     71 CB         -4.6022  -21.4298  -46.3227 C.3       12 UNK        -0.1800 
     72 C          -3.9788  -23.8817  -46.5354 C.2       12 UNK         0.5000 
     73 O          -4.7192  -24.6298  -47.1732 O.2       12 UNK        -0.5000 
     74 N          -3.3201  -24.2604  -45.4305 N.am      13 UNK        -0.5000 
     75 CA         -3.3310  -25.6178  -44.8749 C.3       13 UNK         0.1400 
     76 CB         -2.6505  -25.6166  -43.4981 C.3       13 UNK        -0.1800 
     77 C          -2.6789  -26.6581  -45.8089 C.2       13 UNK         0.5000 
     78 O          -3.1193  -27.8073  -45.8399 O.2       13 UNK        -0.5000 
     79 N          -1.6817  -26.2239  -46.5916 N.am      14 UNK        -0.5000 
     80 CA         -1.0438  -26.9861  -47.6685 C.3       14 UNK         0.1400 
     81 CB          0.3744  -26.4357  -47.8956 C.3       14 UNK        -0.1800 
     82 C          -1.8608  -26.9989  -48.9825 C.2       14 UNK         0.5000 
     83 O          -1.3796  -27.5372  -49.9802 O.2       14 UNK        -0.5000 
     84 N          -3.0722  -26.4224  -48.9625 N.am      15 UNK        -0.5000 
     85 CA         -4.0650  -26.3493  -50.0380 C.3       15 UNK         0.1400 
     86 CB         -4.4579  -27.7518  -50.5494 C.3       15 UNK        -0.1800 
     87 C          -3.7072  -25.3725  -51.1752 C.2       15 UNK         0.5000 
     88 O          -4.3227  -25.4396  -52.2397 O.2       15 UNK        -0.5000 
     89 N          -2.7771  -24.4393  -50.9324 N.am      16 UNK        -0.5000 
     90 CA         -2.4758  -23.3197  -51.8239 C.3       16 UNK         0.1400 
     91 CB         -0.9700  -23.0062  -51.7645 C.3       16 UNK        -0.1800 
     92 C          -3.3624  -22.1202  -51.4399 C.2       16 UNK         0.5000 
     93 O          -2.8617  -21.0949  -50.9786 O.2       16 UNK        -0.5000 
     94 N          -4.6774  -22.2949  -51.6060 N.am      17 UNK        -0.5000 
     95 CA         -5.7349  -21.3322  -51.3170 C.3       17 UNK         0.1400 
     96 CB         -5.9050  -21.1578  -49.7950 C.3       17 UNK        -0.1800 
     97 C          -7.0392  -21.8231  -51.9662 C.2       17 UNK         0.5000 
     98 O          -7.0770  -22.9383  -52.4956 O.2       17 UNK        -0.5000 
     99 N          -8.0895  -20.9933  -51.8899 N.am      18 UNK        -0.5000 
    100 CA        -9.4710  -21.2707  -52.3002 C.3       18 UNK         0.1400 
    101 CB       -10.1180  -22.2933  -51.3390 C.3       18 UNK        -0.1800 
    102 C         -9.5672  -21.6667  -53.7867 C.2       18 UNK         0.5000 
    103 O         -9.4102  -20.8012  -54.6480 O.2       18 UNK        -0.5000 
    104 N         -9.7797  -22.9595  -54.0684 N.am      19 UNK        -0.5000 
    105 CA        -9.8261  -23.5383  -55.4141 C.3       19 UNK         0.1400 
    106 CB       -10.2504  -25.0110  -55.3090 C.3       19 UNK        -0.1800 
    107 C         -8.4996  -23.4128  -56.1920 C.2       19 UNK         0.5000 
    108 O         -8.5247  -23.3713  -57.4224 O.2       19 UNK        -0.5000 
    109 N         -7.3749  -23.3233  -55.4685 N.am      20 UNK        -0.5000 
    110 CA        -6.0417  -23.0771  -56.0211 C.3       20 UNK         0.1400 
    111 CB        -5.0105  -23.8483  -55.1816 C.3       20 UNK        -0.1800 
    112 C         -5.6900  -21.5754  -56.0737 C.2       20 UNK         0.5000 
    113 O         -4.5465  -21.2464  -56.3961 O.2       20 UNK        -0.5000 
    114 N         -6.6469  -20.6959  -55.7321 N.am      21 UNK        -0.5000 
    115 CA        -6.5503  -19.2384  -55.5933 C.3       21 UNK         0.1400 
    116 CB        -6.2005  -18.5557  -56.9320 C.3       21 UNK        -0.1800 
    117 C         -5.6044  -18.8362  -54.4489 C.2       21 UNK         0.5000 
    118 O         -6.0721  -18.4621  -53.3736 O.2       21 UNK        -0.5000 
    119 N         -4.2999  -18.9692  -54.6930 N.am      22 UNK        -0.5000 
    120 CA        -3.2105  -18.8436  -53.7200 C.3       22 UNK         0.1400 
    121 C         -1.9691  -19.6992  -54.1247 C.2       22 UNK         0.5000 
    122 N         -2.0936  -20.6759  -55.0192 N.am      22 UNK        -0.7600 
    123 O         -0.8666  -19.4884  -53.6313 O.2       22 UNK        -0.5000 
    124 C124       -2.8952  -17.3602  -53.3759 C.3       23 UNK        -0.0398 
    125 S125       -2.3048  -17.1517  -51.6596 S.3       23 UNK        -0.2404 
    126 C126       -0.6095  -16.5651  -51.9510 C.3       23 UNK        -0.0205 
    127 H127       -0.4961  -13.0004  -44.8354 H         1 UNK         0.0600 
    128 H128       -1.1443  -11.5498  -45.6067 H         1 UNK         0.0600 
    129 H129       -0.0997  -11.4060  -44.1891 H         1 UNK         0.0600 
    130 H130       -0.1159  -11.1762  -47.5238 H         1 UNK         0.3000 
    131 H131        1.3656  -10.6907  -49.0267 H         1 UNK         0.0600 
    132 H132        1.1672  -13.0871  -49.4164 H         1 UNK         0.0800 
    133 H133        2.6768  -12.4727  -49.9699 H         1 UNK         0.0800 
    134 H134        1.9361  -15.6009  -46.7228 H         1 UNK         0.0800 
    135 H135        0.7586  -14.5498  -47.4636 H         1 UNK         0.0800 
    136 H136       -0.0100  -14.9704  -49.8226 H         1 UNK         0.1150 
    137 H137        0.7907  -18.8356  -51.4753 H         1 UNK         0.1150 
    138 H138        2.7750  -17.5952  -47.8809 H         1 UNK         0.1150 
    139 H139        2.3326  -20.3176  -50.4818 H         1 UNK         0.0800 
    140 H140        3.6671  -19.4979  -49.7100 H         1 UNK         0.0800 
    141 H141        0.2349  -21.0905  -49.2453 H         1 UNK         0.0800 
    142 H142       -0.0343  -20.0736  -47.8494 H         1 UNK         0.0800 
    143 H143        0.7586  -23.0244  -47.6906 H         1 UNK         0.0600 
    144 H144        0.5657  -21.0800  -45.6221 H         1 UNK         0.3000 
    145 H145       -0.0197  -23.4117  -42.9449 H         1 UNK         0.0600 
    146 H146        1.9523  -22.1861  -42.0657 H         1 UNK         0.0600 
    147 H147        2.3592  -21.6317  -43.6881 H         1 UNK         0.0600 
    148 H148        2.4317  -23.3432  -43.2982 H         1 UNK         0.0600 
    149 H149        0.1737  -20.5713  -42.9515 H         1 UNK         0.3000 
    150 H150       -3.3215  -19.9249  -43.5255 H         1 UNK         0.0600 
    151 H151       -3.0869  -20.4422  -41.0936 H         1 UNK         0.0600 
    152 H152       -3.0293  -18.7114  -41.3904 H         1 UNK         0.0600 
    153 H153       -1.5443  -19.5975  -41.0520 H         1 UNK         0.0600 
    154 H154       -1.1935  -18.1271  -43.0449 H         1 UNK         0.3000 
    155 H155       -0.0995  -17.7347  -46.4481 H         1 UNK         0.0600 
    156 H156       -1.9431  -16.1577  -46.1453 H         1 UNK         0.0600 
    157 H157       -0.4659  -15.3619  -45.6217 H         1 UNK         0.0600 
    158 H158       -1.6019  -15.9815  -44.4313 H         1 UNK         0.0600 
    159 H159        0.9352  -16.6178  -44.0628 H         1 UNK         0.3000 
    160 H160        3.1856  -19.2690  -43.1837 H         1 UNK         0.0600 
    161 H161        3.5859  -16.4652  -44.3446 H         1 UNK         0.0600 
    162 H162        4.3838  -17.9382  -44.8635 H         1 UNK         0.0600 
    163 H163        4.7177  -17.2825  -43.2671 H         1 UNK         0.0600 
    164 H164        2.4174  -16.6813  -42.0968 H         1 UNK         0.3000 
    165 H165        0.0480  -17.9900  -39.7755 H         1 UNK         0.0600 
    166 H166        1.5597  -16.9365  -38.1159 H         1 UNK         0.0600 
    167 H167        2.2385  -18.4602  -38.6658 H         1 UNK         0.0600 
    168 H168        2.8882  -16.9431  -39.2766 H         1 UNK         0.0600 
    169 H169        1.1752  -15.3859  -40.1471 H         1 UNK         0.3000 
    170 H170       -0.9002  -14.2927  -42.7890 H         1 UNK         0.0600 
    171 H171       -1.1245  -13.5512  -39.8237 H         1 UNK         0.0600 
    172 H172       -2.4572  -14.0756  -40.8463 H         1 UNK         0.0600 
    173 H173       -1.6422  -12.5579  -41.1871 H         1 UNK         0.0600 
    174 H174        0.8706  -12.8389  -41.1390 H         1 UNK         0.3000 
    175 H175        2.8580  -12.0805  -42.3085 H         1 UNK         0.0600 
    176 H176        4.0498  -14.5957  -40.9732 H         1 UNK         0.0600 
    177 H177        4.6928  -12.9635  -40.8130 H         1 UNK         0.0600 
    178 H178        3.1208  -13.3525  -40.1422 H         1 UNK         0.0600 
    179 H179        3.7691  -14.1947  -43.9916 H         1 UNK         0.3000 
    180 H180        6.9040  -12.9078  -44.8005 H         1 UNK         0.0600 
    181 H181        6.3273  -14.8267  -46.2264 H         1 UNK         0.0600 
    182 H182        4.6473  -14.7708  -45.7163 H         1 UNK         0.0600 
    183 H183        5.9148  -15.1894  -44.5611 H         1 UNK         0.0600 
    184 H184        4.6498  -12.5317  -46.6917 H         1 UNK         0.3000 
    185 H185        5.4530   -9.3566  -47.6215 H         1 UNK         0.0600 
    186 H186        6.2144  -10.0344  -49.8970 H         1 UNK         0.0600 
    187 H187        7.5311  -10.1363  -48.7400 H         1 UNK         0.0600 
    188 H188        6.7236  -11.6049  -49.2755 H         1 UNK         0.0600 
    189 H189        4.3111  -11.7745  -48.8840 H         1 UNK         0.3000 
    190 H190       -2.0940  -21.2742  -46.3672 H         1 UNK         0.3000 
    191 H191       -3.9963  -22.4461  -48.1105 H         1 UNK         0.0600 
    192 H192       -4.4617  -20.4284  -46.7300 H         1 UNK         0.0600 
    193 H193       -4.3771  -21.3923  -45.2573 H         1 UNK         0.0600 
    194 H194       -5.6590  -21.6785  -46.4268 H         1 UNK         0.0600 
    195 H195       -2.7823  -23.5643  -44.9202 H         1 UNK         0.3000 
    196 H196       -4.3739  -25.9100  -44.7360 H         1 UNK         0.0600 
    197 H197       -3.1468  -24.9286  -42.8135 H         1 UNK         0.0600 
    198 H198       -1.6032  -25.3232  -43.5660 H         1 UNK         0.0600 
    199 H199       -2.6846  -26.6081  -43.0450 H         1 UNK         0.0600 
    200 H200       -1.3440  -25.2778  -46.4552 H         1 UNK         0.3000 
    201 H201       -0.9485  -28.0246  -47.3455 H         1 UNK         0.0600 
    202 H202        0.9514  -26.4372  -46.9706 H         1 UNK         0.0600 
    203 H203        0.3557  -25.4151  -48.2760 H         1 UNK         0.0600 
    204 H204        0.9206  -27.0431  -48.6181 H         1 UNK         0.0600 
    205 H205       -3.3584  -25.9681  -48.1035 H         1 UNK         0.3000 
    206 H206       -4.9559  -25.9257  -49.5730 H         1 UNK         0.0600 
    207 H207       -3.6561  -28.2154  -51.1243 H         1 UNK         0.0600 
    208 H208       -4.7101  -28.4173  -49.7238 H         1 UNK         0.0600 
    209 H209       -5.3320  -27.6992  -51.1993 H         1 UNK         0.0600 
    210 H210       -2.3484  -24.3943  -50.0113 H         1 UNK         0.3000 
    211 H211       -2.7087  -23.5840  -52.8576 H         1 UNK         0.0600 
    212 H212       -0.6520  -22.7120  -50.7660 H         1 UNK         0.0600 
    213 H213       -0.7168  -22.1891  -52.4409 H         1 UNK         0.0600 
    214 H214       -0.3770  -23.8711  -52.0617 H         1 UNK         0.0600 
    215 H215       -5.0185  -23.1691  -51.9934 H         1 UNK         0.3000 
    216 H216       -5.4682  -20.3748  -51.7617 H         1 UNK         0.0600 
    217 H217       -6.7268  -20.4819  -49.5572 H         1 UNK         0.0600 
    218 H218       -5.0105  -20.7275  -49.3458 H         1 UNK         0.0600 
    219 H219       -6.1108  -22.1096  -49.3039 H         1 UNK         0.0600 
    220 H220       -7.9398  -20.0768  -51.4912 H         1 UNK         0.3000 
    221 H221      -10.0207  -20.3336  -52.1998 H         1 UNK         0.0600 
    222 H222       -9.5860  -23.2451  -51.3227 H         1 UNK         0.0600 
    223 H223      -10.1301  -21.9098  -50.3187 H         1 UNK         0.0600 
    224 H224      -11.1536  -22.4941  -51.6168 H         1 UNK         0.0600 
    225 H225       -9.8590  -23.6069  -53.2976 H         1 UNK         0.3000 
    226 H226      -10.5891  -23.0011  -55.9811 H         1 UNK         0.0600 
    227 H227      -11.2274  -25.1079  -54.8352 H         1 UNK         0.0600 
    228 H228      -10.3229  -25.4685  -56.2966 H         1 UNK         0.0600 
    229 H229       -9.5348  -25.5946  -54.7284 H         1 UNK         0.0600 
    230 H230       -7.4400  -23.3497  -54.4549 H         1 UNK         0.3000 
    231 H231       -5.9903  -23.4559  -57.0437 H         1 UNK         0.0600 
    232 H232       -4.0107  -23.7680  -55.6099 H         1 UNK         0.0600 
    233 H233       -5.2549  -24.9094  -55.1298 H         1 UNK         0.0600 
    234 H234       -4.9606  -23.4686  -54.1624 H         1 UNK         0.0600 
    235 H235       -7.5518  -21.0693  -55.4678 H         1 UNK         0.3000 
    236 H236       -7.5460  -18.8946  -55.3090 H         1 UNK         0.0600 
    237 H237       -5.2340  -18.8689  -57.3262 H         1 UNK         0.0600 
    238 H238       -6.9526  -18.7781  -57.6889 H         1 UNK         0.0600 
    239 H239       -6.1688  -17.4716  -56.8164 H         1 UNK         0.0600 
    240 H240       -4.0295  -19.3351  -55.5974 H         1 UNK         0.3000 
    241 H241       -3.5739  -19.3199  -52.8096 H         1 UNK         0.0600 
    242 H242       -1.2717  -21.2011  -55.2706 H         1 UNK         0.3800 
    243 H243       -2.9793  -20.9059  -55.4614 H         1 UNK         0.3800 
    244 H244       -2.1922  -16.9329  -54.0923 H         1 UNK         0.0800 
    245 H245       -3.7968  -16.7524  -53.4589 H         1 UNK         0.0800 
    246 H246       -0.6298  -15.4931  -52.1525 H         1 UNK         0.0800 
    247 H247       -0.1972  -17.0344  -52.8452 H         1 UNK         0.0800 
@<TRIPOS>BOND
     1    1    2 1    
     2    1  127 1    
     3    1  128 1    
     4    1  129 1    
     5    2    3 2    
     6    2    4 am   BACKBONE|DICT|INTERRES
     7    4    5 1    
     8    4  130 1    
     9    5    6 1    
    10    5   65 1    
    11    5  131 1    
    12    6    7 1    
    13    6  132 1    
    14    6  133 1    
    15    7    8 1    
    16    8    9 1    
    17    8  134 1    
    18    8  135 1    
    19    9   10 ar   
    20    9   14 ar   
    21   10   11 ar   
    22   10  136 1    
    23   11   12 ar   
    24   11  126 1    
    25   12   13 ar   
    26   12  137 1    
    27   13   14 ar   
    28   13   15 1    
    29   14  138 1    
    30   15   16 1    
    31   15  139 1    
    32   15  140 1    
    33   16   17 1    
    34   17   18 1    
    35   17  141 1    
    36   17  142 1    
    37   18   19 1    
    38   18   67 1    
    39   18  143 1    
    40   19   20 am   BACKBONE|DICT|INTERRES
    41   19  144 1    
    42   20   21 2    
    43   20   22 1    
    44   22   23 1    
    45   22   24 1    
    46   22  145 1    
    47   23  146 1    
    48   23  147 1    
    49   23  148 1    
    50   24   25 am   BACKBONE|DICT|INTERRES
    51   24  149 1    
    52   25   26 2    
    53   25   27 1    
    54   27   28 1    
    55   27   29 1    
    56   27  150 1    
    57   28  151 1    
    58   28  152 1    
    59   28  153 1    
    60   29   30 am   BACKBONE|DICT|INTERRES
    61   29  154 1    
    62   30   31 2    
    63   30   32 1    
    64   32   33 1    
    65   32   34 1    
    66   32  155 1    
    67   33  156 1    
    68   33  157 1    
    69   33  158 1    
    70   34   35 am   BACKBONE|DICT|INTERRES
    71   34  159 1    
    72   35   36 2    
    73   35   37 1    
    74   37   38 1    
    75   37   39 1    
    76   37  160 1    
    77   38  161 1    
    78   38  162 1    
    79   38  163 1    
    80   39   40 am   BACKBONE|DICT|INTERRES
    81   39  164 1    
    82   40   41 2    
    83   40   42 1    
    84   42   43 1    
    85   42   44 1    
    86   42  165 1    
    87   43  166 1    
    88   43  167 1    
    89   43  168 1    
    90   44   45 am   BACKBONE|DICT|INTERRES
    91   44  169 1    
    92   45   46 2    
    93   45   47 1    
    94   47   48 1    
    95   47   49 1    
    96   47  170 1    
    97   48  171 1    
    98   48  172 1    
    99   48  173 1    
   100   49   50 am   BACKBONE|DICT|INTERRES
   101   49  174 1    
   102   50   51 2    
   103   50   52 1    
   104   52   53 1    
   105   52   54 1    
   106   52  175 1    
   107   53  176 1    
   108   53  177 1    
   109   53  178 1    
   110   54   55 am   BACKBONE|DICT|INTERRES
   111   54  179 1    
   112   55   56 2    
   113   55   57 1    
   114   57   58 1    
   115   57   59 1    
   116   57  180 1    
   117   58  181 1    
   118   58  182 1    
   119   58  183 1    
   120   59   60 am   BACKBONE|DICT|INTERRES
   121   59  184 1    
   122   60   61 2    
   123   60   62 1    
   124   62   63 1    
   125   62   64 1    
   126   62  185 1    
   127   63  186 1    
   128   63  187 1    
   129   63  188 1    
   130   64   65 am   BACKBONE|DICT|INTERRES
   131   64  189 1    
   132   65   66 2    
   133   67   68 2    
   134   67   69 am   BACKBONE|DICT|INTERRES
   135   69   70 1    
   136   69  190 1    
   137   70   71 1    
   138   70   72 1    
   139   70  191 1    
   140   71  192 1    
   141   71  193 1    
   142   71  194 1    
   143   72   73 2    
   144   72   74 am   BACKBONE|DICT|INTERRES
   145   74   75 1    
   146   74  195 1    
   147   75   76 1    
   148   75   77 1    
   149   75  196 1    
   150   76  197 1    
   151   76  198 1    
   152   76  199 1    
   153   77   78 2    
   154   77   79 am   BACKBONE|DICT|INTERRES
   155   79   80 1    
   156   79  200 1    
   157   80   81 1    
   158   80   82 1    
   159   80  201 1    
   160   81  202 1    
   161   81  203 1    
   162   81  204 1    
   163   82   83 2    
   164   82   84 am   BACKBONE|DICT|INTERRES
   165   84   85 1    
   166   84  205 1    
   167   85   86 1    
   168   85   87 1    
   169   85  206 1    
   170   86  207 1    
   171   86  208 1    
   172   86  209 1    
   173   87   88 2    
   174   87   89 am   BACKBONE|DICT|INTERRES
   175   89   90 1    
   176   89  210 1    
   177   90   91 1    
   178   90   92 1    
   179   90  211 1    
   180   91  212 1    
   181   91  213 1    
   182   91  214 1    
   183   92   93 2    
   184   92   94 am   BACKBONE|DICT|INTERRES
   185   94   95 1    
   186   94  215 1    
   187   95   96 1    
   188   95   97 1    
   189   95  216 1    
   190   96  217 1    
   191   96  218 1    
   192   96  219 1    
   193   97   98 2    
   194   97   99 am   BACKBONE|DICT|INTERRES
   195   99  100 1    
   196   99  220 1    
   197  100  101 1    
   198  100  102 1    
   199  100  221 1    
   200  101  222 1    
   201  101  223 1    
   202  101  224 1    
   203  102  103 2    
   204  102  104 am   BACKBONE|DICT|INTERRES
   205  104  105 1    
   206  104  225 1    
   207  105  106 1    
   208  105  107 1    
   209  105  226 1    
   210  106  227 1    
   211  106  228 1    
   212  106  229 1    
   213  107  108 2    
   214  107  109 am   BACKBONE|DICT|INTERRES
   215  109  110 1    
   216  109  230 1    
   217  110  111 1    
   218  110  112 1    
   219  110  231 1    
   220  111  232 1    
   221  111  233 1    
   222  111  234 1    
   223  112  113 2    
   224  112  114 am   BACKBONE|DICT|INTERRES
   225  114  115 1    
   226  114  235 1    
   227  115  116 1    
   228  115  117 1    
   229  115  236 1    
   230  116  237 1    
   231  116  238 1    
   232  116  239 1    
   233  117  118 2    
   234  117  119 am   BACKBONE|DICT|INTERRES
   235  119  120 1    
   236  119  240 1    
   237  120  121 1    
   238  120  124 1    
   239  120  241 1    
   240  121  122 am   BACKBONE|DICT|INTERRES
   241  121  123 2    
   242  122  242 1    
   243  122  243 1    
   244  124  125 1    
   245  124  244 1    
   246  124  245 1    
   247  125  126 1    
   248  126  246 1    
   249  126  247 1    
@<TRIPOS>SUBSTRUCTURE
     1 UNK         1 GROUP             0       ****    0 ROOT    
