@<TRIPOS>MOLECULE
3R540
247   249    1
SMALL
USER_CHARGES


@<TRIPOS>ATOM
      1 CA          1.9824  -10.3640  -45.6809 C.3       0 UNK        -0.1800 
      2 C           3.0360  -10.7853  -46.6948 C.2       0 UNK         0.5000 
      3 O           4.2301  -10.6667  -46.4232 O.2       0 UNK        -0.5000 
      4 N           2.6040  -11.3045  -47.8513 N.am      1 UNK        -0.5000 
      5 CA          3.4539  -11.8239  -48.9356 C.3       1 UNK         0.1400 
      6 C6          2.6330  -12.1605  -50.2076 C.3       23 UNK        -0.0398 
      7 S7          1.1364  -13.1611  -49.8861 S.3       23 UNK        -0.2404 
      8 C8          1.6824  -14.8390  -50.3647 C.3       23 UNK        -0.0205 
      9 C9          0.6394  -15.9478  -50.1948 C.ar      23 UNK        -0.0193 
     10 C10        -0.6651  -15.7078  -49.7403 C.ar      23 UNK        -0.1150 
     11 C11        -1.5921  -16.7468  -49.6330 C.ar      23 UNK        -0.0193 
     12 C12        -1.2056  -18.0485  -49.9592 C.ar      23 UNK        -0.1150 
     13 C13         0.0934  -18.3120  -50.4011 C.ar      23 UNK        -0.0193 
     14 C14         1.0048  -17.2580  -50.5229 C.ar      23 UNK        -0.1150 
     15 C15         0.5038  -19.7370  -50.7505 C.3       23 UNK        -0.0205 
     16 S16         1.8179  -20.3897  -49.6636 S.3       23 UNK        -0.2404 
     17 C17         1.1043  -20.1769  -47.9960 C.3       23 UNK        -0.0398 
     18 CA          0.4823  -21.4620  -47.4015 C.3       11 UNK         0.1400 
     19 N           0.2889  -21.3391  -45.9551 N.am      11 UNK        -0.5000 
     20 C          -0.0963  -22.3245  -45.1337 C.2       10 UNK         0.5000 
     21 O          -0.2656  -23.4865  -45.4967 O.2       10 UNK        -0.5000 
     22 CA         -0.3980  -21.9378  -43.6737 C.3       10 UNK         0.1400 
     23 CB          0.8879  -21.9076  -42.8353 C.3       10 UNK        -0.1800 
     24 N          -1.0967  -20.6548  -43.5669 N.am      10 UNK        -0.5000 
     25 C          -2.3267  -20.4255  -44.0499 C.2       9 UNK         0.5000 
     26 O          -3.0215  -21.2951  -44.5756 O.2       9 UNK        -0.5000 
     27 CA         -2.8485  -18.9773  -43.9836 C.3       9 UNK         0.1400 
     28 CB         -3.4065  -18.6550  -42.5898 C.3       9 UNK        -0.1800 
     29 N          -1.8257  -17.9951  -44.3470 N.am      9 UNK        -0.5000 
     30 C          -1.2689  -17.8953  -45.5626 C.2       8 UNK         0.5000 
     31 O          -1.6169  -18.5785  -46.5256 O.2       8 UNK        -0.5000 
     32 CA         -0.0830  -16.9211  -45.7076 C.3       8 UNK         0.1400 
     33 CB         -0.5596  -15.4787  -45.9311 C.3       8 UNK        -0.1800 
     34 N           0.8126  -16.9657  -44.5499 N.am      8 UNK        -0.5000 
     35 C           1.5553  -18.0294  -44.2122 C.2       7 UNK         0.5000 
     36 O           1.6000  -19.0631  -44.8751 O.2       7 UNK        -0.5000 
     37 CA          2.3362  -17.9510  -42.8894 C.3       7 UNK         0.1400 
     38 CB          3.6947  -17.2636  -43.0808 C.3       7 UNK        -0.1800 
     39 N           1.5746  -17.2662  -41.8466 N.am      7 UNK        -0.5000 
     40 C           0.4840  -17.7759  -41.2570 C.2       6 UNK         0.5000 
     41 O           0.0403  -18.8982  -41.4968 O.2       6 UNK        -0.5000 
     42 CA         -0.2599  -16.8571  -40.2711 C.3       6 UNK         0.1400 
     43 CB          0.3640  -16.9478  -38.8708 C.3       6 UNK        -0.1800 
     44 N          -0.2669  -15.4605  -40.7099 N.am      6 UNK        -0.5000 
     45 C          -0.9026  -15.0115  -41.8021 C.2       5 UNK         0.5000 
     46 O          -1.5993  -15.7222  -42.5254 O.2       5 UNK        -0.5000 
     47 CA         -0.6704  -13.5357  -42.1770 C.3       5 UNK         0.1400 
     48 CB         -1.6789  -12.6280  -41.4581 C.3       5 UNK        -0.1800 
     49 N           0.6928  -13.0907  -41.8722 N.am      5 UNK        -0.5000 
     50 C           1.7859  -13.5370  -42.5029 C.2       4 UNK         0.5000 
     51 O           1.7574  -14.3376  -43.4418 O.2       4 UNK        -0.5000 
     52 CA          3.1343  -13.0578  -41.9544 C.3       4 UNK         0.1400 
     53 CB          3.5888  -13.9564  -40.7881 C.3       4 UNK        -0.1800 
     54 N           4.1135  -13.0856  -43.0343 N.am      4 UNK        -0.5000 
     55 C           5.2997  -12.4667  -43.0344 C.2       3 UNK         0.5000 
     56 O           5.7254  -11.8256  -42.0722 O.2       3 UNK        -0.5000 
     57 CA          6.1401  -12.5177  -44.3269 C.3       3 UNK         0.1400 
     58 CB          7.5715  -13.0366  -44.0770 C.3       3 UNK        -0.1800 
     59 N           5.4828  -13.2028  -45.4481 N.am      3 UNK        -0.5000 
     60 C           5.3420  -14.5184  -45.6766 C.2       2 UNK         0.5000 
     61 O           5.8021  -15.3915  -44.9424 O.2       2 UNK        -0.5000 
     62 CA          4.5233  -14.9354  -46.9198 C.3       2 UNK         0.1400 
     63 CB          3.4682  -15.9937  -46.5664 C.3       2 UNK        -0.1800 
     64 N           3.8326  -13.8054  -47.5408 N.am      2 UNK        -0.5000 
     65 C           4.3295  -13.0219  -48.5057 C.2       1 UNK         0.5000 
     66 O           5.4310  -13.1933  -49.0285 O.2       1 UNK        -0.5000 
     67 C          -0.8266  -21.8597  -48.1165 C.2       11 UNK         0.5000 
     68 O          -0.8120  -22.7819  -48.9299 O.2       11 UNK        -0.5000 
     69 N          -1.9428  -21.2022  -47.7679 N.am      12 UNK        -0.5000 
     70 CA         -3.2814  -21.5201  -48.2715 C.3       12 UNK         0.1400 
     71 CB         -4.2797  -20.4603  -47.7832 C.3       12 UNK        -0.1800 
     72 C          -3.7567  -22.9364  -47.8914 C.2       12 UNK         0.5000 
     73 O          -4.3634  -23.6179  -48.7212 O.2       12 UNK        -0.5000 
     74 N          -3.4448  -23.3599  -46.6585 N.am      13 UNK        -0.5000 
     75 CA         -3.7032  -24.7067  -46.1513 C.3       13 UNK         0.1400 
     76 CB         -3.4960  -24.7386  -44.6298 C.3       13 UNK        -0.1800 
     77 C          -2.8418  -25.7734  -46.8517 C.2       13 UNK         0.5000 
     78 O          -3.3704  -26.8180  -47.2305 O.2       13 UNK        -0.5000 
     79 N          -1.5489  -25.4825  -47.0577 N.am      14 UNK        -0.5000 
     80 CA         -0.6052  -26.3274  -47.7983 C.3       14 UNK         0.1400 
     81 CB          0.8171  -25.7676  -47.6474 C.3       14 UNK        -0.1800 
     82 C          -0.9784  -26.4760  -49.2858 C.2       14 UNK         0.5000 
     83 O          -0.8245  -27.5594  -49.8499 O.2       14 UNK        -0.5000 
     84 N          -1.5158  -25.3991  -49.8734 N.am      15 UNK        -0.5000 
     85 CA         -2.1163  -25.3611  -51.2072 C.3       15 UNK         0.1400 
     86 CB         -2.2139  -23.8955  -51.6627 C.3       15 UNK        -0.1800 
     87 C          -3.4945  -26.0527  -51.2900 C.2       15 UNK         0.5000 
     88 O          -4.0508  -26.1341  -52.3842 O.2       15 UNK        -0.5000 
     89 N          -4.0353  -26.5192  -50.1532 N.am      16 UNK        -0.5000 
     90 CA         -5.2953  -27.2543  -49.9963 C.3       16 UNK         0.1400 
     91 CB         -5.1752  -28.6579  -50.6251 C.3       16 UNK        -0.1800 
     92 C          -6.5302  -26.4776  -50.4977 C.2       16 UNK         0.5000 
     93 O          -7.4821  -27.0879  -50.9878 O.2       16 UNK        -0.5000 
     94 N          -6.4805  -25.1415  -50.3790 N.am      17 UNK        -0.5000 
     95 CA         -7.4807  -24.1786  -50.8530 C.3       17 UNK         0.1400 
     96 CB         -8.8009  -24.3274  -50.0678 C.3       17 UNK        -0.1800 
     97 C          -7.6907  -24.1845  -52.3878 C.2       17 UNK         0.5000 
     98 O          -8.7497  -23.7617  -52.8564 O.2       17 UNK        -0.5000 
     99 N          -6.6869  -24.6491  -53.1484 N.am      18 UNK        -0.5000 
    100 CA        -6.6638  -24.6316  -54.6138 C.3       18 UNK         0.1400 
    101 CB        -5.6770  -25.7061  -55.1058 C.3       18 UNK        -0.1800 
    102 C         -6.3087  -23.2339  -55.1668 C.2       18 UNK         0.5000 
    103 O         -6.2492  -22.2613  -54.4146 O.2       18 UNK        -0.5000 
    104 N         -6.0443  -23.1490  -56.4780 N.am      19 UNK        -0.5000 
    105 CA        -5.7125  -21.9123  -57.1999 C.3       19 UNK         0.1400 
    106 CB        -5.5819  -22.2346  -58.6967 C.3       19 UNK        -0.1800 
    107 C         -4.4507  -21.1747  -56.6966 C.2       19 UNK         0.5000 
    108 O         -4.3214  -19.9729  -56.9318 O.2       19 UNK        -0.5000 
    109 N         -3.5518  -21.8963  -56.0135 N.am      20 UNK        -0.5000 
    110 CA        -2.3615  -21.3487  -55.3606 C.3       20 UNK         0.1400 
    111 CB        -1.3212  -22.4710  -55.2123 C.3       20 UNK        -0.1800 
    112 C         -2.6543  -20.6848  -53.9968 C.2       20 UNK         0.5000 
    113 O         -1.7926  -19.9655  -53.4902 O.2       20 UNK        -0.5000 
    114 N         -3.8372  -20.9333  -53.4180 N.am      21 UNK        -0.5000 
    115 CA        -4.2975  -20.3194  -52.1745 C.3       21 UNK         0.1400 
    116 CB        -5.2475  -21.2963  -51.4638 C.3       21 UNK        -0.1800 
    117 C         -5.0240  -18.9902  -52.4479 C.2       21 UNK         0.5000 
    118 O         -5.4321  -18.7178  -53.5799 O.2       21 UNK        -0.5000 
    119 N         -5.2039  -18.2016  -51.3844 N.am      22 UNK        -0.5000 
    120 CA        -6.0112  -16.9732  -51.3863 C.3       22 UNK         0.1400 
    121 C         -7.5311  -17.2880  -51.3343 C.2       22 UNK         0.5000 
    122 N         -8.3573  -16.5041  -52.0133 N.am      22 UNK        -0.7600 
    123 O         -7.9719  -18.2098  -50.6511 O.2       22 UNK        -0.5000 
    124 C124       -5.6105  -16.0288  -50.2258 C.3       23 UNK        -0.0398 
    125 S125       -3.8946  -15.4386  -50.4064 S.3       23 UNK        -0.2404 
    126 C126       -3.0139  -16.4555  -49.1791 C.3       23 UNK        -0.0205 
    127 H127        0.9717  -10.5428  -46.0484 H         1 UNK         0.0600 
    128 H128        2.0811   -9.3020  -45.4567 H         1 UNK         0.0600 
    129 H129        2.1109  -10.9232  -44.7539 H         1 UNK         0.0600 
    130 H130        1.6102  -11.3854  -48.0176 H         1 UNK         0.3000 
    131 H131        4.1480  -11.0233  -49.2002 H         1 UNK         0.0600 
    132 H132        2.2987  -11.2283  -50.6647 H         1 UNK         0.0800 
    133 H133        3.2526  -12.6435  -50.9657 H         1 UNK         0.0800 
    134 H134        2.5646  -15.1035  -49.7814 H         1 UNK         0.0800 
    135 H135        1.9940  -14.8154  -51.4099 H         1 UNK         0.0800 
    136 H136       -0.9899  -14.7108  -49.4841 H         1 UNK         0.1150 
    137 H137       -1.9152  -18.8581  -49.8680 H         1 UNK         0.1150 
    138 H138        2.0072  -17.4630  -50.8721 H         1 UNK         0.1150 
    139 H139       -0.3556  -20.4085  -50.7151 H         1 UNK         0.0800 
    140 H140        0.8566  -19.7585  -51.7824 H         1 UNK         0.0800 
    141 H141        0.3935  -19.3529  -47.9800 H         1 UNK         0.0800 
    142 H142        1.9310  -19.8531  -47.3631 H         1 UNK         0.0800 
    143 H143        1.1938  -22.2771  -47.5496 H         1 UNK         0.0600 
    144 H144        0.4834  -20.4265  -45.5519 H         1 UNK         0.3000 
    145 H145       -1.0520  -22.7060  -43.2565 H         1 UNK         0.0600 
    146 H146        0.6728  -21.6812  -41.7909 H         1 UNK         0.0600 
    147 H147        1.3917  -22.8745  -42.8619 H         1 UNK         0.0600 
    148 H148        1.5928  -21.1620  -43.2013 H         1 UNK         0.0600 
    149 H149       -0.6089  -19.9058  -43.0860 H         1 UNK         0.3000 
    150 H150       -3.6653  -18.8869  -44.7026 H         1 UNK         0.0600 
    151 H151       -4.1994  -19.3524  -42.3169 H         1 UNK         0.0600 
    152 H152       -3.8301  -17.6510  -42.5579 H         1 UNK         0.0600 
    153 H153       -2.6366  -18.7167  -41.8211 H         1 UNK         0.0600 
    154 H154       -1.5317  -17.3487  -43.6211 H         1 UNK         0.3000 
    155 H155        0.4890  -17.2239  -46.5873 H         1 UNK         0.0600 
    156 H156       -1.1624  -15.1166  -45.0991 H         1 UNK         0.0600 
    157 H157        0.2838  -14.7991  -46.0552 H         1 UNK         0.0600 
    158 H158       -1.1679  -15.4052  -46.8312 H         1 UNK         0.0600 
    159 H159        0.8746  -16.1268  -43.9844 H         1 UNK         0.3000 
    160 H160        2.5256  -18.9730  -42.5552 H         1 UNK         0.0600 
    161 H161        3.5869  -16.2294  -43.4052 H         1 UNK         0.0600 
    162 H162        4.2898  -17.7807  -43.8344 H         1 UNK         0.0600 
    163 H163        4.2727  -17.2663  -42.1568 H         1 UNK         0.0600 
    164 H164        1.8523  -16.3235  -41.6231 H         1 UNK         0.3000 
    165 H165       -1.2946  -17.2007  -40.2092 H         1 UNK         0.0600 
    166 H166       -0.1993  -16.3558  -38.1493 H         1 UNK         0.0600 
    167 H167        0.3675  -17.9780  -38.5119 H         1 UNK         0.0600 
    168 H168        1.3958  -16.5940  -38.8637 H         1 UNK         0.0600 
    169 H169        0.2744  -14.8072  -40.1640 H         1 UNK         0.3000 
    170 H170       -0.8289  -13.4366  -43.2529 H         1 UNK         0.0600 
    171 H171       -2.7031  -12.9274  -41.6849 H         1 UNK         0.0600 
    172 H172       -1.5577  -12.6665  -40.3748 H         1 UNK         0.0600 
    173 H173       -1.5683  -11.5899  -41.7722 H         1 UNK         0.0600 
    174 H174        0.7938  -12.4331  -41.1121 H         1 UNK         0.3000 
    175 H175        3.0216  -12.0293  -41.6052 H         1 UNK         0.0600 
    176 H176        3.7635  -14.9815  -41.1144 H         1 UNK         0.0600 
    177 H177        4.5127  -13.5905  -40.3403 H         1 UNK         0.0600 
    178 H178        2.8404  -13.9849  -39.9954 H         1 UNK         0.0600 
    179 H179        3.8131  -13.5883  -43.8588 H         1 UNK         0.3000 
    180 H180        6.2344  -11.4800  -44.6498 H         1 UNK         0.0600 
    181 H181        7.5743  -14.0323  -43.6332 H         1 UNK         0.0600 
    182 H182        8.1068  -12.3795  -43.3908 H         1 UNK         0.0600 
    183 H183        8.1464  -13.0758  -45.0021 H         1 UNK         0.0600 
    184 H184        5.0437  -12.5673  -46.1048 H         1 UNK         0.3000 
    185 H185        5.2204  -15.3773  -47.6344 H         1 UNK         0.0600 
    186 H186        3.9292  -16.8971  -46.1664 H         1 UNK         0.0600 
    187 H187        2.7745  -15.6135  -45.8176 H         1 UNK         0.0600 
    188 H188        2.8892  -16.2888  -47.4418 H         1 UNK         0.0600 
    189 H189        2.9183  -13.5813  -47.1752 H         1 UNK         0.3000 
    190 H190       -1.8702  -20.4213  -47.1215 H         1 UNK         0.3000 
    191 H191       -3.2376  -21.4711  -49.3601 H         1 UNK         0.0600 
    192 H192       -4.3272  -20.4217  -46.6956 H         1 UNK         0.0600 
    193 H193       -5.2878  -20.6698  -48.1417 H         1 UNK         0.0600 
    194 H194       -4.0039  -19.4687  -48.1365 H         1 UNK         0.0600 
    195 H195       -3.0040  -22.7065  -46.0188 H         1 UNK         0.3000 
    196 H196       -4.7505  -24.9426  -46.3520 H         1 UNK         0.0600 
    197 H197       -3.7320  -25.7236  -44.2254 H         1 UNK         0.0600 
    198 H198       -4.1421  -24.0171  -44.1294 H         1 UNK         0.0600 
    199 H199       -2.4665  -24.5102  -44.3555 H         1 UNK         0.0600 
    200 H200       -1.1713  -24.6254  -46.6599 H         1 UNK         0.3000 
    201 H201       -0.6280  -27.3229  -47.3504 H         1 UNK         0.0600 
    202 H202        1.1155  -25.7271  -46.5997 H         1 UNK         0.0600 
    203 H203        0.8992  -24.7608  -48.0574 H         1 UNK         0.0600 
    204 H204        1.5415  -26.3948  -48.1683 H         1 UNK         0.0600 
    205 H205       -1.5167  -24.5223  -49.3590 H         1 UNK         0.3000 
    206 H206       -1.4567  -25.8881  -51.8992 H         1 UNK         0.0600 
    207 H207       -1.2247  -23.4561  -51.7921 H         1 UNK         0.0600 
    208 H208       -2.7396  -23.8047  -52.6132 H         1 UNK         0.0600 
    209 H209       -2.7511  -23.2886  -50.9361 H         1 UNK         0.0600 
    210 H210       -3.5195  -26.3809  -49.2928 H         1 UNK         0.3000 
    211 H211       -5.4410  -27.3856  -48.9236 H         1 UNK         0.0600 
    212 H212       -5.0882  -28.6079  -51.7109 H         1 UNK         0.0600 
    213 H213       -6.0487  -29.2684  -50.3938 H         1 UNK         0.0600 
    214 H214       -4.3019  -29.1864  -50.2424 H         1 UNK         0.0600 
    215 H215       -5.6581  -24.7364  -49.9412 H         1 UNK         0.3000 
    216 H216       -7.0796  -23.1962  -50.6083 H         1 UNK         0.0600 
    217 H217       -9.4837  -23.5071  -50.2914 H         1 UNK         0.0600 
    218 H218       -8.6236  -24.3142  -48.9923 H         1 UNK         0.0600 
    219 H219       -9.3171  -25.2560  -50.3123 H         1 UNK         0.0600 
    220 H220       -5.8506  -24.9988  -52.6956 H         1 UNK         0.3000 
    221 H221       -7.6592  -24.8892  -54.9810 H         1 UNK         0.0600 
    222 H222       -4.6430  -25.4285  -54.8979 H         1 UNK         0.0600 
    223 H223       -5.8666  -26.6656  -54.6237 H         1 UNK         0.0600 
    224 H224       -5.7649  -25.8689  -56.1802 H         1 UNK         0.0600 
    225 H225       -6.0989  -23.9876  -57.0378 H         1 UNK         0.3000 
    226 H226       -6.5524  -21.2264  -57.0717 H         1 UNK         0.0600 
    227 H227       -6.5051  -22.6587  -59.0922 H         1 UNK         0.0600 
    228 H228       -5.3673  -21.3345  -59.2745 H         1 UNK         0.0600 
    229 H229       -4.7763  -22.9453  -58.8853 H         1 UNK         0.0600 
    230 H230       -3.7343  -22.8791  -55.8765 H         1 UNK         0.3000 
    231 H231       -1.9308  -20.5783  -56.0036 H         1 UNK         0.0600 
    232 H232       -0.4264  -22.1145  -54.7001 H         1 UNK         0.0600 
    233 H233       -1.0075  -22.8447  -56.1872 H         1 UNK         0.0600 
    234 H234       -1.7120  -23.3141  -54.6437 H         1 UNK         0.0600 
    235 H235       -4.5411  -21.4574  -53.9289 H         1 UNK         0.3000 
    236 H236       -3.4414  -20.1288  -51.5240 H         1 UNK         0.0600 
    237 H237       -4.8084  -22.2879  -51.3630 H         1 UNK         0.0600 
    238 H238       -5.4975  -20.9448  -50.4641 H         1 UNK         0.0600 
    239 H239       -6.1884  -21.4005  -52.0034 H         1 UNK         0.0600 
    240 H240       -4.8855  -18.5139  -50.4815 H         1 UNK         0.3000 
    241 H241       -5.8161  -16.4463  -52.3231 H         1 UNK         0.0600 
    242 H242       -8.0200  -15.7377  -52.5756 H         1 UNK         0.3800 
    243 H243       -9.3480  -16.6888  -51.9757 H         1 UNK         0.3800 
    244 H244       -6.2535  -15.1469  -50.2162 H         1 UNK         0.0800 
    245 H245       -5.7481  -16.5119  -49.2570 H         1 UNK         0.0800 
    246 H246       -3.5505  -17.3882  -49.0132 H         1 UNK         0.0800 
    247 H247       -3.0015  -15.9354  -48.2212 H         1 UNK         0.0800 
@<TRIPOS>BOND
     1    1    2 1    
     2    1  127 1    
     3    1  128 1    
     4    1  129 1    
     5    2    3 2    
     6    2    4 am   BACKBONE|DICT|INTERRES
     7    4    5 1    
     8    4  130 1    
     9    5    6 1    
    10    5   65 1    
    11    5  131 1    
    12    6    7 1    
    13    6  132 1    
    14    6  133 1    
    15    7    8 1    
    16    8    9 1    
    17    8  134 1    
    18    8  135 1    
    19    9   10 ar   
    20    9   14 ar   
    21   10   11 ar   
    22   10  136 1    
    23   11   12 ar   
    24   11  126 1    
    25   12   13 ar   
    26   12  137 1    
    27   13   14 ar   
    28   13   15 1    
    29   14  138 1    
    30   15   16 1    
    31   15  139 1    
    32   15  140 1    
    33   16   17 1    
    34   17   18 1    
    35   17  141 1    
    36   17  142 1    
    37   18   19 1    
    38   18   67 1    
    39   18  143 1    
    40   19   20 am   BACKBONE|DICT|INTERRES
    41   19  144 1    
    42   20   21 2    
    43   20   22 1    
    44   22   23 1    
    45   22   24 1    
    46   22  145 1    
    47   23  146 1    
    48   23  147 1    
    49   23  148 1    
    50   24   25 am   BACKBONE|DICT|INTERRES
    51   24  149 1    
    52   25   26 2    
    53   25   27 1    
    54   27   28 1    
    55   27   29 1    
    56   27  150 1    
    57   28  151 1    
    58   28  152 1    
    59   28  153 1    
    60   29   30 am   BACKBONE|DICT|INTERRES
    61   29  154 1    
    62   30   31 2    
    63   30   32 1    
    64   32   33 1    
    65   32   34 1    
    66   32  155 1    
    67   33  156 1    
    68   33  157 1    
    69   33  158 1    
    70   34   35 am   BACKBONE|DICT|INTERRES
    71   34  159 1    
    72   35   36 2    
    73   35   37 1    
    74   37   38 1    
    75   37   39 1    
    76   37  160 1    
    77   38  161 1    
    78   38  162 1    
    79   38  163 1    
    80   39   40 am   BACKBONE|DICT|INTERRES
    81   39  164 1    
    82   40   41 2    
    83   40   42 1    
    84   42   43 1    
    85   42   44 1    
    86   42  165 1    
    87   43  166 1    
    88   43  167 1    
    89   43  168 1    
    90   44   45 am   BACKBONE|DICT|INTERRES
    91   44  169 1    
    92   45   46 2    
    93   45   47 1    
    94   47   48 1    
    95   47   49 1    
    96   47  170 1    
    97   48  171 1    
    98   48  172 1    
    99   48  173 1    
   100   49   50 am   BACKBONE|DICT|INTERRES
   101   49  174 1    
   102   50   51 2    
   103   50   52 1    
   104   52   53 1    
   105   52   54 1    
   106   52  175 1    
   107   53  176 1    
   108   53  177 1    
   109   53  178 1    
   110   54   55 am   BACKBONE|DICT|INTERRES
   111   54  179 1    
   112   55   56 2    
   113   55   57 1    
   114   57   58 1    
   115   57   59 1    
   116   57  180 1    
   117   58  181 1    
   118   58  182 1    
   119   58  183 1    
   120   59   60 am   BACKBONE|DICT|INTERRES
   121   59  184 1    
   122   60   61 2    
   123   60   62 1    
   124   62   63 1    
   125   62   64 1    
   126   62  185 1    
   127   63  186 1    
   128   63  187 1    
   129   63  188 1    
   130   64   65 am   BACKBONE|DICT|INTERRES
   131   64  189 1    
   132   65   66 2    
   133   67   68 2    
   134   67   69 am   BACKBONE|DICT|INTERRES
   135   69   70 1    
   136   69  190 1    
   137   70   71 1    
   138   70   72 1    
   139   70  191 1    
   140   71  192 1    
   141   71  193 1    
   142   71  194 1    
   143   72   73 2    
   144   72   74 am   BACKBONE|DICT|INTERRES
   145   74   75 1    
   146   74  195 1    
   147   75   76 1    
   148   75   77 1    
   149   75  196 1    
   150   76  197 1    
   151   76  198 1    
   152   76  199 1    
   153   77   78 2    
   154   77   79 am   BACKBONE|DICT|INTERRES
   155   79   80 1    
   156   79  200 1    
   157   80   81 1    
   158   80   82 1    
   159   80  201 1    
   160   81  202 1    
   161   81  203 1    
   162   81  204 1    
   163   82   83 2    
   164   82   84 am   BACKBONE|DICT|INTERRES
   165   84   85 1    
   166   84  205 1    
   167   85   86 1    
   168   85   87 1    
   169   85  206 1    
   170   86  207 1    
   171   86  208 1    
   172   86  209 1    
   173   87   88 2    
   174   87   89 am   BACKBONE|DICT|INTERRES
   175   89   90 1    
   176   89  210 1    
   177   90   91 1    
   178   90   92 1    
   179   90  211 1    
   180   91  212 1    
   181   91  213 1    
   182   91  214 1    
   183   92   93 2    
   184   92   94 am   BACKBONE|DICT|INTERRES
   185   94   95 1    
   186   94  215 1    
   187   95   96 1    
   188   95   97 1    
   189   95  216 1    
   190   96  217 1    
   191   96  218 1    
   192   96  219 1    
   193   97   98 2    
   194   97   99 am   BACKBONE|DICT|INTERRES
   195   99  100 1    
   196   99  220 1    
   197  100  101 1    
   198  100  102 1    
   199  100  221 1    
   200  101  222 1    
   201  101  223 1    
   202  101  224 1    
   203  102  103 2    
   204  102  104 am   BACKBONE|DICT|INTERRES
   205  104  105 1    
   206  104  225 1    
   207  105  106 1    
   208  105  107 1    
   209  105  226 1    
   210  106  227 1    
   211  106  228 1    
   212  106  229 1    
   213  107  108 2    
   214  107  109 am   BACKBONE|DICT|INTERRES
   215  109  110 1    
   216  109  230 1    
   217  110  111 1    
   218  110  112 1    
   219  110  231 1    
   220  111  232 1    
   221  111  233 1    
   222  111  234 1    
   223  112  113 2    
   224  112  114 am   BACKBONE|DICT|INTERRES
   225  114  115 1    
   226  114  235 1    
   227  115  116 1    
   228  115  117 1    
   229  115  236 1    
   230  116  237 1    
   231  116  238 1    
   232  116  239 1    
   233  117  118 2    
   234  117  119 am   BACKBONE|DICT|INTERRES
   235  119  120 1    
   236  119  240 1    
   237  120  121 1    
   238  120  124 1    
   239  120  241 1    
   240  121  122 am   BACKBONE|DICT|INTERRES
   241  121  123 2    
   242  122  242 1    
   243  122  243 1    
   244  124  125 1    
   245  124  244 1    
   246  124  245 1    
   247  125  126 1    
   248  126  246 1    
   249  126  247 1    
@<TRIPOS>SUBSTRUCTURE
     1 UNK         1 GROUP             0       ****    0 ROOT    
