@<TRIPOS>MOLECULE
3R540
247   249    1
SMALL
USER_CHARGES


@<TRIPOS>ATOM
      1 CA          3.9017  -15.5583  -44.1122 C.3       0 UNK        -0.1800 
      2 C           3.8363  -15.3074  -45.6118 C.2       0 UNK         0.5000 
      3 O           2.8366  -14.7812  -46.0990 O.2       0 UNK        -0.5000 
      4 N           4.9119  -15.6757  -46.3222 N.am      1 UNK        -0.5000 
      5 CA          5.0742  -15.7164  -47.7844 C.3       1 UNK         0.1400 
      6 C6          6.5390  -16.0952  -48.1397 C.3       23 UNK        -0.0398 
      7 S7          6.8127  -16.6008  -49.8742 S.3       23 UNK        -0.2404 
      8 C8          6.6773  -18.4151  -49.7627 C.3       23 UNK        -0.0205 
      9 C9          5.2694  -18.8389  -49.3785 C.ar      23 UNK        -0.0193 
     10 C10         4.2176  -18.6451  -50.2769 C.ar      23 UNK        -0.1150 
     11 C11         2.9063  -18.9585  -49.9154 C.ar      23 UNK        -0.0193 
     12 C12         2.6539  -19.4800  -48.6428 C.ar      23 UNK        -0.1150 
     13 C13         3.7011  -19.7070  -47.7423 C.ar      23 UNK        -0.0193 
     14 C14         5.0080  -19.3825  -48.1172 C.ar      23 UNK        -0.1150 
     15 C15         3.4259  -20.2703  -46.3528 C.3       23 UNK        -0.0205 
     16 S16         3.6595  -22.0763  -46.2716 S.3       23 UNK        -0.2404 
     17 C17         2.2126  -22.6850  -47.2063 C.3       23 UNK        -0.0398 
     18 CA          1.1241  -23.3737  -46.3387 C.3       11 UNK         0.1400 
     19 N           0.6789  -22.5210  -45.2339 N.am      11 UNK        -0.5000 
     20 C           0.7046  -22.8416  -43.9328 C.2       10 UNK         0.5000 
     21 O           1.0862  -23.9319  -43.5064 O.2       10 UNK        -0.5000 
     22 CA          0.2083  -21.7743  -42.9295 C.3       10 UNK         0.1400 
     23 CB          1.4025  -21.0173  -42.3291 C.3       10 UNK        -0.1800 
     24 N          -0.7179  -20.8017  -43.5139 N.am      10 UNK        -0.5000 
     25 C          -1.9073  -21.1083  -44.0523 C.2       9 UNK         0.5000 
     26 O          -2.4159  -22.2233  -43.9453 O.2       9 UNK        -0.5000 
     27 CA         -2.6283  -20.0264  -44.8896 C.3       9 UNK         0.1400 
     28 CB         -3.8282  -19.4716  -44.1086 C.3       9 UNK        -0.1800 
     29 N          -1.7896  -18.9003  -45.3171 N.am      9 UNK        -0.5000 
     30 C          -0.6222  -18.9636  -45.9745 C.2       8 UNK         0.5000 
     31 O          -0.1251  -20.0138  -46.3751 O.2       8 UNK        -0.5000 
     32 CA          0.1637  -17.6483  -46.1396 C.3       8 UNK         0.1400 
     33 CB         -0.1049  -17.0282  -47.5167 C.3       8 UNK        -0.1800 
     34 N          -0.1301  -16.6604  -45.0997 N.am      8 UNK        -0.5000 
     35 C           0.0650  -16.8275  -43.7825 C.2       7 UNK         0.5000 
     36 O           0.5545  -17.8427  -43.2865 O.2       7 UNK        -0.5000 
     37 CA         -0.4318  -15.6945  -42.8694 C.3       7 UNK         0.1400 
     38 CB          0.5594  -14.5232  -42.8485 C.3       7 UNK        -0.1800 
     39 N          -1.7394  -15.2173  -43.3188 N.am      7 UNK        -0.5000 
     40 C          -2.9077  -15.7558  -42.9434 C.2       6 UNK         0.5000 
     41 O          -3.0061  -16.6388  -42.0921 O.2       6 UNK        -0.5000 
     42 CA         -4.1849  -15.2300  -43.6288 C.3       6 UNK         0.1400 
     43 CB         -4.8942  -14.2087  -42.7266 C.3       6 UNK        -0.1800 
     44 N          -3.9350  -14.6133  -44.9324 N.am      6 UNK        -0.5000 
     45 C          -3.6049  -15.2771  -46.0493 C.2       5 UNK         0.5000 
     46 O          -3.5047  -16.5019  -46.1155 O.2       5 UNK        -0.5000 
     47 CA         -3.2790  -14.4117  -47.2842 C.3       5 UNK         0.1400 
     48 CB         -4.5548  -14.1154  -48.0859 C.3       5 UNK        -0.1800 
     49 N          -2.6148  -13.1470  -46.9435 N.am      5 UNK        -0.5000 
     50 C          -1.4276  -13.0573  -46.3299 C.2       4 UNK         0.5000 
     51 O          -0.7561  -14.0376  -46.0014 O.2       4 UNK        -0.5000 
     52 CA         -0.9528  -11.6532  -45.9395 C.3       4 UNK         0.1400 
     53 CB         -1.6841  -11.2068  -44.6554 C.3       4 UNK        -0.1800 
     54 N           0.4919  -11.6945  -45.7223 N.am      4 UNK        -0.5000 
     55 C           1.2823  -10.6424  -45.4791 C.2       3 UNK         0.5000 
     56 O           0.8890   -9.4753  -45.4631 O.2       3 UNK        -0.5000 
     57 CA          2.7672  -10.9440  -45.2209 C.3       3 UNK         0.1400 
     58 CB          2.9647  -11.7356  -43.9198 C.3       3 UNK        -0.1800 
     59 N           3.3729  -11.6692  -46.3371 N.am      3 UNK        -0.5000 
     60 C           3.8442  -11.0724  -47.4417 C.2       2 UNK         0.5000 
     61 O           3.7851   -9.8559  -47.6288 O.2       2 UNK        -0.5000 
     62 CA          4.5136  -11.9653  -48.5037 C.3       2 UNK         0.1400 
     63 CB          5.7629  -11.3049  -49.1159 C.3       2 UNK        -0.1800 
     64 N           4.8904  -13.2699  -47.9568 N.am      2 UNK        -0.5000 
     65 C           4.6122  -14.4450  -48.5332 C.2       1 UNK         0.5000 
     66 O           4.0022  -14.5560  -49.5980 O.2       1 UNK        -0.5000 
     67 C          -0.0768  -23.7961  -47.2169 C.2       11 UNK         0.5000 
     68 O           0.1153  -24.0389  -48.4080 O.2       11 UNK        -0.5000 
     69 N          -1.2954  -23.8588  -46.6503 N.am      12 UNK        -0.5000 
     70 CA         -2.5783  -24.0543  -47.3530 C.3       12 UNK         0.1400 
     71 CB         -3.7259  -24.0728  -46.3318 C.3       12 UNK        -0.1800 
     72 C          -2.6881  -25.2743  -48.2929 C.2       12 UNK         0.5000 
     73 O          -3.5757  -25.2916  -49.1438 O.2       12 UNK        -0.5000 
     74 N          -1.7898  -26.2580  -48.1543 N.am      13 UNK        -0.5000 
     75 CA         -1.6317  -27.3764  -49.0859 C.3       13 UNK         0.1400 
     76 CB         -0.6354  -28.3826  -48.4903 C.3       13 UNK        -0.1800 
     77 C          -1.1825  -26.9437  -50.4997 C.2       13 UNK         0.5000 
     78 O          -1.4781  -27.6497  -51.4650 O.2       13 UNK        -0.5000 
     79 N          -0.4876  -25.8013  -50.6074 N.am      14 UNK        -0.5000 
     80 CA         -0.0983  -25.1829  -51.8706 C.3       14 UNK         0.1400 
     81 CB          1.0557  -24.1964  -51.6249 C.3       14 UNK        -0.1800 
     82 C          -1.3093  -24.4733  -52.4968 C.2       14 UNK         0.5000 
     83 O          -1.7527  -23.4502  -51.9721 O.2       14 UNK        -0.5000 
     84 N          -1.8309  -25.0368  -53.5930 N.am      15 UNK        -0.5000 
     85 CA         -2.9573  -24.5785  -54.4210 C.3       15 UNK         0.1400 
     86 CB         -2.7077  -23.1652  -54.9791 C.3       15 UNK        -0.1800 
     87 C          -4.3485  -24.6650  -53.7585 C.2       15 UNK         0.5000 
     88 O          -5.3071  -25.0009  -54.4545 O.2       15 UNK        -0.5000 
     89 N          -4.4353  -24.3823  -52.4507 N.am      16 UNK        -0.5000 
     90 CA         -5.6347  -24.3965  -51.6060 C.3       16 UNK         0.1400 
     91 CB         -6.1515  -25.8383  -51.4199 C.3       16 UNK        -0.1800 
     92 C          -6.7209  -23.4304  -52.1183 C.2       16 UNK         0.5000 
     93 O          -7.7895  -23.8571  -52.5637 O.2       16 UNK        -0.5000 
     94 N          -6.4238  -22.1281  -52.0423 N.am      17 UNK        -0.5000 
     95 CA         -7.3382  -21.0314  -52.3577 C.3       17 UNK         0.1400 
     96 CB         -6.5107  -19.7844  -52.7153 C.3       17 UNK        -0.1800 
     97 C          -8.2902  -20.7980  -51.1692 C.2       17 UNK         0.5000 
     98 O          -8.1633  -19.8042  -50.4509 O.2       17 UNK        -0.5000 
     99 N          -9.1828  -21.7728  -50.9467 N.am      18 UNK        -0.5000 
    100 CA        -9.9935  -21.9616  -49.7431 C.3       18 UNK         0.1400 
    101 CB       -11.0324  -20.8286  -49.5751 C.3       18 UNK        -0.1800 
    102 C         -9.0674  -22.1787  -48.5291 C.2       18 UNK         0.5000 
    103 O         -8.3515  -23.1812  -48.5004 O.2       18 UNK        -0.5000 
    104 N         -9.0726  -21.2442  -47.5716 N.am      19 UNK        -0.5000 
    105 CA        -8.1762  -21.2512  -46.4163 C.3       19 UNK         0.1400 
    106 CB        -8.7927  -20.3888  -45.3038 C.3       19 UNK        -0.1800 
    107 C         -6.7542  -20.7573  -46.7483 C.2       19 UNK         0.5000 
    108 O         -5.8177  -21.1287  -46.0427 O.2       19 UNK        -0.5000 
    109 N         -6.6120  -19.9174  -47.7829 N.am      20 UNK        -0.5000 
    110 CA        -5.3378  -19.3273  -48.1899 C.3       20 UNK         0.1400 
    111 CB        -5.6097  -18.0023  -48.9200 C.3       20 UNK        -0.1800 
    112 C         -4.5204  -20.2851  -49.0739 C.2       20 UNK         0.5000 
    113 O         -5.0610  -21.2354  -49.6445 O.2       20 UNK        -0.5000 
    114 N         -3.2238  -19.9938  -49.1913 N.am      21 UNK        -0.5000 
    115 CA        -2.2838  -20.7309  -50.0279 C.3       21 UNK         0.1400 
    116 CB        -1.0041  -20.9561  -49.2202 C.3       21 UNK        -0.1800 
    117 C         -1.9425  -19.9337  -51.2933 C.2       21 UNK         0.5000 
    118 O         -2.0885  -18.7095  -51.3152 O.2       21 UNK        -0.5000 
    119 N         -1.4309  -20.6537  -52.2953 N.am      22 UNK        -0.5000 
    120 CA        -0.8230  -20.1404  -53.5364 C.3       22 UNK         0.1400 
    121 C         -1.8151  -19.5021  -54.5566 C.2       22 UNK         0.5000 
    122 N         -3.1229  -19.5580  -54.3412 N.am      22 UNK        -0.7600 
    123 O         -1.3943  -18.9753  -55.5830 O.2       22 UNK        -0.5000 
    124 C124        0.4114  -19.2259  -53.2871 C.3       23 UNK        -0.0398 
    125 S125        1.6762  -19.9641  -52.1904 S.3       23 UNK        -0.2404 
    126 C126        1.7724  -18.6905  -50.8934 C.3       23 UNK        -0.0205 
    127 H127        4.8241  -16.0636  -43.8253 H         1 UNK         0.0600 
    128 H128        3.0670  -16.1871  -43.8044 H         1 UNK         0.0600 
    129 H129        3.8484  -14.6194  -43.5636 H         1 UNK         0.0600 
    130 H130        5.6908  -16.0628  -45.8093 H         1 UNK         0.3000 
    131 H131        4.4189  -16.5200  -48.1220 H         1 UNK         0.0600 
    132 H132        6.8773  -16.9123  -47.5010 H         1 UNK         0.0800 
    133 H133        7.2084  -15.2615  -47.9209 H         1 UNK         0.0800 
    134 H134        6.9315  -18.8507  -50.7300 H         1 UNK         0.0800 
    135 H135        7.4119  -18.7957  -49.0513 H         1 UNK         0.0800 
    136 H136        4.4174  -18.2215  -51.2514 H         1 UNK         0.1150 
    137 H137        1.6406  -19.7056  -48.3501 H         1 UNK         0.1150 
    138 H138        5.8180  -19.5369  -47.4182 H         1 UNK         0.1150 
    139 H139        4.0967  -19.8001  -45.6324 H         1 UNK         0.0800 
    140 H140        2.4182  -20.0212  -46.0249 H         1 UNK         0.0800 
    141 H141        2.5930  -23.3820  -47.9551 H         1 UNK         0.0800 
    142 H142        1.7681  -21.8663  -47.7687 H         1 UNK         0.0800 
    143 H143        1.5528  -24.2980  -45.9475 H         1 UNK         0.0600 
    144 H144        0.3424  -21.6007  -45.5096 H         1 UNK         0.3000 
    145 H145       -0.3136  -22.2941  -42.1237 H         1 UNK         0.0600 
    146 H146        1.0778  -20.3044  -41.5709 H         1 UNK         0.0600 
    147 H147        2.1028  -21.7041  -41.8521 H         1 UNK         0.0600 
    148 H148        1.9515  -20.4656  -43.0938 H         1 UNK         0.0600 
    149 H149       -0.3689  -19.8565  -43.6177 H         1 UNK         0.3000 
    150 H150       -2.9982  -20.5145  -45.7933 H         1 UNK         0.0600 
    151 H151       -4.5086  -20.2723  -43.8164 H         1 UNK         0.0600 
    152 H152       -4.4013  -18.7638  -44.7077 H         1 UNK         0.0600 
    153 H153       -3.5113  -18.9677  -43.1963 H         1 UNK         0.0600 
    154 H154       -2.1413  -17.9788  -45.0917 H         1 UNK         0.3000 
    155 H155        1.2272  -17.8845  -46.0733 H         1 UNK         0.0600 
    156 H156       -1.1593  -16.7902  -47.6493 H         1 UNK         0.0600 
    157 H157        0.1768  -17.7127  -48.3149 H         1 UNK         0.0600 
    158 H158        0.4702  -16.1121  -47.6562 H         1 UNK         0.0600 
    159 H159       -0.4719  -15.7603  -45.4276 H         1 UNK         0.3000 
    160 H160       -0.5120  -16.0841  -41.8522 H         1 UNK         0.0600 
    161 H161        0.7568  -14.1494  -43.8521 H         1 UNK         0.0600 
    162 H162        1.5122  -14.8290  -42.4162 H         1 UNK         0.0600 
    163 H163        0.1826  -13.6942  -42.2494 H         1 UNK         0.0600 
    164 H164       -1.7366  -14.5272  -44.0563 H         1 UNK         0.3000 
    165 H165       -4.8529  -16.0817  -43.7751 H         1 UNK         0.0600 
    166 H166       -5.8369  -13.8817  -43.1658 H         1 UNK         0.0600 
    167 H167       -5.1245  -14.6413  -41.7521 H         1 UNK         0.0600 
    168 H168       -4.2775  -13.3252  -42.5563 H         1 UNK         0.0600 
    169 H169       -3.9990  -13.6073  -44.9759 H         1 UNK         0.3000 
    170 H170       -2.6030  -14.9826  -47.9225 H         1 UNK         0.0600 
    171 H171       -5.0609  -15.0382  -48.3707 H         1 UNK         0.0600 
    172 H172       -5.2630  -13.5170  -47.5116 H         1 UNK         0.0600 
    173 H173       -4.3264  -13.5759  -49.0052 H         1 UNK         0.0600 
    174 H174       -3.1146  -12.3001  -47.1739 H         1 UNK         0.3000 
    175 H175       -1.1715  -10.9644  -46.7577 H         1 UNK         0.0600 
    176 H176       -1.4394  -11.8522  -43.8105 H         1 UNK         0.0600 
    177 H177       -1.4274  -10.1850  -44.3777 H         1 UNK         0.0600 
    178 H178       -2.7666  -11.2330  -44.7857 H         1 UNK         0.0600 
    179 H179        0.8848  -12.6282  -45.7575 H         1 UNK         0.3000 
    180 H180        3.2809   -9.9880  -45.0950 H         1 UNK         0.0600 
    181 H181        2.5318  -12.7308  -43.9873 H         1 UNK         0.0600 
    182 H182        2.4954  -11.2282  -43.0761 H         1 UNK         0.0600 
    183 H183        4.0233  -11.8480  -43.6853 H         1 UNK         0.0600 
    184 H184        3.3670  -12.6813  -46.2905 H         1 UNK         0.3000 
    185 H185        3.7713  -12.0844  -49.2953 H         1 UNK         0.0600 
    186 H186        5.5168  -10.3542  -49.5902 H         1 UNK         0.0600 
    187 H187        6.5240  -11.1100  -48.3597 H         1 UNK         0.0600 
    188 H188        6.2072  -11.9403  -49.8824 H         1 UNK         0.0600 
    189 H189        5.3803  -13.2631  -47.0730 H         1 UNK         0.3000 
    190 H190       -1.3661  -23.6394  -45.6656 H         1 UNK         0.3000 
    191 H191       -2.7273  -23.1816  -47.9905 H         1 UNK         0.0600 
    192 H192       -3.8517  -23.0963  -45.8675 H         1 UNK         0.0600 
    193 H193       -4.6792  -24.3120  -46.8058 H         1 UNK         0.0600 
    194 H194       -3.5549  -24.8071  -45.5442 H         1 UNK         0.0600 
    195 H195       -1.0873  -26.1603  -47.4369 H         1 UNK         0.3000 
    196 H196       -2.6004  -27.8703  -49.1863 H         1 UNK         0.0600 
    197 H197       -0.5127  -29.2456  -49.1461 H         1 UNK         0.0600 
    198 H198       -0.9797  -28.7556  -47.5255 H         1 UNK         0.0600 
    199 H199        0.3494  -27.9360  -48.3474 H         1 UNK         0.0600 
    200 H200       -0.3156  -25.2467  -49.7717 H         1 UNK         0.3000 
    201 H201        0.2620  -25.9567  -52.5517 H         1 UNK         0.0600 
    202 H202        1.9189  -24.6999  -51.1899 H         1 UNK         0.0600 
    203 H203        0.7670  -23.3906  -50.9498 H         1 UNK         0.0600 
    204 H204        1.3810  -23.7363  -52.5587 H         1 UNK         0.0600 
    205 H205       -1.4264  -25.9130  -53.8938 H         1 UNK         0.3000 
    206 H206       -2.9796  -25.2607  -55.2724 H         1 UNK         0.0600 
    207 H207       -1.7332  -23.0920  -55.4616 H         1 UNK         0.0600 
    208 H208       -3.4610  -22.9027  -55.7227 H         1 UNK         0.0600 
    209 H209       -2.7561  -22.4114  -54.1951 H         1 UNK         0.0600 
    210 H210       -3.5782  -24.0871  -51.9929 H         1 UNK         0.3000 
    211 H211       -5.3323  -24.0263  -50.6256 H         1 UNK         0.0600 
    212 H212       -6.4890  -26.2782  -52.3587 H         1 UNK         0.0600 
    213 H213       -6.9928  -25.8604  -50.7263 H         1 UNK         0.0600 
    214 H214       -5.3745  -26.4825  -51.0081 H         1 UNK         0.0600 
    215 H215       -5.5970  -21.8644  -51.5175 H         1 UNK         0.3000 
    216 H216       -7.9429  -21.2947  -53.2281 H         1 UNK         0.0600 
    217 H217       -7.1575  -18.9280  -52.9095 H         1 UNK         0.0600 
    218 H218       -5.9209  -19.9548  -53.6153 H         1 UNK         0.0600 
    219 H219       -5.8271  -19.5064  -51.9125 H         1 UNK         0.0600 
    220 H220       -9.1322  -22.5774  -51.5624 H         1 UNK         0.3000 
    221 H221      -10.5429  -22.8939  -49.8811 H         1 UNK         0.0600 
    222 H222      -10.5729  -19.8498  -49.4377 H         1 UNK         0.0600 
    223 H223      -11.6789  -20.7654  -50.4504 H         1 UNK         0.0600 
    224 H224      -11.6771  -21.0154  -48.7154 H         1 UNK         0.0600 
    225 H225       -9.6776  -20.4429  -47.6776 H         1 UNK         0.3000 
    226 H226       -8.0905  -22.2735  -46.0414 H         1 UNK         0.0600 
    227 H227       -9.7714  -20.7668  -45.0077 H         1 UNK         0.0600 
    228 H228       -8.1618  -20.3907  -44.4139 H         1 UNK         0.0600 
    229 H229       -8.9130  -19.3513  -45.6182 H         1 UNK         0.0600 
    230 H230       -7.3984  -19.7503  -48.3986 H         1 UNK         0.3000 
    231 H231       -4.7506  -19.1035  -47.2961 H         1 UNK         0.0600 
    232 H232       -6.1686  -18.1543  -49.8431 H         1 UNK         0.0600 
    233 H233       -4.6780  -17.4990  -49.1812 H         1 UNK         0.0600 
    234 H234       -6.1804  -17.3189  -48.2913 H         1 UNK         0.0600 
    235 H235       -2.8667  -19.1483  -48.7714 H         1 UNK         0.3000 
    236 H236       -2.6972  -21.7010  -50.3088 H         1 UNK         0.0600 
    237 H237       -1.2236  -21.4366  -48.2705 H         1 UNK         0.0600 
    238 H238       -0.2976  -21.5880  -49.7586 H         1 UNK         0.0600 
    239 H239       -0.5065  -20.0133  -49.0026 H         1 UNK         0.0600 
    240 H240       -1.3995  -21.6652  -52.1829 H         1 UNK         0.3000 
    241 H241       -0.4538  -21.0316  -54.0449 H         1 UNK         0.0600 
    242 H242       -3.7522  -19.1500  -55.0137 H         1 UNK         0.3800 
    243 H243       -3.4792  -19.9663  -53.4941 H         1 UNK         0.3800 
    244 H244        0.9063  -18.9968  -54.2322 H         1 UNK         0.0800 
    245 H245        0.0877  -18.2655  -52.8836 H         1 UNK         0.0800 
    246 H246        1.9263  -17.7139  -51.3552 H         1 UNK         0.0800 
    247 H247        0.8159  -18.6354  -50.3752 H         1 UNK         0.0800 
@<TRIPOS>BOND
     1    1    2 1    
     2    1  127 1    
     3    1  128 1    
     4    1  129 1    
     5    2    3 2    
     6    2    4 am   BACKBONE|DICT|INTERRES
     7    4    5 1    
     8    4  130 1    
     9    5    6 1    
    10    5   65 1    
    11    5  131 1    
    12    6    7 1    
    13    6  132 1    
    14    6  133 1    
    15    7    8 1    
    16    8    9 1    
    17    8  134 1    
    18    8  135 1    
    19    9   10 ar   
    20    9   14 ar   
    21   10   11 ar   
    22   10  136 1    
    23   11   12 ar   
    24   11  126 1    
    25   12   13 ar   
    26   12  137 1    
    27   13   14 ar   
    28   13   15 1    
    29   14  138 1    
    30   15   16 1    
    31   15  139 1    
    32   15  140 1    
    33   16   17 1    
    34   17   18 1    
    35   17  141 1    
    36   17  142 1    
    37   18   19 1    
    38   18   67 1    
    39   18  143 1    
    40   19   20 am   BACKBONE|DICT|INTERRES
    41   19  144 1    
    42   20   21 2    
    43   20   22 1    
    44   22   23 1    
    45   22   24 1    
    46   22  145 1    
    47   23  146 1    
    48   23  147 1    
    49   23  148 1    
    50   24   25 am   BACKBONE|DICT|INTERRES
    51   24  149 1    
    52   25   26 2    
    53   25   27 1    
    54   27   28 1    
    55   27   29 1    
    56   27  150 1    
    57   28  151 1    
    58   28  152 1    
    59   28  153 1    
    60   29   30 am   BACKBONE|DICT|INTERRES
    61   29  154 1    
    62   30   31 2    
    63   30   32 1    
    64   32   33 1    
    65   32   34 1    
    66   32  155 1    
    67   33  156 1    
    68   33  157 1    
    69   33  158 1    
    70   34   35 am   BACKBONE|DICT|INTERRES
    71   34  159 1    
    72   35   36 2    
    73   35   37 1    
    74   37   38 1    
    75   37   39 1    
    76   37  160 1    
    77   38  161 1    
    78   38  162 1    
    79   38  163 1    
    80   39   40 am   BACKBONE|DICT|INTERRES
    81   39  164 1    
    82   40   41 2    
    83   40   42 1    
    84   42   43 1    
    85   42   44 1    
    86   42  165 1    
    87   43  166 1    
    88   43  167 1    
    89   43  168 1    
    90   44   45 am   BACKBONE|DICT|INTERRES
    91   44  169 1    
    92   45   46 2    
    93   45   47 1    
    94   47   48 1    
    95   47   49 1    
    96   47  170 1    
    97   48  171 1    
    98   48  172 1    
    99   48  173 1    
   100   49   50 am   BACKBONE|DICT|INTERRES
   101   49  174 1    
   102   50   51 2    
   103   50   52 1    
   104   52   53 1    
   105   52   54 1    
   106   52  175 1    
   107   53  176 1    
   108   53  177 1    
   109   53  178 1    
   110   54   55 am   BACKBONE|DICT|INTERRES
   111   54  179 1    
   112   55   56 2    
   113   55   57 1    
   114   57   58 1    
   115   57   59 1    
   116   57  180 1    
   117   58  181 1    
   118   58  182 1    
   119   58  183 1    
   120   59   60 am   BACKBONE|DICT|INTERRES
   121   59  184 1    
   122   60   61 2    
   123   60   62 1    
   124   62   63 1    
   125   62   64 1    
   126   62  185 1    
   127   63  186 1    
   128   63  187 1    
   129   63  188 1    
   130   64   65 am   BACKBONE|DICT|INTERRES
   131   64  189 1    
   132   65   66 2    
   133   67   68 2    
   134   67   69 am   BACKBONE|DICT|INTERRES
   135   69   70 1    
   136   69  190 1    
   137   70   71 1    
   138   70   72 1    
   139   70  191 1    
   140   71  192 1    
   141   71  193 1    
   142   71  194 1    
   143   72   73 2    
   144   72   74 am   BACKBONE|DICT|INTERRES
   145   74   75 1    
   146   74  195 1    
   147   75   76 1    
   148   75   77 1    
   149   75  196 1    
   150   76  197 1    
   151   76  198 1    
   152   76  199 1    
   153   77   78 2    
   154   77   79 am   BACKBONE|DICT|INTERRES
   155   79   80 1    
   156   79  200 1    
   157   80   81 1    
   158   80   82 1    
   159   80  201 1    
   160   81  202 1    
   161   81  203 1    
   162   81  204 1    
   163   82   83 2    
   164   82   84 am   BACKBONE|DICT|INTERRES
   165   84   85 1    
   166   84  205 1    
   167   85   86 1    
   168   85   87 1    
   169   85  206 1    
   170   86  207 1    
   171   86  208 1    
   172   86  209 1    
   173   87   88 2    
   174   87   89 am   BACKBONE|DICT|INTERRES
   175   89   90 1    
   176   89  210 1    
   177   90   91 1    
   178   90   92 1    
   179   90  211 1    
   180   91  212 1    
   181   91  213 1    
   182   91  214 1    
   183   92   93 2    
   184   92   94 am   BACKBONE|DICT|INTERRES
   185   94   95 1    
   186   94  215 1    
   187   95   96 1    
   188   95   97 1    
   189   95  216 1    
   190   96  217 1    
   191   96  218 1    
   192   96  219 1    
   193   97   98 2    
   194   97   99 am   BACKBONE|DICT|INTERRES
   195   99  100 1    
   196   99  220 1    
   197  100  101 1    
   198  100  102 1    
   199  100  221 1    
   200  101  222 1    
   201  101  223 1    
   202  101  224 1    
   203  102  103 2    
   204  102  104 am   BACKBONE|DICT|INTERRES
   205  104  105 1    
   206  104  225 1    
   207  105  106 1    
   208  105  107 1    
   209  105  226 1    
   210  106  227 1    
   211  106  228 1    
   212  106  229 1    
   213  107  108 2    
   214  107  109 am   BACKBONE|DICT|INTERRES
   215  109  110 1    
   216  109  230 1    
   217  110  111 1    
   218  110  112 1    
   219  110  231 1    
   220  111  232 1    
   221  111  233 1    
   222  111  234 1    
   223  112  113 2    
   224  112  114 am   BACKBONE|DICT|INTERRES
   225  114  115 1    
   226  114  235 1    
   227  115  116 1    
   228  115  117 1    
   229  115  236 1    
   230  116  237 1    
   231  116  238 1    
   232  116  239 1    
   233  117  118 2    
   234  117  119 am   BACKBONE|DICT|INTERRES
   235  119  120 1    
   236  119  240 1    
   237  120  121 1    
   238  120  124 1    
   239  120  241 1    
   240  121  122 am   BACKBONE|DICT|INTERRES
   241  121  123 2    
   242  122  242 1    
   243  122  243 1    
   244  124  125 1    
   245  124  244 1    
   246  124  245 1    
   247  125  126 1    
   248  126  246 1    
   249  126  247 1    
@<TRIPOS>SUBSTRUCTURE
     1 UNK         1 GROUP             0       ****    0 ROOT    
