@<TRIPOS>MOLECULE
3R540
247   249    1
SMALL
USER_CHARGES


@<TRIPOS>ATOM
      1 CA         -1.3217  -18.1197  -49.3052 C.3       0 UNK        -0.1800 
      2 C          -1.4820  -16.6063  -49.3201 C.2       0 UNK         0.5000 
      3 O          -2.5942  -16.0977  -49.4607 O.2       0 UNK        -0.5000 
      4 N          -0.3638  -15.8857  -49.1858 N.am      1 UNK        -0.5000 
      5 CA         -0.2965  -14.4249  -49.1050 C.3       1 UNK         0.1400 
      6 C6          1.1609  -13.9054  -49.2272 C.3       23 UNK        -0.0398 
      7 S7          2.3608  -14.7365  -48.1206 S.3       23 UNK        -0.2404 
      8 C8          3.5253  -15.4890  -49.3016 C.3       23 UNK        -0.0205 
      9 C9          2.9598  -16.7298  -49.9802 C.ar      23 UNK        -0.0193 
     10 C10         2.2775  -16.6193  -51.1964 C.ar      23 UNK        -0.1150 
     11 C11         1.7909  -17.7567  -51.8441 C.ar      23 UNK        -0.0193 
     12 C12         2.0192  -19.0136  -51.2825 C.ar      23 UNK        -0.1150 
     13 C13         2.7020  -19.1444  -50.0706 C.ar      23 UNK        -0.0193 
     14 C14         3.1595  -17.9955  -49.4163 C.ar      23 UNK        -0.1150 
     15 C15         2.9987  -20.5315  -49.5141 C.3       23 UNK        -0.0205 
     16 S16         1.5046  -21.5623  -49.3419 S.3       23 UNK        -0.2404 
     17 C17         0.9184  -21.0784  -47.6899 C.3       23 UNK        -0.0398 
     18 CA         -0.0983  -22.0912  -47.1028 C.3       11 UNK         0.1400 
     19 N          -0.0864  -22.0864  -45.6358 N.am      11 UNK        -0.5000 
     20 C          -0.7830  -22.9217  -44.8508 C.2       10 UNK         0.5000 
     21 O          -1.4918  -23.8321  -45.2772 O.2       10 UNK        -0.5000 
     22 CA         -0.7219  -22.6658  -43.3340 C.3       10 UNK         0.1400 
     23 CB          0.5532  -23.2685  -42.7267 C.3       10 UNK        -0.1800 
     24 N          -0.8109  -21.2432  -43.0010 N.am      10 UNK        -0.5000 
     25 C          -1.8782  -20.4729  -43.2598 C.2       9 UNK         0.5000 
     26 O          -2.9238  -20.8986  -43.7486 O.2       9 UNK        -0.5000 
     27 CA         -1.7376  -18.9656  -42.9845 C.3       9 UNK         0.1400 
     28 CB         -1.9305  -18.6571  -41.4926 C.3       9 UNK        -0.1800 
     29 N          -0.4526  -18.4334  -43.4342 N.am      9 UNK        -0.5000 
     30 C          -0.0242  -18.4333  -44.7043 C.2       8 UNK         0.5000 
     31 O          -0.6908  -18.8444  -45.6539 O.2       8 UNK        -0.5000 
     32 CA          1.4191  -17.9555  -44.9382 C.3       8 UNK         0.1400 
     33 CB          1.5020  -16.4229  -44.9461 C.3       8 UNK        -0.1800 
     34 N           2.3397  -18.4901  -43.9341 N.am      8 UNK        -0.5000 
     35 C           2.6799  -19.7823  -43.8306 C.2       7 UNK         0.5000 
     36 O           2.2679  -20.6594  -44.5878 O.2       7 UNK        -0.5000 
     37 CA          3.6059  -20.1634  -42.6620 C.3       7 UNK         0.1400 
     38 CB          5.0723  -19.8730  -43.0149 C.3       7 UNK        -0.1800 
     39 N           3.2572  -19.4698  -41.4218 N.am      7 UNK        -0.5000 
     40 C           2.1250  -19.6745  -40.7338 C.2       6 UNK         0.5000 
     41 O           1.2667  -20.4952  -41.0561 O.2       6 UNK        -0.5000 
     42 CA          1.8906  -18.7695  -39.5094 C.3       6 UNK         0.1400 
     43 CB          2.5943  -19.3417  -38.2699 C.3       6 UNK        -0.1800 
     44 N           2.3211  -17.3829  -39.7202 N.am      6 UNK        -0.5000 
     45 C           1.8249  -16.5754  -40.6662 C.2       5 UNK         0.5000 
     46 O           0.9789  -16.9310  -41.4898 O.2       5 UNK        -0.5000 
     47 CA          2.4086  -15.1551  -40.7447 C.3       5 UNK         0.1400 
     48 CB          3.6799  -15.1498  -41.6084 C.3       5 UNK        -0.1800 
     49 N           1.4400  -14.2368  -41.3374 N.am      5 UNK        -0.5000 
     50 C           0.3578  -13.7512  -40.7158 C.2       4 UNK         0.5000 
     51 O           0.1291  -13.9308  -39.5182 O.2       4 UNK        -0.5000 
     52 CA         -0.6551  -12.9639  -41.5781 C.3       4 UNK         0.1400 
     53 CB         -1.2276  -11.7352  -40.8410 C.3       4 UNK        -0.1800 
     54 N          -0.1619  -12.5991  -42.9146 N.am      4 UNK        -0.5000 
     55 C           0.8235  -11.7408  -43.2243 C.2       3 UNK         0.5000 
     56 O           1.4782  -11.1120  -42.3929 O.2       3 UNK        -0.5000 
     57 CA          1.1545  -11.5781  -44.7201 C.3       3 UNK         0.1400 
     58 CB          2.4022  -12.3993  -45.0822 C.3       3 UNK        -0.1800 
     59 N           0.0566  -11.9842  -45.5993 N.am      3 UNK        -0.5000 
     60 C          -1.0486  -11.2674  -45.8413 C.2       2 UNK         0.5000 
     61 O          -1.2537  -10.1604  -45.3407 O.2       2 UNK        -0.5000 
     62 CA         -2.0854  -11.8861  -46.8099 C.3       2 UNK         0.1400 
     63 CB         -3.0370  -10.8315  -47.4034 C.3       2 UNK        -0.1800 
     64 N          -1.4669  -12.6311  -47.9125 N.am      2 UNK        -0.5000 
     65 C          -0.9765  -13.8745  -47.8320 C.2       1 UNK         0.5000 
     66 O          -0.9893  -14.5344  -46.7907 O.2       1 UNK        -0.5000 
     67 C          -1.5163  -21.8657  -47.6704 C.2       11 UNK         0.5000 
     68 O          -1.9433  -22.6047  -48.5611 O.2       11 UNK        -0.5000 
     69 N          -2.2289  -20.8806  -47.1038 N.am      12 UNK        -0.5000 
     70 CA         -3.6161  -20.5576  -47.4291 C.3       12 UNK         0.1400 
     71 CB         -4.0138  -19.2310  -46.7623 C.3       12 UNK        -0.1800 
     72 C          -4.5907  -21.6783  -47.0304 C.2       12 UNK         0.5000 
     73 O          -5.4347  -22.0577  -47.8403 O.2       12 UNK        -0.5000 
     74 N          -4.4439  -22.2058  -45.8063 N.am      13 UNK        -0.5000 
     75 CA         -5.2680  -23.2866  -45.2594 C.3       13 UNK         0.1400 
     76 CB         -4.9327  -23.4901  -43.7743 C.3       13 UNK        -0.1800 
     77 C          -5.1252  -24.6094  -46.0333 C.2       13 UNK         0.5000 
     78 O          -6.1261  -25.2886  -46.2657 O.2       13 UNK        -0.5000 
     79 N          -3.8914  -24.9382  -46.4381 N.am      14 UNK        -0.5000 
     80 CA         -3.5788  -26.0938  -47.2786 C.3       14 UNK         0.1400 
     81 CB         -2.0712  -26.3792  -47.1923 C.3       14 UNK        -0.1800 
     82 C          -3.9919  -25.9001  -48.7498 C.2       14 UNK         0.5000 
     83 O          -4.1734  -26.8943  -49.4535 O.2       14 UNK        -0.5000 
     84 N          -4.0960  -24.6348  -49.1884 N.am      15 UNK        -0.5000 
     85 CA         -4.2888  -24.1807  -50.5701 C.3       15 UNK         0.1400 
     86 CB         -5.6981  -24.5468  -51.0794 C.3       15 UNK        -0.1800 
     87 C          -3.1529  -24.6754  -51.4892 C.2       15 UNK         0.5000 
     88 O          -3.4024  -25.1505  -52.5987 O.2       15 UNK        -0.5000 
     89 N          -1.9176  -24.5945  -50.9729 N.am      16 UNK        -0.5000 
     90 CA         -0.7247  -25.2172  -51.5512 C.3       16 UNK         0.1400 
     91 CB          0.4099  -25.1804  -50.5183 C.3       16 UNK        -0.1800 
     92 C          -0.2767  -24.5999  -52.8885 C.2       16 UNK         0.5000 
     93 O           0.3364  -25.2946  -53.6992 O.2       16 UNK        -0.5000 
     94 N          -0.6258  -23.3285  -53.1180 N.am      17 UNK        -0.5000 
     95 CA         -0.3885  -22.5962  -54.3626 C.3       17 UNK         0.1400 
     96 CB         -0.0141  -21.1467  -54.0165 C.3       17 UNK        -0.1800 
     97 C          -1.5977  -22.6939  -55.3155 C.2       17 UNK         0.5000 
     98 O          -1.9785  -21.6984  -55.9319 O.2       17 UNK        -0.5000 
     99 N          -2.2042  -23.8875  -55.3901 N.am      18 UNK        -0.5000 
    100 CA        -3.3600  -24.2928  -56.2054 C.3       18 UNK         0.1400 
    101 CB        -3.0808  -24.0813  -57.7071 C.3       18 UNK        -0.1800 
    102 C         -4.7130  -23.6730  -55.7926 C.2       18 UNK         0.5000 
    103 O         -5.7517  -24.1228  -56.2793 O.2       18 UNK        -0.5000 
    104 N         -4.6947  -22.6836  -54.8976 N.am      19 UNK        -0.5000 
    105 CA        -5.8452  -22.0029  -54.3259 C.3       19 UNK         0.1400 
    106 CB        -6.3759  -20.9421  -55.3065 C.3       19 UNK        -0.1800 
    107 C         -5.3960  -21.3546  -53.0126 C.2       19 UNK         0.5000 
    108 O         -4.2037  -21.0870  -52.8362 O.2       19 UNK        -0.5000 
    109 N         -6.3595  -21.0827  -52.1250 N.am      20 UNK        -0.5000 
    110 CA        -6.1336  -20.4488  -50.8219 C.3       20 UNK         0.1400 
    111 CB        -7.4254  -20.5302  -49.9954 C.3       20 UNK        -0.1800 
    112 C         -5.6434  -18.9908  -50.9169 C.2       20 UNK         0.5000 
    113 O         -4.9806  -18.5177  -49.9967 O.2       20 UNK        -0.5000 
    114 N         -5.9688  -18.3206  -52.0294 N.am      21 UNK        -0.5000 
    115 CA        -5.5434  -16.9586  -52.3563 C.3       21 UNK         0.1400 
    116 CB        -6.7645  -16.1917  -52.8941 C.3       21 UNK        -0.1800 
    117 C         -4.3789  -16.9319  -53.3706 C.2       21 UNK         0.5000 
    118 O         -4.0393  -15.8495  -53.8501 O.2       21 UNK        -0.5000 
    119 N         -3.8026  -18.1047  -53.6780 N.am      22 UNK        -0.5000 
    120 CA        -2.7462  -18.3644  -54.6727 C.3       22 UNK         0.1400 
    121 C         -3.2767  -18.2907  -56.1313 C.2       22 UNK         0.5000 
    122 N         -3.1332  -19.3573  -56.9044 N.am      22 UNK        -0.7600 
    123 O         -3.7841  -17.2693  -56.5871 O.2       22 UNK        -0.5000 
    124 C124       -1.4682  -17.4953  -54.4986 C.3       23 UNK        -0.0398 
    125 S125       -0.7696  -17.5970  -52.8169 S.3       23 UNK        -0.2404 
    126 C126        1.0165  -17.6342  -53.1461 C.3       23 UNK        -0.0205 
    127 H127       -1.3601  -18.4862  -48.2818 H         1 UNK         0.0600 
    128 H128       -2.1181  -18.5983  -49.8757 H         1 UNK         0.0600 
    129 H129       -0.3685  -18.4217  -49.7384 H         1 UNK         0.0600 
    130 H130        0.5205  -16.3586  -49.0622 H         1 UNK         0.3000 
    131 H131       -0.8565  -14.0373  -49.9587 H         1 UNK         0.0600 
    132 H132        1.2099  -12.8324  -49.0328 H         1 UNK         0.0800 
    133 H133        1.4897  -14.0090  -50.2596 H         1 UNK         0.0800 
    134 H134        4.4373  -15.7532  -48.7643 H         1 UNK         0.0800 
    135 H135        3.8234  -14.7497  -50.0466 H         1 UNK         0.0800 
    136 H136        2.1242  -15.6495  -51.6463 H         1 UNK         0.1150 
    137 H137        1.6595  -19.8974  -51.7856 H         1 UNK         0.1150 
    138 H138        3.6995  -18.0860  -48.4841 H         1 UNK         0.1150 
    139 H139        3.6816  -21.0323  -50.2014 H         1 UNK         0.0800 
    140 H140        3.5226  -20.4703  -48.5592 H         1 UNK         0.0800 
    141 H141        1.7987  -21.0322  -47.0506 H         1 UNK         0.0800 
    142 H142        0.5195  -20.0637  -47.7252 H         1 UNK         0.0800 
    143 H143        0.2097  -23.0970  -47.3973 H         1 UNK         0.0600 
    144 H144        0.5121  -21.3963  -45.1933 H         1 UNK         0.3000 
    145 H145       -1.5789  -23.1666  -42.8795 H         1 UNK         0.0600 
    146 H146        0.5576  -23.1671  -41.6413 H         1 UNK         0.0600 
    147 H147        0.6285  -24.3325  -42.9540 H         1 UNK         0.0600 
    148 H148        1.4519  -22.7860  -43.1106 H         1 UNK         0.0600 
    149 H149       -0.0042  -20.8311  -42.5425 H         1 UNK         0.3000 
    150 H150       -2.5220  -18.4511  -43.5432 H         1 UNK         0.0600 
    151 H151       -2.8989  -19.0157  -41.1418 H         1 UNK         0.0600 
    152 H152       -1.8916  -17.5839  -41.3042 H         1 UNK         0.0600 
    153 H153       -1.1627  -19.1307  -40.8807 H         1 UNK         0.0600 
    154 H154        0.1483  -18.0320  -42.7176 H         1 UNK         0.3000 
    155 H155        1.7369  -18.3165  -45.9190 H         1 UNK         0.0600 
    156 H156        2.5185  -16.0828  -45.1440 H         1 UNK         0.0600 
    157 H157        1.1772  -15.9890  -44.0006 H         1 UNK         0.0600 
    158 H158        0.8664  -16.0119  -45.7293 H         1 UNK         0.0600 
    159 H159        2.6747  -17.8447  -43.2357 H         1 UNK         0.3000 
    160 H160        3.5024  -21.2372  -42.4918 H         1 UNK         0.0600 
    161 H161        5.2482  -18.8078  -43.1703 H         1 UNK         0.0600 
    162 H162        5.3626  -20.3908  -43.9301 H         1 UNK         0.0600 
    163 H163        5.7422  -20.2123  -42.2247 H         1 UNK         0.0600 
    164 H164        3.9070  -18.7749  -41.0854 H         1 UNK         0.3000 
    165 H165        0.8164  -18.7557  -39.3136 H         1 UNK         0.0600 
    166 H166        3.6786  -19.3487  -38.3880 H         1 UNK         0.0600 
    167 H167        2.3569  -18.7612  -37.3783 H         1 UNK         0.0600 
    168 H168        2.2779  -20.3685  -38.0809 H         1 UNK         0.0600 
    169 H169        3.0230  -17.0273  -39.0872 H         1 UNK         0.3000 
    170 H170        2.6576  -14.8130  -39.7380 H         1 UNK         0.0600 
    171 H171        4.4440  -15.8048  -41.1880 H         1 UNK         0.0600 
    172 H172        3.4804  -15.4880  -42.6260 H         1 UNK         0.0600 
    173 H173        4.1096  -14.1495  -41.6683 H         1 UNK         0.0600 
    174 H174        1.5283  -14.0658  -42.3265 H         1 UNK         0.3000 
    175 H175       -1.4844  -13.6513  -41.7504 H         1 UNK         0.0600 
    176 H176       -1.9447  -11.2003  -41.4638 H         1 UNK         0.0600 
    177 H177       -1.7497  -12.0329  -39.9310 H         1 UNK         0.0600 
    178 H178       -0.4453  -11.0337  -40.5506 H         1 UNK         0.0600 
    179 H179       -0.6195  -13.0669  -43.6843 H         1 UNK         0.3000 
    180 H180        1.3743  -10.5233  -44.8975 H         1 UNK         0.0600 
    181 H181        2.6959  -12.2318  -46.1186 H         1 UNK         0.0600 
    182 H182        3.2514  -12.1211  -44.4566 H         1 UNK         0.0600 
    183 H183        2.2341  -13.4688  -44.9517 H         1 UNK         0.0600 
    184 H184        0.1222  -12.9019  -46.0228 H         1 UNK         0.3000 
    185 H185       -2.6901  -12.5778  -46.2197 H         1 UNK         0.0600 
    186 H186       -3.7767  -11.2919  -48.0588 H         1 UNK         0.0600 
    187 H187       -3.5861  -10.3093  -46.6188 H         1 UNK         0.0600 
    188 H188       -2.4956  -10.0819  -47.9818 H         1 UNK         0.0600 
    189 H189       -1.3897  -12.1315  -48.7869 H         1 UNK         0.3000 
    190 H190       -1.7806  -20.3005  -46.4003 H         1 UNK         0.3000 
    191 H191       -3.6796  -20.4273  -48.5109 H         1 UNK         0.0600 
    192 H192       -5.0451  -18.9705  -47.0037 H         1 UNK         0.0600 
    193 H193       -3.3880  -18.4082  -47.1060 H         1 UNK         0.0600 
    194 H194       -3.9317  -19.2805  -45.6766 H         1 UNK         0.0600 
    195 H195       -3.7493  -21.8063  -45.1796 H         1 UNK         0.3000 
    196 H196       -6.3117  -22.9739  -45.3312 H         1 UNK         0.0600 
    197 H197       -5.5455  -24.2804  -43.3390 H         1 UNK         0.0600 
    198 H198       -5.1179  -22.5820  -43.2005 H         1 UNK         0.0600 
    199 H199       -3.8879  -23.7680  -43.6334 H         1 UNK         0.0600 
    200 H200       -3.1051  -24.3623  -46.1463 H         1 UNK         0.3000 
    201 H201       -4.1155  -26.9627  -46.8921 H         1 UNK         0.0600 
    202 H202       -1.7668  -26.5840  -46.1658 H         1 UNK         0.0600 
    203 H203       -1.4827  -25.5342  -47.5531 H         1 UNK         0.0600 
    204 H204       -1.8002  -27.2489  -47.7922 H         1 UNK         0.0600 
    205 H205       -3.9071  -23.8978  -48.5212 H         1 UNK         0.3000 
    206 H206       -4.2113  -23.0934  -50.5514 H         1 UNK         0.0600 
    207 H207       -6.4680  -24.1150  -50.4397 H         1 UNK         0.0600 
    208 H208       -5.8631  -24.1687  -52.0877 H         1 UNK         0.0600 
    209 H209       -5.8527  -25.6253  -51.1117 H         1 UNK         0.0600 
    210 H210       -1.8082  -24.1417  -50.0720 H         1 UNK         0.3000 
    211 H211       -0.9642  -26.2644  -51.7474 H         1 UNK         0.0600 
    212 H212        0.6655  -24.1582  -50.2449 H         1 UNK         0.0600 
    213 H213        1.3124  -25.6524  -50.9087 H         1 UNK         0.0600 
    214 H214        0.1331  -25.7119  -49.6077 H         1 UNK         0.0600 
    215 H215       -1.1587  -22.8486  -52.4068 H         1 UNK         0.3000 
    216 H216        0.4590  -23.0318  -54.8955 H         1 UNK         0.0600 
    217 H217        0.1156  -20.5379  -54.9121 H         1 UNK         0.0600 
    218 H218        0.9305  -21.1215  -53.4767 H         1 UNK         0.0600 
    219 H219       -0.7720  -20.6715  -53.3933 H         1 UNK         0.0600 
    220 H220       -1.8403  -24.6166  -54.7915 H         1 UNK         0.3000 
    221 H221       -3.4653  -25.3661  -56.0412 H         1 UNK         0.0600 
    222 H222       -3.0237  -23.0239  -57.9664 H         1 UNK         0.0600 
    223 H223       -2.1444  -24.5527  -58.0054 H         1 UNK         0.0600 
    224 H224       -3.8723  -24.5201  -58.3156 H         1 UNK         0.0600 
    225 H225       -3.8045  -22.3733  -54.5290 H         1 UNK         0.3000 
    226 H226       -6.6262  -22.7346  -54.1092 H         1 UNK         0.0600 
    227 H227       -7.2416  -20.4224  -54.8946 H         1 UNK         0.0600 
    228 H228       -5.6185  -20.1916  -55.5337 H         1 UNK         0.0600 
    229 H229       -6.6894  -21.3932  -56.2480 H         1 UNK         0.0600 
    230 H230       -7.3153  -21.3258  -52.3438 H         1 UNK         0.3000 
    231 H231       -5.3586  -21.0153  -50.3042 H         1 UNK         0.0600 
    232 H232       -7.2849  -20.0852  -49.0093 H         1 UNK         0.0600 
    233 H233       -7.7270  -21.5662  -49.8390 H         1 UNK         0.0600 
    234 H234       -8.2497  -20.0055  -50.4797 H         1 UNK         0.0600 
    235 H235       -6.5260  -18.7938  -52.7251 H         1 UNK         0.3000 
    236 H236       -5.1925  -16.4482  -51.4568 H         1 UNK         0.0600 
    237 H237       -7.1332  -16.6248  -53.8248 H         1 UNK         0.0600 
    238 H238       -7.5822  -16.1980  -52.1732 H         1 UNK         0.0600 
    239 H239       -6.5188  -15.1476  -53.0919 H         1 UNK         0.0600 
    240 H240       -4.1346  -18.9322  -53.2001 H         1 UNK         0.3000 
    241 H241       -2.4539  -19.3982  -54.4890 H         1 UNK         0.0600 
    242 H242       -3.4568  -19.3200  -57.8574 H         1 UNK         0.3800 
    243 H243       -2.7017  -20.2151  -56.5573 H         1 UNK         0.3800 
    244 H244       -1.6686  -16.4477  -54.7259 H         1 UNK         0.0800 
    245 H245       -0.7090  -17.8165  -55.2136 H         1 UNK         0.0800 
    246 H246        1.3072  -16.7274  -53.6786 H         1 UNK         0.0800 
    247 H247        1.2558  -18.4721  -53.8019 H         1 UNK         0.0800 
@<TRIPOS>BOND
     1    1    2 1    
     2    1  127 1    
     3    1  128 1    
     4    1  129 1    
     5    2    3 2    
     6    2    4 am   BACKBONE|DICT|INTERRES
     7    4    5 1    
     8    4  130 1    
     9    5    6 1    
    10    5   65 1    
    11    5  131 1    
    12    6    7 1    
    13    6  132 1    
    14    6  133 1    
    15    7    8 1    
    16    8    9 1    
    17    8  134 1    
    18    8  135 1    
    19    9   10 ar   
    20    9   14 ar   
    21   10   11 ar   
    22   10  136 1    
    23   11   12 ar   
    24   11  126 1    
    25   12   13 ar   
    26   12  137 1    
    27   13   14 ar   
    28   13   15 1    
    29   14  138 1    
    30   15   16 1    
    31   15  139 1    
    32   15  140 1    
    33   16   17 1    
    34   17   18 1    
    35   17  141 1    
    36   17  142 1    
    37   18   19 1    
    38   18   67 1    
    39   18  143 1    
    40   19   20 am   BACKBONE|DICT|INTERRES
    41   19  144 1    
    42   20   21 2    
    43   20   22 1    
    44   22   23 1    
    45   22   24 1    
    46   22  145 1    
    47   23  146 1    
    48   23  147 1    
    49   23  148 1    
    50   24   25 am   BACKBONE|DICT|INTERRES
    51   24  149 1    
    52   25   26 2    
    53   25   27 1    
    54   27   28 1    
    55   27   29 1    
    56   27  150 1    
    57   28  151 1    
    58   28  152 1    
    59   28  153 1    
    60   29   30 am   BACKBONE|DICT|INTERRES
    61   29  154 1    
    62   30   31 2    
    63   30   32 1    
    64   32   33 1    
    65   32   34 1    
    66   32  155 1    
    67   33  156 1    
    68   33  157 1    
    69   33  158 1    
    70   34   35 am   BACKBONE|DICT|INTERRES
    71   34  159 1    
    72   35   36 2    
    73   35   37 1    
    74   37   38 1    
    75   37   39 1    
    76   37  160 1    
    77   38  161 1    
    78   38  162 1    
    79   38  163 1    
    80   39   40 am   BACKBONE|DICT|INTERRES
    81   39  164 1    
    82   40   41 2    
    83   40   42 1    
    84   42   43 1    
    85   42   44 1    
    86   42  165 1    
    87   43  166 1    
    88   43  167 1    
    89   43  168 1    
    90   44   45 am   BACKBONE|DICT|INTERRES
    91   44  169 1    
    92   45   46 2    
    93   45   47 1    
    94   47   48 1    
    95   47   49 1    
    96   47  170 1    
    97   48  171 1    
    98   48  172 1    
    99   48  173 1    
   100   49   50 am   BACKBONE|DICT|INTERRES
   101   49  174 1    
   102   50   51 2    
   103   50   52 1    
   104   52   53 1    
   105   52   54 1    
   106   52  175 1    
   107   53  176 1    
   108   53  177 1    
   109   53  178 1    
   110   54   55 am   BACKBONE|DICT|INTERRES
   111   54  179 1    
   112   55   56 2    
   113   55   57 1    
   114   57   58 1    
   115   57   59 1    
   116   57  180 1    
   117   58  181 1    
   118   58  182 1    
   119   58  183 1    
   120   59   60 am   BACKBONE|DICT|INTERRES
   121   59  184 1    
   122   60   61 2    
   123   60   62 1    
   124   62   63 1    
   125   62   64 1    
   126   62  185 1    
   127   63  186 1    
   128   63  187 1    
   129   63  188 1    
   130   64   65 am   BACKBONE|DICT|INTERRES
   131   64  189 1    
   132   65   66 2    
   133   67   68 2    
   134   67   69 am   BACKBONE|DICT|INTERRES
   135   69   70 1    
   136   69  190 1    
   137   70   71 1    
   138   70   72 1    
   139   70  191 1    
   140   71  192 1    
   141   71  193 1    
   142   71  194 1    
   143   72   73 2    
   144   72   74 am   BACKBONE|DICT|INTERRES
   145   74   75 1    
   146   74  195 1    
   147   75   76 1    
   148   75   77 1    
   149   75  196 1    
   150   76  197 1    
   151   76  198 1    
   152   76  199 1    
   153   77   78 2    
   154   77   79 am   BACKBONE|DICT|INTERRES
   155   79   80 1    
   156   79  200 1    
   157   80   81 1    
   158   80   82 1    
   159   80  201 1    
   160   81  202 1    
   161   81  203 1    
   162   81  204 1    
   163   82   83 2    
   164   82   84 am   BACKBONE|DICT|INTERRES
   165   84   85 1    
   166   84  205 1    
   167   85   86 1    
   168   85   87 1    
   169   85  206 1    
   170   86  207 1    
   171   86  208 1    
   172   86  209 1    
   173   87   88 2    
   174   87   89 am   BACKBONE|DICT|INTERRES
   175   89   90 1    
   176   89  210 1    
   177   90   91 1    
   178   90   92 1    
   179   90  211 1    
   180   91  212 1    
   181   91  213 1    
   182   91  214 1    
   183   92   93 2    
   184   92   94 am   BACKBONE|DICT|INTERRES
   185   94   95 1    
   186   94  215 1    
   187   95   96 1    
   188   95   97 1    
   189   95  216 1    
   190   96  217 1    
   191   96  218 1    
   192   96  219 1    
   193   97   98 2    
   194   97   99 am   BACKBONE|DICT|INTERRES
   195   99  100 1    
   196   99  220 1    
   197  100  101 1    
   198  100  102 1    
   199  100  221 1    
   200  101  222 1    
   201  101  223 1    
   202  101  224 1    
   203  102  103 2    
   204  102  104 am   BACKBONE|DICT|INTERRES
   205  104  105 1    
   206  104  225 1    
   207  105  106 1    
   208  105  107 1    
   209  105  226 1    
   210  106  227 1    
   211  106  228 1    
   212  106  229 1    
   213  107  108 2    
   214  107  109 am   BACKBONE|DICT|INTERRES
   215  109  110 1    
   216  109  230 1    
   217  110  111 1    
   218  110  112 1    
   219  110  231 1    
   220  111  232 1    
   221  111  233 1    
   222  111  234 1    
   223  112  113 2    
   224  112  114 am   BACKBONE|DICT|INTERRES
   225  114  115 1    
   226  114  235 1    
   227  115  116 1    
   228  115  117 1    
   229  115  236 1    
   230  116  237 1    
   231  116  238 1    
   232  116  239 1    
   233  117  118 2    
   234  117  119 am   BACKBONE|DICT|INTERRES
   235  119  120 1    
   236  119  240 1    
   237  120  121 1    
   238  120  124 1    
   239  120  241 1    
   240  121  122 am   BACKBONE|DICT|INTERRES
   241  121  123 2    
   242  122  242 1    
   243  122  243 1    
   244  124  125 1    
   245  124  244 1    
   246  124  245 1    
   247  125  126 1    
   248  126  246 1    
   249  126  247 1    
@<TRIPOS>SUBSTRUCTURE
     1 UNK         1 GROUP             0       ****    0 ROOT    
