@<TRIPOS>MOLECULE
3R540
247   249    1
SMALL
USER_CHARGES


@<TRIPOS>ATOM
      1 CA          5.3160   -9.4354  -49.6180 C.3       0 UNK        -0.1800 
      2 C           4.5486  -10.6669  -49.1579 C.2       0 UNK         0.5000 
      3 O           3.4105  -10.5413  -48.7061 O.2       0 UNK        -0.5000 
      4 N           5.1733  -11.8483  -49.2688 N.am      1 UNK        -0.5000 
      5 CA          4.6285  -13.1671  -48.9020 C.3       1 UNK         0.1400 
      6 C6          3.3880  -13.5976  -49.7396 C.3       23 UNK        -0.0398 
      7 S7          3.6317  -13.4437  -51.5439 S.3       23 UNK        -0.2404 
      8 C8          3.9883  -15.1648  -52.0351 C.3       23 UNK        -0.0205 
      9 C9          2.8044  -16.1246  -51.9208 C.ar      23 UNK        -0.0193 
     10 C10         1.5001  -15.7305  -52.2435 C.ar      23 UNK        -0.1150 
     11 C11         0.4356  -16.6342  -52.1608 C.ar      23 UNK        -0.0193 
     12 C12         0.6875  -17.9515  -51.7644 C.ar      23 UNK        -0.1150 
     13 C13         1.9857  -18.3659  -51.4576 C.ar      23 UNK        -0.0193 
     14 C14         3.0355  -17.4465  -51.5308 C.ar      23 UNK        -0.1150 
     15 C15         2.2689  -19.8100  -51.0749 C.3       23 UNK        -0.0205 
     16 S16         1.9583  -20.1169  -49.3099 S.3       23 UNK        -0.2404 
     17 C17         0.2717  -20.8086  -49.3571 C.3       23 UNK        -0.0398 
     18 CA         -0.5526  -20.4598  -48.0895 C.3       11 UNK         0.1400 
     19 N          -0.7701  -19.0212  -47.8964 N.am      11 UNK        -0.5000 
     20 C          -1.4432  -18.1762  -48.6905 C.2       10 UNK         0.5000 
     21 O          -1.9890  -18.5140  -49.7398 O.2       10 UNK        -0.5000 
     22 CA         -1.5892  -16.7219  -48.1989 C.3       10 UNK         0.1400 
     23 CB         -3.0622  -16.4098  -47.8886 C.3       10 UNK        -0.1800 
     24 N          -0.7922  -16.4445  -47.0016 N.am      10 UNK        -0.5000 
     25 C           0.5209  -16.1798  -47.0144 C.2       9 UNK         0.5000 
     26 O           1.1853  -16.0798  -48.0445 O.2       9 UNK        -0.5000 
     27 CA          1.2034  -16.0521  -45.6410 C.3       9 UNK         0.1400 
     28 CB          0.8760  -14.6973  -44.9915 C.3       9 UNK        -0.1800 
     29 N           0.8320  -17.1279  -44.7186 N.am      9 UNK        -0.5000 
     30 C           1.1271  -18.4266  -44.8771 C.2       8 UNK         0.5000 
     31 O           1.7241  -18.8794  -45.8511 O.2       8 UNK        -0.5000 
     32 CA          0.6447  -19.3890  -43.7779 C.3       8 UNK         0.1400 
     33 CB          1.6191  -19.4130  -42.5896 C.3       8 UNK        -0.1800 
     34 N          -0.6901  -19.0203  -43.3126 N.am      8 UNK        -0.5000 
     35 C          -1.8241  -19.4095  -43.9099 C.2       7 UNK         0.5000 
     36 O          -1.8639  -20.2218  -44.8333 O.2       7 UNK        -0.5000 
     37 CA         -3.1386  -18.7817  -43.4098 C.3       7 UNK         0.1400 
     38 CB         -3.8638  -19.7391  -42.4537 C.3       7 UNK        -0.1800 
     39 N          -2.9512  -17.4871  -42.7519 N.am      7 UNK        -0.5000 
     40 C          -2.6028  -16.3591  -43.3868 C.2       6 UNK         0.5000 
     41 O          -2.4056  -16.2901  -44.5999 O.2       6 UNK        -0.5000 
     42 CA         -2.3820  -15.1154  -42.5056 C.3       6 UNK         0.1400 
     43 CB         -3.7128  -14.3917  -42.2532 C.3       6 UNK        -0.1800 
     44 N          -1.7394  -15.4169  -41.2221 N.am      6 UNK        -0.5000 
     45 C          -0.5226  -15.9593  -41.0851 C.2       5 UNK         0.5000 
     46 O           0.1833  -16.3097  -42.0344 O.2       5 UNK        -0.5000 
     47 CA         -0.0376  -16.2017  -39.6523 C.3       5 UNK         0.1400 
     48 CB         -0.5587  -17.5503  -39.1265 C.3       5 UNK        -0.1800 
     49 N           1.4216  -16.2046  -39.6372 N.am      5 UNK        -0.5000 
     50 C           2.1840  -15.7971  -38.6159 C.2       4 UNK         0.5000 
     51 O           1.7241  -15.3879  -37.5486 O.2       4 UNK        -0.5000 
     52 CA          3.7163  -15.8625  -38.7922 C.3       4 UNK         0.1400 
     53 CB          4.2950  -17.0353  -37.9843 C.3       4 UNK        -0.1800 
     54 N           4.1691  -15.9859  -40.1812 N.am      4 UNK        -0.5000 
     55 C           4.1073  -15.0144  -41.0999 C.2       3 UNK         0.5000 
     56 O           3.6199  -13.8999  -40.8888 O.2       3 UNK        -0.5000 
     57 CA          4.6806  -15.3548  -42.4854 C.3       3 UNK         0.1400 
     58 CB          3.9132  -16.5215  -43.1335 C.3       3 UNK        -0.1800 
     59 N           4.6028  -14.1661  -43.3284 N.am      3 UNK        -0.5000 
     60 C           5.3132  -13.9379  -44.4368 C.2       2 UNK         0.5000 
     61 O           6.1360  -14.7294  -44.9046 O.2       2 UNK        -0.5000 
     62 CA          5.0922  -12.5685  -45.1089 C.3       2 UNK         0.1400 
     63 CB          6.0932  -11.5351  -44.5694 C.3       2 UNK        -0.1800 
     64 N           5.2090  -12.6218  -46.5673 N.am      2 UNK        -0.5000 
     65 C           4.3749  -13.2882  -47.3790 C.2       1 UNK         0.5000 
     66 O           3.4266  -13.9518  -46.9644 O.2       1 UNK        -0.5000 
     67 C          -1.8514  -21.2924  -48.0109 C.2       11 UNK         0.5000 
     68 O          -1.8173  -22.4820  -48.3214 O.2       11 UNK        -0.5000 
     69 N          -2.9614  -20.6930  -47.5553 N.am      12 UNK        -0.5000 
     70 CA         -4.2850  -21.3027  -47.4143 C.3       12 UNK         0.1400 
     71 CB         -5.2660  -20.2512  -46.8777 C.3       12 UNK        -0.1800 
     72 C          -4.3084  -22.5671  -46.5345 C.2       12 UNK         0.5000 
     73 O          -5.1162  -23.4605  -46.7899 O.2       12 UNK        -0.5000 
     74 N          -3.3992  -22.6400  -45.5529 N.am      13 UNK        -0.5000 
     75 CA         -3.1807  -23.8091  -44.7000 C.3       13 UNK         0.1400 
     76 CB         -2.2030  -23.4292  -43.5769 C.3       13 UNK        -0.1800 
     77 C          -2.6638  -25.0465  -45.4650 C.2       13 UNK         0.5000 
     78 O          -2.9726  -26.1704  -45.0675 O.2       13 UNK        -0.5000 
     79 N          -1.8962  -24.8230  -46.5402 N.am      14 UNK        -0.5000 
     80 CA         -1.3442  -25.8655  -47.4078 C.3       14 UNK         0.1400 
     81 CB          0.0972  -25.4879  -47.7849 C.3       14 UNK        -0.1800 
     82 C          -2.1957  -26.0514  -48.6754 C.2       14 UNK         0.5000 
     83 O          -2.3669  -27.1790  -49.1378 O.2       14 UNK        -0.5000 
     84 N          -2.7272  -24.9422  -49.2046 N.am      15 UNK        -0.5000 
     85 CA         -3.5177  -24.8544  -50.4327 C.3       15 UNK         0.1400 
     86 CB         -3.3896  -23.4241  -50.9847 C.3       15 UNK        -0.1800 
     87 C          -4.9971  -25.2606  -50.2693 C.2       15 UNK         0.5000 
     88 O          -5.7740  -25.0520  -51.2024 O.2       15 UNK        -0.5000 
     89 N          -5.3634  -25.8117  -49.1025 N.am      16 UNK        -0.5000 
     90 CA         -6.6803  -26.3427  -48.7347 C.3       16 UNK         0.1400 
     91 CB         -7.0247  -27.5806  -49.5896 C.3       16 UNK        -0.1800 
     92 C          -7.7746  -25.2598  -48.7703 C.2       16 UNK         0.5000 
     93 O          -8.7337  -25.3657  -49.5352 O.2       16 UNK        -0.5000 
     94 N          -7.5729  -24.2138  -47.9569 N.am      17 UNK        -0.5000 
     95 CA         -8.3908  -22.9994  -47.8548 C.3       17 UNK         0.1400 
     96 CB         -9.8325  -23.3179  -47.4046 C.3       17 UNK        -0.1800 
     97 C          -8.3213  -22.1416  -49.1352 C.2       17 UNK         0.5000 
     98 O          -9.3056  -21.5021  -49.5089 O.2       17 UNK        -0.5000 
     99 N          -7.1404  -22.1526  -49.7731 N.am      18 UNK        -0.5000 
    100 CA        -6.7988  -21.4733  -51.0271 C.3       18 UNK         0.1400 
    101 CB        -6.8451  -19.9402  -50.8590 C.3       18 UNK        -0.1800 
    102 C         -7.6153  -21.9899  -52.2305 C.2       18 UNK         0.5000 
    103 O         -8.0094  -21.2078  -53.0977 O.2       18 UNK        -0.5000 
    104 N         -7.8434  -23.3102  -52.2653 N.am      19 UNK        -0.5000 
    105 CA        -8.4058  -24.0221  -53.4108 C.3       19 UNK         0.1400 
    106 CB        -8.9209  -25.3968  -52.9593 C.3       19 UNK        -0.1800 
    107 C         -7.3616  -24.1677  -54.5316 C.2       19 UNK         0.5000 
    108 O         -7.6982  -23.9920  -55.7036 O.2       19 UNK        -0.5000 
    109 N         -6.1082  -24.4493  -54.1479 N.am      20 UNK        -0.5000 
    110 CA        -4.9465  -24.3839  -55.0327 C.3       20 UNK         0.1400 
    111 CB        -3.8224  -25.2633  -54.4646 C.3       20 UNK        -0.1800 
    112 C         -4.4806  -22.9243  -55.1970 C.2       20 UNK         0.5000 
    113 O         -4.6391  -22.1182  -54.2763 O.2       20 UNK        -0.5000 
    114 N         -3.9156  -22.6128  -56.3683 N.am      21 UNK        -0.5000 
    115 CA        -3.4237  -21.2814  -56.7228 C.3       21 UNK         0.1400 
    116 CB        -3.2454  -21.2150  -58.2483 C.3       21 UNK        -0.1800 
    117 C         -2.1025  -20.9257  -56.0137 C.2       21 UNK         0.5000 
    118 O         -1.3113  -21.8154  -55.6895 O.2       21 UNK        -0.5000 
    119 N         -1.8798  -19.6198  -55.8310 N.am      22 UNK        -0.5000 
    120 CA        -0.6262  -19.0261  -55.3396 C.3       22 UNK         0.1400 
    121 C          0.5509  -19.2022  -56.3403 C.2       22 UNK         0.5000 
    122 N          1.7771  -19.3151  -55.8479 N.am      22 UNK        -0.7600 
    123 O          0.3702  -19.1938  -57.5564 O.2       22 UNK        -0.5000 
    124 C124       -0.8243  -17.5268  -54.9990 C.3       23 UNK        -0.0398 
    125 S125       -1.9265  -17.3096  -53.5588 S.3       23 UNK        -0.2404 
    126 C126       -0.9788  -16.1660  -52.4949 C.3       23 UNK        -0.0205 
    127 H127        6.3071   -9.6909  -49.9938 H         1 UNK         0.0600 
    128 H128        5.4360   -8.7370  -48.7897 H         1 UNK         0.0600 
    129 H129        4.7705   -8.9303  -50.4152 H         1 UNK         0.0600 
    130 H130        6.1060  -11.8672  -49.6573 H         1 UNK         0.3000 
    131 H131        5.4221  -13.8835  -49.1188 H         1 UNK         0.0600 
    132 H132        2.5202  -12.9936  -49.4709 H         1 UNK         0.0800 
    133 H133        3.1119  -14.6279  -49.5078 H         1 UNK         0.0800 
    134 H134        4.8300  -15.5237  -51.4406 H         1 UNK         0.0800 
    135 H135        4.3241  -15.1635  -53.0727 H         1 UNK         0.0800 
    136 H136        1.3117  -14.7147  -52.5605 H         1 UNK         0.1150 
    137 H137       -0.1297  -18.6553  -51.7026 H         1 UNK         0.1150 
    138 H138        4.0406  -17.7672  -51.2951 H         1 UNK         0.1150 
    139 H139        1.6768  -20.4880  -51.6915 H         1 UNK         0.0800 
    140 H140        3.3115  -20.0517  -51.2867 H         1 UNK         0.0800 
    141 H141        0.3866  -21.8886  -49.4636 H         1 UNK         0.0800 
    142 H142       -0.2504  -20.4740  -50.2534 H         1 UNK         0.0800 
    143 H143        0.0304  -20.7800  -47.2248 H         1 UNK         0.0600 
    144 H144       -0.3277  -18.6316  -47.0762 H         1 UNK         0.3000 
    145 H145       -1.2614  -16.0657  -49.0077 H         1 UNK         0.0600 
    146 H146       -3.1860  -15.3772  -47.5619 H         1 UNK         0.0600 
    147 H147       -3.4541  -17.0577  -47.1033 H         1 UNK         0.0600 
    148 H148       -3.6877  -16.5481  -48.7714 H         1 UNK         0.0600 
    149 H149       -1.2831  -16.4739  -46.1104 H         1 UNK         0.3000 
    150 H150        2.2824  -16.1061  -45.7979 H         1 UNK         0.0600 
    151 H151        1.1524  -13.8706  -45.6459 H         1 UNK         0.0600 
    152 H152        1.4160  -14.5640  -44.0542 H         1 UNK         0.0600 
    153 H153       -0.1883  -14.5993  -44.7839 H         1 UNK         0.0600 
    154 H154        0.3876  -16.8379  -43.8529 H         1 UNK         0.3000 
    155 H155        0.6161  -20.3952  -44.2024 H         1 UNK         0.0600 
    156 H156        2.6202  -19.6989  -42.9142 H         1 UNK         0.0600 
    157 H157        1.3023  -20.1361  -41.8380 H         1 UNK         0.0600 
    158 H158        1.6980  -18.4416  -42.1032 H         1 UNK         0.0600 
    159 H159       -0.7383  -18.3223  -42.5842 H         1 UNK         0.3000 
    160 H160       -3.7757  -18.6240  -44.2818 H         1 UNK         0.0600 
    161 H161       -3.2645  -19.9566  -41.5687 H         1 UNK         0.0600 
    162 H162       -4.0837  -20.6873  -42.9458 H         1 UNK         0.0600 
    163 H163       -4.8147  -19.3213  -42.1226 H         1 UNK         0.0600 
    164 H164       -3.0874  -17.4571  -41.7522 H         1 UNK         0.3000 
    165 H165       -1.7269  -14.4342  -43.0506 H         1 UNK         0.0600 
    166 H166       -3.5581  -13.4601  -41.7086 H         1 UNK         0.0600 
    167 H167       -4.2037  -14.1382  -43.1939 H         1 UNK         0.0600 
    168 H168       -4.4048  -15.0072  -41.6771 H         1 UNK         0.0600 
    169 H169       -2.2609  -15.1711  -40.3928 H         1 UNK         0.3000 
    170 H170       -0.4138  -15.3918  -39.0236 H         1 UNK         0.0600 
    171 H171       -0.2034  -18.3830  -39.7354 H         1 UNK         0.0600 
    172 H172       -0.2336  -17.7250  -38.1007 H         1 UNK         0.0600 
    173 H173       -1.6489  -17.5805  -39.1296 H         1 UNK         0.0600 
    174 H174        1.8554  -16.4687  -40.5112 H         1 UNK         0.3000 
    175 H175        4.1259  -14.9356  -38.3848 H         1 UNK         0.0600 
    176 H176        3.9331  -17.9954  -38.3545 H         1 UNK         0.0600 
    177 H177        5.3843  -17.0461  -38.0277 H         1 UNK         0.0600 
    178 H178        4.0153  -16.9631  -36.9324 H         1 UNK         0.0600 
    179 H179        4.5802  -16.8725  -40.4356 H         1 UNK         0.3000 
    180 H180        5.7297  -15.6300  -42.3597 H         1 UNK         0.0600 
    181 H181        2.8415  -16.3312  -43.1275 H         1 UNK         0.0600 
    182 H182        4.0836  -17.4541  -42.5956 H         1 UNK         0.0600 
    183 H183        4.2203  -16.6884  -44.1659 H         1 UNK         0.0600 
    184 H184        3.9968  -13.4461  -42.9534 H         1 UNK         0.3000 
    185 H185        4.0823  -12.2266  -44.8718 H         1 UNK         0.0600 
    186 H186        7.1221  -11.8135  -44.8012 H         1 UNK         0.0600 
    187 H187        5.9084  -10.5473  -44.9923 H         1 UNK         0.0600 
    188 H188        6.0148  -11.4427  -43.4853 H         1 UNK         0.0600 
    189 H189        5.9739  -12.1098  -46.9804 H         1 UNK         0.3000 
    190 H190       -2.8763  -19.7314  -47.2644 H         1 UNK         0.3000 
    191 H191       -4.6142  -21.5930  -48.4119 H         1 UNK         0.0600 
    192 H192       -5.3031  -19.3767  -47.5277 H         1 UNK         0.0600 
    193 H193       -4.9877  -19.9167  -45.8785 H         1 UNK         0.0600 
    194 H194       -6.2779  -20.6519  -46.8182 H         1 UNK         0.0600 
    195 H195       -2.7854  -21.8433  -45.4044 H         1 UNK         0.3000 
    196 H196       -4.1371  -24.0778  -44.2468 H         1 UNK         0.0600 
    197 H197       -2.6011  -22.6235  -42.9610 H         1 UNK         0.0600 
    198 H198       -1.2420  -23.1006  -43.9753 H         1 UNK         0.0600 
    199 H199       -2.0141  -24.2772  -42.9174 H         1 UNK         0.0600 
    200 H200       -1.7385  -23.8663  -46.8342 H         1 UNK         0.3000 
    201 H201       -1.3147  -26.8208  -46.8795 H         1 UNK         0.0600 
    202 H202        0.7246  -25.3994  -46.8979 H         1 UNK         0.0600 
    203 H203        0.1407  -24.5390  -48.3211 H         1 UNK         0.0600 
    204 H204        0.5453  -26.2485  -48.4256 H         1 UNK         0.0600 
    205 H205       -2.4827  -24.0492  -48.7810 H         1 UNK         0.3000 
    206 H206       -3.0876  -25.5387  -51.1662 H         1 UNK         0.0600 
    207 H207       -2.3501  -23.1797  -51.2040 H         1 UNK         0.0600 
    208 H208       -3.7593  -22.6862  -50.2750 H         1 UNK         0.0600 
    209 H209       -3.9510  -23.2937  -51.9091 H         1 UNK         0.0600 
    210 H210       -4.6489  -25.8898  -48.3932 H         1 UNK         0.3000 
    211 H211       -6.6042  -26.6727  -47.6976 H         1 UNK         0.0600 
    212 H212       -7.1303  -27.3322  -50.6458 H         1 UNK         0.0600 
    213 H213       -7.9644  -28.0286  -49.2647 H         1 UNK         0.0600 
    214 H214       -6.2528  -28.3452  -49.5022 H         1 UNK         0.0600 
    215 H215       -6.7124  -24.1905  -47.4123 H         1 UNK         0.3000 
    216 H216       -7.9350  -22.3998  -47.0664 H         1 UNK         0.0600 
    217 H217      -10.3765  -22.4028  -47.1683 H         1 UNK         0.0600 
    218 H218       -9.8380  -23.9381  -46.5084 H         1 UNK         0.0600 
    219 H219      -10.3970  -23.8388  -48.1782 H         1 UNK         0.0600 
    220 H220       -6.4267  -22.7556  -49.3925 H         1 UNK         0.3000 
    221 H221       -5.7642  -21.7367  -51.2452 H         1 UNK         0.0600 
    222 H222       -7.8609  -19.5779  -50.7001 H         1 UNK         0.0600 
    223 H223       -6.2362  -19.6179  -50.0143 H         1 UNK         0.0600 
    224 H224       -6.4556  -19.4400  -51.7465 H         1 UNK         0.0600 
    225 H225       -7.4519  -23.8914  -51.5327 H         1 UNK         0.3000 
    226 H226       -9.2509  -23.4519  -53.8020 H         1 UNK         0.0600 
    227 H227       -9.6998  -25.2951  -52.2034 H         1 UNK         0.0600 
    228 H228       -9.3490  -25.9484  -53.7970 H         1 UNK         0.0600 
    229 H229       -8.1230  -26.0072  -52.5352 H         1 UNK         0.0600 
    230 H230       -5.9231  -24.5637  -53.1569 H         1 UNK         0.3000 
    231 H231       -5.2252  -24.7785  -56.0122 H         1 UNK         0.0600 
    232 H232       -2.9698  -25.2906  -55.1442 H         1 UNK         0.0600 
    233 H233       -4.1581  -26.2906  -54.3218 H         1 UNK         0.0600 
    234 H234       -3.4608  -24.8932  -53.5072 H         1 UNK         0.0600 
    235 H235       -3.7789  -23.3375  -57.0575 H         1 UNK         0.3000 
    236 H236       -4.1808  -20.5493  -56.4323 H         1 UNK         0.0600 
    237 H237       -2.5078  -21.9383  -58.5986 H         1 UNK         0.0600 
    238 H238       -4.1844  -21.4140  -58.7655 H         1 UNK         0.0600 
    239 H239       -2.9071  -20.2263  -58.5614 H         1 UNK         0.0600 
    240 H240       -2.5791  -18.9609  -56.1390 H         1 UNK         0.3000 
    241 H241       -0.3538  -19.5538  -54.4230 H         1 UNK         0.0600 
    242 H242        2.5518  -19.4144  -56.4856 H         1 UNK         0.3800 
    243 H243        1.9532  -19.3058  -54.8554 H         1 UNK         0.3800 
    244 H244       -1.2467  -16.9894  -55.8495 H         1 UNK         0.0800 
    245 H245        0.1345  -17.0485  -54.7941 H         1 UNK         0.0800 
    246 H246       -1.5263  -16.0289  -51.5619 H         1 UNK         0.0800 
    247 H247       -0.9532  -15.1904  -52.9828 H         1 UNK         0.0800 
@<TRIPOS>BOND
     1    1    2 1    
     2    1  127 1    
     3    1  128 1    
     4    1  129 1    
     5    2    3 2    
     6    2    4 am   BACKBONE|DICT|INTERRES
     7    4    5 1    
     8    4  130 1    
     9    5    6 1    
    10    5   65 1    
    11    5  131 1    
    12    6    7 1    
    13    6  132 1    
    14    6  133 1    
    15    7    8 1    
    16    8    9 1    
    17    8  134 1    
    18    8  135 1    
    19    9   10 ar   
    20    9   14 ar   
    21   10   11 ar   
    22   10  136 1    
    23   11   12 ar   
    24   11  126 1    
    25   12   13 ar   
    26   12  137 1    
    27   13   14 ar   
    28   13   15 1    
    29   14  138 1    
    30   15   16 1    
    31   15  139 1    
    32   15  140 1    
    33   16   17 1    
    34   17   18 1    
    35   17  141 1    
    36   17  142 1    
    37   18   19 1    
    38   18   67 1    
    39   18  143 1    
    40   19   20 am   BACKBONE|DICT|INTERRES
    41   19  144 1    
    42   20   21 2    
    43   20   22 1    
    44   22   23 1    
    45   22   24 1    
    46   22  145 1    
    47   23  146 1    
    48   23  147 1    
    49   23  148 1    
    50   24   25 am   BACKBONE|DICT|INTERRES
    51   24  149 1    
    52   25   26 2    
    53   25   27 1    
    54   27   28 1    
    55   27   29 1    
    56   27  150 1    
    57   28  151 1    
    58   28  152 1    
    59   28  153 1    
    60   29   30 am   BACKBONE|DICT|INTERRES
    61   29  154 1    
    62   30   31 2    
    63   30   32 1    
    64   32   33 1    
    65   32   34 1    
    66   32  155 1    
    67   33  156 1    
    68   33  157 1    
    69   33  158 1    
    70   34   35 am   BACKBONE|DICT|INTERRES
    71   34  159 1    
    72   35   36 2    
    73   35   37 1    
    74   37   38 1    
    75   37   39 1    
    76   37  160 1    
    77   38  161 1    
    78   38  162 1    
    79   38  163 1    
    80   39   40 am   BACKBONE|DICT|INTERRES
    81   39  164 1    
    82   40   41 2    
    83   40   42 1    
    84   42   43 1    
    85   42   44 1    
    86   42  165 1    
    87   43  166 1    
    88   43  167 1    
    89   43  168 1    
    90   44   45 am   BACKBONE|DICT|INTERRES
    91   44  169 1    
    92   45   46 2    
    93   45   47 1    
    94   47   48 1    
    95   47   49 1    
    96   47  170 1    
    97   48  171 1    
    98   48  172 1    
    99   48  173 1    
   100   49   50 am   BACKBONE|DICT|INTERRES
   101   49  174 1    
   102   50   51 2    
   103   50   52 1    
   104   52   53 1    
   105   52   54 1    
   106   52  175 1    
   107   53  176 1    
   108   53  177 1    
   109   53  178 1    
   110   54   55 am   BACKBONE|DICT|INTERRES
   111   54  179 1    
   112   55   56 2    
   113   55   57 1    
   114   57   58 1    
   115   57   59 1    
   116   57  180 1    
   117   58  181 1    
   118   58  182 1    
   119   58  183 1    
   120   59   60 am   BACKBONE|DICT|INTERRES
   121   59  184 1    
   122   60   61 2    
   123   60   62 1    
   124   62   63 1    
   125   62   64 1    
   126   62  185 1    
   127   63  186 1    
   128   63  187 1    
   129   63  188 1    
   130   64   65 am   BACKBONE|DICT|INTERRES
   131   64  189 1    
   132   65   66 2    
   133   67   68 2    
   134   67   69 am   BACKBONE|DICT|INTERRES
   135   69   70 1    
   136   69  190 1    
   137   70   71 1    
   138   70   72 1    
   139   70  191 1    
   140   71  192 1    
   141   71  193 1    
   142   71  194 1    
   143   72   73 2    
   144   72   74 am   BACKBONE|DICT|INTERRES
   145   74   75 1    
   146   74  195 1    
   147   75   76 1    
   148   75   77 1    
   149   75  196 1    
   150   76  197 1    
   151   76  198 1    
   152   76  199 1    
   153   77   78 2    
   154   77   79 am   BACKBONE|DICT|INTERRES
   155   79   80 1    
   156   79  200 1    
   157   80   81 1    
   158   80   82 1    
   159   80  201 1    
   160   81  202 1    
   161   81  203 1    
   162   81  204 1    
   163   82   83 2    
   164   82   84 am   BACKBONE|DICT|INTERRES
   165   84   85 1    
   166   84  205 1    
   167   85   86 1    
   168   85   87 1    
   169   85  206 1    
   170   86  207 1    
   171   86  208 1    
   172   86  209 1    
   173   87   88 2    
   174   87   89 am   BACKBONE|DICT|INTERRES
   175   89   90 1    
   176   89  210 1    
   177   90   91 1    
   178   90   92 1    
   179   90  211 1    
   180   91  212 1    
   181   91  213 1    
   182   91  214 1    
   183   92   93 2    
   184   92   94 am   BACKBONE|DICT|INTERRES
   185   94   95 1    
   186   94  215 1    
   187   95   96 1    
   188   95   97 1    
   189   95  216 1    
   190   96  217 1    
   191   96  218 1    
   192   96  219 1    
   193   97   98 2    
   194   97   99 am   BACKBONE|DICT|INTERRES
   195   99  100 1    
   196   99  220 1    
   197  100  101 1    
   198  100  102 1    
   199  100  221 1    
   200  101  222 1    
   201  101  223 1    
   202  101  224 1    
   203  102  103 2    
   204  102  104 am   BACKBONE|DICT|INTERRES
   205  104  105 1    
   206  104  225 1    
   207  105  106 1    
   208  105  107 1    
   209  105  226 1    
   210  106  227 1    
   211  106  228 1    
   212  106  229 1    
   213  107  108 2    
   214  107  109 am   BACKBONE|DICT|INTERRES
   215  109  110 1    
   216  109  230 1    
   217  110  111 1    
   218  110  112 1    
   219  110  231 1    
   220  111  232 1    
   221  111  233 1    
   222  111  234 1    
   223  112  113 2    
   224  112  114 am   BACKBONE|DICT|INTERRES
   225  114  115 1    
   226  114  235 1    
   227  115  116 1    
   228  115  117 1    
   229  115  236 1    
   230  116  237 1    
   231  116  238 1    
   232  116  239 1    
   233  117  118 2    
   234  117  119 am   BACKBONE|DICT|INTERRES
   235  119  120 1    
   236  119  240 1    
   237  120  121 1    
   238  120  124 1    
   239  120  241 1    
   240  121  122 am   BACKBONE|DICT|INTERRES
   241  121  123 2    
   242  122  242 1    
   243  122  243 1    
   244  124  125 1    
   245  124  244 1    
   246  124  245 1    
   247  125  126 1    
   248  126  246 1    
   249  126  247 1    
@<TRIPOS>SUBSTRUCTURE
     1 UNK         1 GROUP             0       ****    0 ROOT    
