@<TRIPOS>MOLECULE
3R540
247   249    1
SMALL
USER_CHARGES


@<TRIPOS>ATOM
      1 CA          6.5772  -19.0836  -45.8467 C.3       0 UNK        -0.1800 
      2 C           5.2342  -18.4047  -46.0723 C.2       0 UNK         0.5000 
      3 O           4.1996  -18.9548  -45.6960 O.2       0 UNK        -0.5000 
      4 N           5.2462  -17.2173  -46.6927 N.am      1 UNK        -0.5000 
      5 CA          4.0428  -16.4382  -47.0139 C.3       1 UNK         0.1400 
      6 C6          4.2938  -15.3526  -48.0926 C.3       23 UNK        -0.0398 
      7 S7          5.2476  -15.9207  -49.5455 S.3       23 UNK        -0.2404 
      8 C8          3.9451  -16.3955  -50.7375 C.3       23 UNK        -0.0205 
      9 C9          3.4975  -17.8600  -50.7087 C.ar      23 UNK        -0.0193 
     10 C10         2.4516  -18.2416  -51.5557 C.ar      23 UNK        -0.1150 
     11 C11         2.0073  -19.5654  -51.5958 C.ar      23 UNK        -0.0193 
     12 C12         2.6243  -20.5202  -50.7866 C.ar      23 UNK        -0.1150 
     13 C13         3.6668  -20.1643  -49.9243 C.ar      23 UNK        -0.0193 
     14 C14         4.0992  -18.8345  -49.8983 C.ar      23 UNK        -0.1150 
     15 C15         4.3680  -21.1918  -49.0336 C.3       23 UNK        -0.0205 
     16 S16         3.3419  -22.6160  -48.5250 S.3       23 UNK        -0.2404 
     17 C17         2.0599  -21.7777  -47.5389 C.3       23 UNK        -0.0398 
     18 CA          0.9615  -22.7414  -47.0293 C.3       11 UNK         0.1400 
     19 N           0.2331  -22.1498  -45.9081 N.am      11 UNK        -0.5000 
     20 C          -0.3744  -22.8332  -44.9314 C.2       10 UNK         0.5000 
     21 O          -0.3369  -24.0592  -44.8277 O.2       10 UNK        -0.5000 
     22 CA         -1.1656  -22.0055  -43.8979 C.3       10 UNK         0.1400 
     23 CB         -0.2790  -21.6669  -42.6899 C.3       10 UNK        -0.1800 
     24 N          -1.7202  -20.7635  -44.4446 N.am      10 UNK        -0.5000 
     25 C          -2.7004  -20.7125  -45.3573 C.2       9 UNK         0.5000 
     26 O          -3.2360  -21.7129  -45.8358 O.2       9 UNK        -0.5000 
     27 CA         -3.1083  -19.3090  -45.8548 C.3       9 UNK         0.1400 
     28 CB         -4.0592  -18.6475  -44.8481 C.3       9 UNK        -0.1800 
     29 N          -1.9945  -18.3889  -46.1405 N.am      9 UNK        -0.5000 
     30 C          -0.9202  -18.6710  -46.8956 C.2       8 UNK         0.5000 
     31 O          -0.6952  -19.7903  -47.3443 O.2       8 UNK        -0.5000 
     32 CA          0.1061  -17.5609  -47.1846 C.3       8 UNK         0.1400 
     33 CB          0.7380  -17.7147  -48.5793 C.3       8 UNK        -0.1800 
     34 N          -0.3929  -16.2010  -46.9962 N.am      8 UNK        -0.5000 
     35 C          -1.3588  -15.5710  -47.6795 C.2       7 UNK         0.5000 
     36 O          -1.9738  -16.0701  -48.6252 O.2       7 UNK        -0.5000 
     37 CA         -1.6843  -14.1389  -47.1996 C.3       7 UNK         0.1400 
     38 CB         -3.0943  -13.6721  -47.6084 C.3       7 UNK        -0.1800 
     39 N          -1.4812  -13.9541  -45.7569 N.am      7 UNK        -0.5000 
     40 C          -2.0668  -14.6382  -44.7605 C.2       6 UNK         0.5000 
     41 O          -2.8756  -15.5492  -44.9336 O.2       6 UNK        -0.5000 
     42 CA         -1.6484  -14.2708  -43.3292 C.3       6 UNK         0.1400 
     43 CB         -0.3914  -15.0586  -42.9408 C.3       6 UNK        -0.1800 
     44 N          -1.3787  -12.8392  -43.2020 N.am      6 UNK        -0.5000 
     45 C          -2.2842  -11.9341  -42.8049 C.2       5 UNK         0.5000 
     46 O          -3.4211  -12.2204  -42.4276 O.2       5 UNK        -0.5000 
     47 CA         -1.8558  -10.4538  -42.8484 C.3       5 UNK         0.1400 
     48 CB         -1.1449  -10.0585  -41.5450 C.3       5 UNK        -0.1800 
     49 N          -0.9814  -10.1509  -43.9809 N.am      5 UNK        -0.5000 
     50 C          -1.3500  -10.1974  -45.2690 C.2       4 UNK         0.5000 
     51 O          -2.5062  -10.3975  -45.6411 O.2       4 UNK        -0.5000 
     52 CA         -0.2402  -10.0094  -46.3240 C.3       4 UNK         0.1400 
     53 CB         -0.3037   -8.5966  -46.9243 C.3       4 UNK        -0.1800 
     54 N           1.1195  -10.2525  -45.8265 N.am      4 UNK        -0.5000 
     55 C           1.5806  -11.4225  -45.3638 C.2       3 UNK         0.5000 
     56 O           0.8795  -12.4338  -45.2823 O.2       3 UNK        -0.5000 
     57 CA          3.0610  -11.4334  -44.9262 C.3       3 UNK         0.1400 
     58 CB          3.3299  -10.4160  -43.7959 C.3       3 UNK        -0.1800 
     59 N           3.5635  -12.7644  -44.5643 N.am      3 UNK        -0.5000 
     60 C           3.2159  -13.5339  -43.5206 C.2       2 UNK         0.5000 
     61 O           2.4267  -13.1875  -42.6398 O.2       2 UNK        -0.5000 
     62 CA          3.9064  -14.9171  -43.4431 C.3       2 UNK         0.1400 
     63 CB          3.1371  -15.9472  -42.5895 C.3       2 UNK        -0.1800 
     64 N           4.2534  -15.4953  -44.7495 N.am      2 UNK        -0.5000 
     65 C           3.4149  -15.7942  -45.7564 C.2       1 UNK         0.5000 
     66 O           2.2051  -15.5731  -45.7291 O.2       1 UNK        -0.5000 
     67 C          -0.0243  -23.1434  -48.1463 C.2       11 UNK         0.5000 
     68 O           0.0809  -24.2430  -48.6910 O.2       11 UNK        -0.5000 
     69 N          -1.0005  -22.2665  -48.4261 N.am      12 UNK        -0.5000 
     70 CA         -2.0427  -22.3817  -49.4482 C.3       12 UNK         0.1400 
     71 CB         -2.9683  -21.1576  -49.3744 C.3       12 UNK        -0.1800 
     72 C          -2.8957  -23.6518  -49.3475 C.2       12 UNK         0.5000 
     73 O          -3.4370  -24.0882  -50.3614 O.2       12 UNK        -0.5000 
     74 N          -3.0079  -24.2220  -48.1426 N.am      13 UNK        -0.5000 
     75 CA         -3.6782  -25.4934  -47.8721 C.3       13 UNK         0.1400 
     76 CB         -3.7725  -25.6869  -46.3515 C.3       13 UNK        -0.1800 
     77 C          -2.9917  -26.7054  -48.5327 C.2       13 UNK         0.5000 
     78 O          -3.6695  -27.6946  -48.8104 O.2       13 UNK        -0.5000 
     79 N          -1.6793  -26.6050  -48.7816 N.am      14 UNK        -0.5000 
     80 CA         -0.8714  -27.6354  -49.4308 C.3       14 UNK         0.1400 
     81 CB          0.3313  -27.9666  -48.5327 C.3       14 UNK        -0.1800 
     82 C          -0.3935  -27.1799  -50.8185 C.2       14 UNK         0.5000 
     83 O          -0.4294  -27.9735  -51.7589 O.2       14 UNK        -0.5000 
     84 N           0.0561  -25.9214  -50.9231 N.am      15 UNK        -0.5000 
     85 CA          0.6703  -25.3558  -52.1244 C.3       15 UNK         0.1400 
     86 CB          1.3846  -24.0463  -51.7566 C.3       15 UNK        -0.1800 
     87 C          -0.3307  -25.1169  -53.2660 C.2       15 UNK         0.5000 
     88 O          -0.0197  -25.4230  -54.4177 O.2       15 UNK        -0.5000 
     89 N          -1.5027  -24.5686  -52.9245 N.am      16 UNK        -0.5000 
     90 CA         -2.5596  -24.2176  -53.8756 C.3       16 UNK         0.1400 
     91 CB         -2.9631  -22.7529  -53.6302 C.3       16 UNK        -0.1800 
     92 C          -3.7874  -25.1372  -53.7524 C.2       16 UNK         0.5000 
     93 O          -4.6142  -25.1552  -54.6645 O.2       16 UNK        -0.5000 
     94 N          -3.9054  -25.8432  -52.6161 N.am      17 UNK        -0.5000 
     95 CA         -5.0828  -26.5812  -52.1395 C.3       17 UNK         0.1400 
     96 CB         -5.3899  -27.7893  -53.0478 C.3       17 UNK        -0.1800 
     97 C          -6.3069  -25.6624  -51.9128 C.2       17 UNK         0.5000 
     98 O          -7.4485  -26.1141  -52.0167 O.2       17 UNK        -0.5000 
     99 N          -6.0391  -24.3823  -51.6223 N.am      18 UNK        -0.5000 
    100 CA        -7.0332  -23.3204  -51.4863 C.3       18 UNK         0.1400 
    101 CB        -6.4863  -22.0418  -52.1412 C.3       18 UNK        -0.1800 
    102 C         -7.3862  -23.0494  -50.0175 C.2       18 UNK         0.5000 
    103 O         -8.5390  -22.7324  -49.7266 O.2       18 UNK        -0.5000 
    104 N         -6.3859  -23.1493  -49.1280 N.am      19 UNK        -0.5000 
    105 CA        -6.4160  -22.9574  -47.6670 C.3       19 UNK         0.1400 
    106 CB        -7.2999  -24.0270  -46.9990 C.3       19 UNK        -0.1800 
    107 C         -6.7866  -21.5451  -47.1611 C.2       19 UNK         0.5000 
    108 O         -6.3705  -21.1798  -46.0627 O.2       19 UNK        -0.5000 
    109 N         -7.5555  -20.7755  -47.9388 N.am      20 UNK        -0.5000 
    110 CA        -7.9865  -19.4183  -47.6098 C.3       20 UNK         0.1400 
    111 CB        -9.1267  -19.0063  -48.5543 C.3       20 UNK        -0.1800 
    112 C         -6.8334  -18.4017  -47.6679 C.2       20 UNK         0.5000 
    113 O         -6.6984  -17.5921  -46.7514 O.2       20 UNK        -0.5000 
    114 N         -6.0366  -18.4727  -48.7415 N.am      21 UNK        -0.5000 
    115 CA        -4.9191  -17.5952  -49.0866 C.3       21 UNK         0.1400 
    116 CB        -5.3741  -16.1209  -49.1576 C.3       21 UNK        -0.1800 
    117 C         -4.3863  -18.0217  -50.4635 C.2       21 UNK         0.5000 
    118 O         -5.1103  -18.6824  -51.2143 O.2       21 UNK        -0.5000 
    119 N         -3.1594  -17.5981  -50.7874 N.am      22 UNK        -0.5000 
    120 CA        -2.6055  -17.6502  -52.1551 C.3       22 UNK         0.1400 
    121 C         -2.9107  -16.3690  -52.9881 C.2       22 UNK         0.5000 
    122 N         -3.4692  -15.3094  -52.4146 N.am      22 UNK        -0.7600 
    123 O         -2.6494  -16.3395  -54.1876 O.2       22 UNK        -0.5000 
    124 C124       -1.0875  -17.9661  -52.1654 C.3       23 UNK        -0.0398 
    125 S125       -0.7503  -19.7045  -51.7286 S.3       23 UNK        -0.2404 
    126 C126        0.8677  -19.9758  -52.5148 C.3       23 UNK        -0.0205 
    127 H127        6.7520  -19.2229  -44.7800 H         1 UNK         0.0600 
    128 H128        7.4015  -18.4974  -46.2537 H         1 UNK         0.0600 
    129 H129        6.5875  -20.0626  -46.3258 H         1 UNK         0.0600 
    130 H130        6.1222  -16.8253  -47.0089 H         1 UNK         0.3000 
    131 H131        3.3073  -17.1356  -47.4178 H         1 UNK         0.0600 
    132 H132        4.8551  -14.5201  -47.6643 H         1 UNK         0.0800 
    133 H133        3.3457  -14.9275  -48.4265 H         1 UNK         0.0800 
    134 H134        3.0771  -15.7477  -50.6079 H         1 UNK         0.0800 
    135 H135        4.3284  -16.1876  -51.7374 H         1 UNK         0.0800 
    136 H136        1.9791  -17.5037  -52.1885 H         1 UNK         0.1150 
    137 H137        2.2836  -21.5430  -50.8298 H         1 UNK         0.1150 
    138 H138        4.9164  -18.5728  -49.2438 H         1 UNK         0.1150 
    139 H139        5.2404  -21.5687  -49.5684 H         1 UNK         0.0800 
    140 H140        4.7439  -20.7066  -48.1320 H         1 UNK         0.0800 
    141 H141        2.5657  -21.3100  -46.6924 H         1 UNK         0.0800 
    142 H142        1.6263  -20.9600  -48.1158 H         1 UNK         0.0800 
    143 H143        1.4487  -23.6523  -46.6743 H         1 UNK         0.0600 
    144 H144        0.0713  -21.1524  -45.9667 H         1 UNK         0.3000 
    145 H145       -1.9967  -22.6227  -43.5498 H         1 UNK         0.0600 
    146 H146       -0.8469  -21.1510  -41.9155 H         1 UNK         0.0600 
    147 H147        0.1316  -22.5724  -42.2409 H         1 UNK         0.0600 
    148 H148        0.5608  -21.0307  -42.9722 H         1 UNK         0.0600 
    149 H149       -1.3236  -19.8973  -44.1114 H         1 UNK         0.3000 
    150 H150       -3.6557  -19.4499  -46.7875 H         1 UNK         0.0600 
    151 H151       -4.9067  -19.2960  -44.6224 H         1 UNK         0.0600 
    152 H152       -4.4644  -17.7172  -45.2453 H         1 UNK         0.0600 
    153 H153       -3.5570  -18.4180  -43.9078 H         1 UNK         0.0600 
    154 H154       -2.1121  -17.4379  -45.8105 H         1 UNK         0.3000 
    155 H155        0.8973  -17.7001  -46.4484 H         1 UNK         0.0600 
    156 H156       -0.0243  -17.8028  -49.3507 H         1 UNK         0.0600 
    157 H157        1.3739  -16.8666  -48.8298 H         1 UNK         0.0600 
    158 H158        1.3530  -18.6126  -48.6316 H         1 UNK         0.0600 
    159 H159        0.0888  -15.6787  -46.2731 H         1 UNK         0.3000 
    160 H160       -0.9637  -13.4850  -47.6924 H         1 UNK         0.0600 
    161 H161       -3.8677  -14.3211  -47.1973 H         1 UNK         0.0600 
    162 H162       -3.2057  -13.6667  -48.6928 H         1 UNK         0.0600 
    163 H163       -3.2890  -12.6580  -47.2596 H         1 UNK         0.0600 
    164 H164       -0.7457  -13.2961  -45.5091 H         1 UNK         0.3000 
    165 H165       -2.4538  -14.5643  -42.6526 H         1 UNK         0.0600 
    166 H166        0.4325  -14.8396  -43.6202 H         1 UNK         0.0600 
    167 H167       -0.0658  -14.8161  -41.9292 H         1 UNK         0.0600 
    168 H168       -0.5731  -16.1333  -42.9796 H         1 UNK         0.0600 
    169 H169       -0.4724  -12.5224  -43.5235 H         1 UNK         0.3000 
    170 H170       -2.7588   -9.8472  -42.9446 H         1 UNK         0.0600 
    171 H171       -1.7795  -10.2546  -40.6798 H         1 UNK         0.0600 
    172 H172       -0.2182  -10.6172  -41.4060 H         1 UNK         0.0600 
    173 H173       -0.9019   -8.9959  -41.5344 H         1 UNK         0.0600 
    174 H174       -0.0124   -9.9650  -43.7702 H         1 UNK         0.3000 
    175 H175       -0.4336  -10.7288  -47.1225 H         1 UNK         0.0600 
    176 H176       -0.0925   -7.8320  -46.1756 H         1 UNK         0.0600 
    177 H177        0.4133   -8.4797  -47.7371 H         1 UNK         0.0600 
    178 H178       -1.2930   -8.3894  -47.3348 H         1 UNK         0.0600 
    179 H179        1.7500   -9.4645  -45.8657 H         1 UNK         0.3000 
    180 H180        3.6430  -11.1271  -45.7966 H         1 UNK         0.0600 
    181 H181        4.3647  -10.4684  -43.4573 H         1 UNK         0.0600 
    182 H182        2.6871  -10.5851  -42.9316 H         1 UNK         0.0600 
    183 H183        3.1570   -9.3933  -44.1319 H         1 UNK         0.0600 
    184 H184        4.2072  -13.1706  -45.2266 H         1 UNK         0.3000 
    185 H185        4.8544  -14.7307  -42.9367 H         1 UNK         0.0600 
    186 H186        2.8959  -15.5501  -41.6029 H         1 UNK         0.0600 
    187 H187        2.2040  -16.2515  -43.0610 H         1 UNK         0.0600 
    188 H188        3.7337  -16.8463  -42.4362 H         1 UNK         0.0600 
    189 H189        5.2298  -15.7201  -44.8790 H         1 UNK         0.3000 
    190 H190       -0.9725  -21.3691  -47.9419 H         1 UNK         0.3000 
    191 H191       -1.5455  -22.3879  -50.4193 H         1 UNK         0.0600 
    192 H192       -2.4041  -20.2260  -49.3788 H         1 UNK         0.0600 
    193 H193       -3.6427  -21.1285  -50.2306 H         1 UNK         0.0600 
    194 H194       -3.5827  -21.1675  -48.4744 H         1 UNK         0.0600 
    195 H195       -2.5624  -23.7641  -47.3588 H         1 UNK         0.3000 
    196 H196       -4.6902  -25.4372  -48.2766 H         1 UNK         0.0600 
    197 H197       -4.2978  -26.6108  -46.1061 H         1 UNK         0.0600 
    198 H198       -4.3177  -24.8688  -45.8805 H         1 UNK         0.0600 
    199 H199       -2.7842  -25.7370  -45.8920 H         1 UNK         0.0600 
    200 H200       -1.2006  -25.7423  -48.5443 H         1 UNK         0.3000 
    201 H201       -1.4494  -28.5517  -49.5674 H         1 UNK         0.0600 
    202 H202        0.0043  -28.3541  -47.5677 H         1 UNK         0.0600 
    203 H203        0.9517  -27.0887  -48.3467 H         1 UNK         0.0600 
    204 H204        0.9647  -28.7272  -48.9911 H         1 UNK         0.0600 
    205 H205        0.0793  -25.3348  -50.0911 H         1 UNK         0.3000 
    206 H206        1.4231  -26.0609  -52.4834 H         1 UNK         0.0600 
    207 H207        2.1499  -24.2152  -50.9989 H         1 UNK         0.0600 
    208 H208        1.8786  -23.6105  -52.6259 H         1 UNK         0.0600 
    209 H209        0.6880  -23.3033  -51.3668 H         1 UNK         0.0600 
    210 H210       -1.6779  -24.3580  -51.9529 H         1 UNK         0.3000 
    211 H211       -2.1997  -24.2985  -54.9032 H         1 UNK         0.0600 
    212 H212       -3.3424  -22.5980  -52.6201 H         1 UNK         0.0600 
    213 H213       -3.7436  -22.4388  -54.3243 H         1 UNK         0.0600 
    214 H214       -2.1151  -22.0824  -53.7716 H         1 UNK         0.0600 
    215 H215       -3.1814  -25.7157  -51.9240 H         1 UNK         0.3000 
    216 H216       -4.8174  -26.9709  -51.1569 H         1 UNK         0.0600 
    217 H217       -4.5040  -28.4078  -53.1924 H         1 UNK         0.0600 
    218 H218       -5.7485  -27.4802  -54.0298 H         1 UNK         0.0600 
    219 H219       -6.1586  -28.4240  -52.6057 H         1 UNK         0.0600 
    220 H220       -5.0660  -24.1269  -51.4959 H         1 UNK         0.3000 
    221 H221       -7.9515  -23.6002  -52.0070 H         1 UNK         0.0600 
    222 H222       -5.5675  -21.6999  -51.6638 H         1 UNK         0.0600 
    223 H223       -6.2723  -22.2029  -53.1980 H         1 UNK         0.0600 
    224 H224       -7.2096  -21.2278  -52.0771 H         1 UNK         0.0600 
    225 H225       -5.4824  -23.4056  -49.4999 H         1 UNK         0.3000 
    226 H226       -5.3939  -23.1213  -47.3270 H         1 UNK         0.0600 
    227 H227       -6.9859  -25.0322  -47.2798 H         1 UNK         0.0600 
    228 H228       -7.2376  -23.9603  -45.9121 H         1 UNK         0.0600 
    229 H229       -8.3494  -23.9146  -47.2725 H         1 UNK         0.0600 
    230 H230       -7.9358  -21.1969  -48.7800 H         1 UNK         0.3000 
    231 H231       -8.3776  -19.4225  -46.5900 H         1 UNK         0.0600 
    232 H232       -9.4766  -17.9984  -48.3272 H         1 UNK         0.0600 
    233 H233       -9.9807  -19.6766  -48.4555 H         1 UNK         0.0600 
    234 H234       -8.8116  -19.0178  -49.5985 H         1 UNK         0.0600 
    235 H235       -6.2334  -19.1630  -49.4557 H         1 UNK         0.3000 
    236 H236       -4.1292  -17.7102  -48.3432 H         1 UNK         0.0600 
    237 H237       -4.5770  -15.4790  -49.5304 H         1 UNK         0.0600 
    238 H238       -6.2304  -15.9972  -49.8216 H         1 UNK         0.0600 
    239 H239       -5.6498  -15.7325  -48.1783 H         1 UNK         0.0600 
    240 H240       -2.6276  -17.0658  -50.1015 H         1 UNK         0.3000 
    241 H241       -3.0990  -18.4563  -52.7018 H         1 UNK         0.0600 
    242 H242       -3.6860  -15.3109  -51.4324 H         1 UNK         0.3800 
    243 H243       -3.6659  -14.4928  -52.9718 H         1 UNK         0.3800 
    244 H244       -0.5479  -17.3007  -51.4918 H         1 UNK         0.0800 
    245 H245       -0.6688  -17.7926  -53.1580 H         1 UNK         0.0800 
    246 H246        0.9555  -21.0343  -52.7633 H         1 UNK         0.0800 
    247 H247        0.9311  -19.4417  -53.4636 H         1 UNK         0.0800 
@<TRIPOS>BOND
     1    1    2 1    
     2    1  127 1    
     3    1  128 1    
     4    1  129 1    
     5    2    3 2    
     6    2    4 am   BACKBONE|DICT|INTERRES
     7    4    5 1    
     8    4  130 1    
     9    5    6 1    
    10    5   65 1    
    11    5  131 1    
    12    6    7 1    
    13    6  132 1    
    14    6  133 1    
    15    7    8 1    
    16    8    9 1    
    17    8  134 1    
    18    8  135 1    
    19    9   10 ar   
    20    9   14 ar   
    21   10   11 ar   
    22   10  136 1    
    23   11   12 ar   
    24   11  126 1    
    25   12   13 ar   
    26   12  137 1    
    27   13   14 ar   
    28   13   15 1    
    29   14  138 1    
    30   15   16 1    
    31   15  139 1    
    32   15  140 1    
    33   16   17 1    
    34   17   18 1    
    35   17  141 1    
    36   17  142 1    
    37   18   19 1    
    38   18   67 1    
    39   18  143 1    
    40   19   20 am   BACKBONE|DICT|INTERRES
    41   19  144 1    
    42   20   21 2    
    43   20   22 1    
    44   22   23 1    
    45   22   24 1    
    46   22  145 1    
    47   23  146 1    
    48   23  147 1    
    49   23  148 1    
    50   24   25 am   BACKBONE|DICT|INTERRES
    51   24  149 1    
    52   25   26 2    
    53   25   27 1    
    54   27   28 1    
    55   27   29 1    
    56   27  150 1    
    57   28  151 1    
    58   28  152 1    
    59   28  153 1    
    60   29   30 am   BACKBONE|DICT|INTERRES
    61   29  154 1    
    62   30   31 2    
    63   30   32 1    
    64   32   33 1    
    65   32   34 1    
    66   32  155 1    
    67   33  156 1    
    68   33  157 1    
    69   33  158 1    
    70   34   35 am   BACKBONE|DICT|INTERRES
    71   34  159 1    
    72   35   36 2    
    73   35   37 1    
    74   37   38 1    
    75   37   39 1    
    76   37  160 1    
    77   38  161 1    
    78   38  162 1    
    79   38  163 1    
    80   39   40 am   BACKBONE|DICT|INTERRES
    81   39  164 1    
    82   40   41 2    
    83   40   42 1    
    84   42   43 1    
    85   42   44 1    
    86   42  165 1    
    87   43  166 1    
    88   43  167 1    
    89   43  168 1    
    90   44   45 am   BACKBONE|DICT|INTERRES
    91   44  169 1    
    92   45   46 2    
    93   45   47 1    
    94   47   48 1    
    95   47   49 1    
    96   47  170 1    
    97   48  171 1    
    98   48  172 1    
    99   48  173 1    
   100   49   50 am   BACKBONE|DICT|INTERRES
   101   49  174 1    
   102   50   51 2    
   103   50   52 1    
   104   52   53 1    
   105   52   54 1    
   106   52  175 1    
   107   53  176 1    
   108   53  177 1    
   109   53  178 1    
   110   54   55 am   BACKBONE|DICT|INTERRES
   111   54  179 1    
   112   55   56 2    
   113   55   57 1    
   114   57   58 1    
   115   57   59 1    
   116   57  180 1    
   117   58  181 1    
   118   58  182 1    
   119   58  183 1    
   120   59   60 am   BACKBONE|DICT|INTERRES
   121   59  184 1    
   122   60   61 2    
   123   60   62 1    
   124   62   63 1    
   125   62   64 1    
   126   62  185 1    
   127   63  186 1    
   128   63  187 1    
   129   63  188 1    
   130   64   65 am   BACKBONE|DICT|INTERRES
   131   64  189 1    
   132   65   66 2    
   133   67   68 2    
   134   67   69 am   BACKBONE|DICT|INTERRES
   135   69   70 1    
   136   69  190 1    
   137   70   71 1    
   138   70   72 1    
   139   70  191 1    
   140   71  192 1    
   141   71  193 1    
   142   71  194 1    
   143   72   73 2    
   144   72   74 am   BACKBONE|DICT|INTERRES
   145   74   75 1    
   146   74  195 1    
   147   75   76 1    
   148   75   77 1    
   149   75  196 1    
   150   76  197 1    
   151   76  198 1    
   152   76  199 1    
   153   77   78 2    
   154   77   79 am   BACKBONE|DICT|INTERRES
   155   79   80 1    
   156   79  200 1    
   157   80   81 1    
   158   80   82 1    
   159   80  201 1    
   160   81  202 1    
   161   81  203 1    
   162   81  204 1    
   163   82   83 2    
   164   82   84 am   BACKBONE|DICT|INTERRES
   165   84   85 1    
   166   84  205 1    
   167   85   86 1    
   168   85   87 1    
   169   85  206 1    
   170   86  207 1    
   171   86  208 1    
   172   86  209 1    
   173   87   88 2    
   174   87   89 am   BACKBONE|DICT|INTERRES
   175   89   90 1    
   176   89  210 1    
   177   90   91 1    
   178   90   92 1    
   179   90  211 1    
   180   91  212 1    
   181   91  213 1    
   182   91  214 1    
   183   92   93 2    
   184   92   94 am   BACKBONE|DICT|INTERRES
   185   94   95 1    
   186   94  215 1    
   187   95   96 1    
   188   95   97 1    
   189   95  216 1    
   190   96  217 1    
   191   96  218 1    
   192   96  219 1    
   193   97   98 2    
   194   97   99 am   BACKBONE|DICT|INTERRES
   195   99  100 1    
   196   99  220 1    
   197  100  101 1    
   198  100  102 1    
   199  100  221 1    
   200  101  222 1    
   201  101  223 1    
   202  101  224 1    
   203  102  103 2    
   204  102  104 am   BACKBONE|DICT|INTERRES
   205  104  105 1    
   206  104  225 1    
   207  105  106 1    
   208  105  107 1    
   209  105  226 1    
   210  106  227 1    
   211  106  228 1    
   212  106  229 1    
   213  107  108 2    
   214  107  109 am   BACKBONE|DICT|INTERRES
   215  109  110 1    
   216  109  230 1    
   217  110  111 1    
   218  110  112 1    
   219  110  231 1    
   220  111  232 1    
   221  111  233 1    
   222  111  234 1    
   223  112  113 2    
   224  112  114 am   BACKBONE|DICT|INTERRES
   225  114  115 1    
   226  114  235 1    
   227  115  116 1    
   228  115  117 1    
   229  115  236 1    
   230  116  237 1    
   231  116  238 1    
   232  116  239 1    
   233  117  118 2    
   234  117  119 am   BACKBONE|DICT|INTERRES
   235  119  120 1    
   236  119  240 1    
   237  120  121 1    
   238  120  124 1    
   239  120  241 1    
   240  121  122 am   BACKBONE|DICT|INTERRES
   241  121  123 2    
   242  122  242 1    
   243  122  243 1    
   244  124  125 1    
   245  124  244 1    
   246  124  245 1    
   247  125  126 1    
   248  126  246 1    
   249  126  247 1    
@<TRIPOS>SUBSTRUCTURE
     1 UNK         1 GROUP             0       ****    0 ROOT    
