@<TRIPOS>MOLECULE
3R540
247   249    1
SMALL
USER_CHARGES


@<TRIPOS>ATOM
      1 CA         -4.7539  -14.3575  -45.4878 C.3       0 UNK        -0.1800 
      2 C          -4.5738  -12.9894  -46.1243 C.2       0 UNK         0.5000 
      3 O          -4.8281  -11.9720  -45.4792 O.2       0 UNK        -0.5000 
      4 N          -4.1438  -12.9616  -47.3922 N.am      1 UNK        -0.5000 
      5 CA         -3.9612  -11.7369  -48.1866 C.3       1 UNK         0.1400 
      6 C6         -3.9151  -12.0162  -49.7090 C.3       23 UNK        -0.0398 
      7 S7         -5.3390  -13.0053  -50.2881 S.3       23 UNK        -0.2404 
      8 C8         -4.5423  -14.2483  -51.3554 C.3       23 UNK        -0.0205 
      9 C9         -3.5647  -15.1418  -50.6038 C.ar      23 UNK        -0.0193 
     10 C10        -2.1886  -15.0042  -50.8117 C.ar      23 UNK        -0.1150 
     11 C11        -1.2773  -15.8470  -50.1650 C.ar      23 UNK        -0.0193 
     12 C12        -1.7619  -16.8208  -49.2890 C.ar      23 UNK        -0.1150 
     13 C13        -3.1339  -16.9672  -49.0678 C.ar      23 UNK        -0.0193 
     14 C14        -4.0330  -16.1248  -49.7272 C.ar      23 UNK        -0.1150 
     15 C15        -3.6299  -18.0676  -48.1471 C.3       23 UNK        -0.0205 
     16 S16        -3.4739  -17.5788  -46.4002 S.3       23 UNK        -0.2404 
     17 C17        -3.7509  -19.1085  -45.4331 C.3       23 UNK        -0.0398 
     18 CA         -3.3392  -20.4452  -46.0989 C.3       11 UNK         0.1400 
     19 N          -1.9179  -20.4798  -46.4701 N.am      11 UNK        -0.5000 
     20 C          -1.3622  -21.4140  -47.2537 C.2       10 UNK         0.5000 
     21 O          -1.9963  -22.3496  -47.7360 O.2       10 UNK        -0.5000 
     22 CA          0.1558  -21.3294  -47.4882 C.3       10 UNK         0.1400 
     23 CB          0.5025  -20.3147  -48.5896 C.3       10 UNK        -0.1800 
     24 N           0.8885  -21.0177  -46.2620 N.am      10 UNK        -0.5000 
     25 C           0.9970  -21.8575  -45.2226 C.2       9 UNK         0.5000 
     26 O           0.5523  -23.0050  -45.2267 O.2       9 UNK        -0.5000 
     27 CA          1.6880  -21.3247  -43.9541 C.3       9 UNK         0.1400 
     28 CB          3.2092  -21.5137  -44.0489 C.3       9 UNK        -0.1800 
     29 N           1.3832  -19.9194  -43.6834 N.am      9 UNK        -0.5000 
     30 C           0.1652  -19.4470  -43.3804 C.2       8 UNK         0.5000 
     31 O          -0.8295  -20.1593  -43.2407 O.2       8 UNK        -0.5000 
     32 CA          0.0227  -17.9159  -43.2703 C.3       8 UNK         0.1400 
     33 CB          0.4946  -17.4165  -41.8970 C.3       8 UNK        -0.1800 
     34 N           0.7390  -17.1952  -44.3250 N.am      8 UNK        -0.5000 
     35 C           0.5108  -17.3471  -45.6371 C.2       7 UNK         0.5000 
     36 O          -0.3300  -18.1139  -46.0985 O.2       7 UNK        -0.5000 
     37 CA          1.4289  -16.5774  -46.5976 C.3       7 UNK         0.1400 
     38 CB          1.0395  -15.0939  -46.6830 C.3       7 UNK        -0.1800 
     39 N           2.8313  -16.7129  -46.2083 N.am      7 UNK        -0.5000 
     40 C           3.5310  -17.8524  -46.3135 C.2       6 UNK         0.5000 
     41 O           3.0823  -18.8880  -46.8044 O.2       6 UNK        -0.5000 
     42 CA          4.9596  -17.8435  -45.7393 C.3       6 UNK         0.1400 
     43 CB          5.9542  -17.2914  -46.7712 C.3       6 UNK        -0.1800 
     44 N           5.0655  -17.0689  -44.5020 N.am      6 UNK        -0.5000 
     45 C           4.4774  -17.4037  -43.3446 C.2       5 UNK         0.5000 
     46 O           3.8108  -18.4249  -43.1862 O.2       5 UNK        -0.5000 
     47 CA          4.6153  -16.4013  -42.1841 C.3       5 UNK         0.1400 
     48 CB          5.9084  -16.6600  -41.3969 C.3       5 UNK        -0.1800 
     49 N           4.5817  -15.0028  -42.6220 N.am      5 UNK        -0.5000 
     50 C           3.5414  -14.4254  -43.2371 C.2       4 UNK         0.5000 
     51 O           2.5049  -15.0236  -43.5344 O.2       4 UNK        -0.5000 
     52 CA          3.7222  -12.9519  -43.6446 C.3       4 UNK         0.1400 
     53 CB          4.3009  -12.8682  -45.0661 C.3       4 UNK        -0.1800 
     54 N           2.4714  -12.1951  -43.6065 N.am      4 UNK        -0.5000 
     55 C           1.7216  -11.9747  -42.5174 C.2       3 UNK         0.5000 
     56 O           2.0290  -12.3650  -41.3897 O.2       3 UNK        -0.5000 
     57 CA          0.4297  -11.1502  -42.7019 C.3       3 UNK         0.1400 
     58 CB          0.4782   -9.8675  -41.8543 C.3       3 UNK        -0.1800 
     59 N           0.1704  -10.7726  -44.0951 N.am      3 UNK        -0.5000 
     60 C          -0.4628  -11.5393  -44.9897 C.2       2 UNK         0.5000 
     61 O          -0.8812  -12.6752  -44.7530 O.2       2 UNK        -0.5000 
     62 CA         -0.6398  -10.9356  -46.3895 C.3       2 UNK         0.1400 
     63 CB          0.5966  -11.1914  -47.2671 C.3       2 UNK        -0.1800 
     64 N          -1.8085  -11.5470  -47.0063 N.am      2 UNK        -0.5000 
     65 C          -2.7237  -10.9189  -47.7526 C.2       1 UNK         0.5000 
     66 O          -2.6280   -9.7400  -48.0976 O.2       1 UNK        -0.5000 
     67 C          -3.7684  -21.6422  -45.2214 C.2       11 UNK         0.5000 
     68 O          -4.9510  -21.9832  -45.2128 O.2       11 UNK        -0.5000 
     69 N          -2.8142  -22.2695  -44.5212 N.am      12 UNK        -0.5000 
     70 CA         -3.0263  -23.4616  -43.7005 C.3       12 UNK         0.1400 
     71 CB         -1.8781  -23.5757  -42.6848 C.3       12 UNK        -0.1800 
     72 C          -3.1727  -24.7667  -44.5139 C.2       12 UNK         0.5000 
     73 O          -3.5521  -25.7844  -43.9313 O.2       12 UNK        -0.5000 
     74 N          -2.8666  -24.7424  -45.8209 N.am      13 UNK        -0.5000 
     75 CA         -3.0145  -25.8863  -46.7253 C.3       13 UNK         0.1400 
     76 CB         -2.2683  -25.5927  -48.0333 C.3       13 UNK        -0.1800 
     77 C          -4.4897  -26.2352  -47.0066 C.2       13 UNK         0.5000 
     78 O          -5.3747  -25.3997  -46.8085 O.2       13 UNK        -0.5000 
     79 N          -4.7175  -27.4613  -47.4991 N.am      14 UNK        -0.5000 
     80 CA         -6.0295  -28.0933  -47.6986 C.3       14 UNK         0.1400 
     81 CB         -5.8171  -29.4974  -48.2855 C.3       14 UNK        -0.1800 
     82 C          -7.0372  -27.3047  -48.5602 C.2       14 UNK         0.5000 
     83 O          -8.2418  -27.4216  -48.3303 O.2       14 UNK        -0.5000 
     84 N          -6.5340  -26.5120  -49.5132 N.am      15 UNK        -0.5000 
     85 CA         -7.3187  -25.5841  -50.3307 C.3       15 UNK         0.1400 
     86 CB         -7.4655  -26.1469  -51.7563 C.3       15 UNK        -0.1800 
     87 C          -6.6929  -24.1772  -50.3142 C.2       15 UNK         0.5000 
     88 O          -6.8935  -23.4098  -51.2565 O.2       15 UNK        -0.5000 
     89 N          -5.9308  -23.8602  -49.2554 N.am      16 UNK        -0.5000 
     90 CA         -5.1848  -22.6156  -49.0582 C.3       16 UNK         0.1400 
     91 CB         -6.1637  -21.4610  -48.7416 C.3       16 UNK        -0.1800 
     92 C          -4.2277  -22.3339  -50.2388 C.2       16 UNK         0.5000 
     93 O          -3.5057  -23.2395  -50.6655 O.2       16 UNK        -0.5000 
     94 N          -4.2712  -21.1140  -50.7899 N.am      17 UNK        -0.5000 
     95 CA         -3.4704  -20.6838  -51.9369 C.3       17 UNK         0.1400 
     96 CB         -3.6518  -19.1738  -52.1471 C.3       17 UNK        -0.1800 
     97 C          -3.7588  -21.4510  -53.2433 C.2       17 UNK         0.5000 
     98 O          -2.9051  -21.4457  -54.1271 O.2       17 UNK        -0.5000 
     99 N          -4.9130  -22.1267  -53.3559 N.am      18 UNK        -0.5000 
    100 CA        -5.2127  -23.0002  -54.4953 C.3       18 UNK         0.1400 
    101 CB        -6.7235  -23.2639  -54.5765 C.3       18 UNK        -0.1800 
    102 C         -4.4209  -24.3236  -54.4505 C.2       18 UNK         0.5000 
    103 O         -4.2239  -24.9372  -55.5000 O.2       18 UNK        -0.5000 
    104 N         -3.9684  -24.7294  -53.2551 N.am      19 UNK        -0.5000 
    105 CA        -3.0908  -25.8794  -53.0504 C.3       19 UNK         0.1400 
    106 CB        -3.4967  -26.6176  -51.7619 C.3       19 UNK        -0.1800 
    107 C         -1.6191  -25.4413  -52.9788 C.2       19 UNK         0.5000 
    108 O         -0.7736  -26.0343  -53.6496 O.2       19 UNK        -0.5000 
    109 N         -1.3364  -24.4298  -52.1481 N.am      20 UNK        -0.5000 
    110 CA         0.0219  -24.0322  -51.7748 C.3       20 UNK         0.1400 
    111 CB        -0.0251  -23.4612  -50.3533 C.3       20 UNK        -0.1800 
    112 C          0.6877  -23.0155  -52.7187 C.2       20 UNK         0.5000 
    113 O          1.9027  -22.8354  -52.6211 O.2       20 UNK        -0.5000 
    114 N         -0.0992  -22.3526  -53.5788 N.am      21 UNK        -0.5000 
    115 CA         0.2701  -21.1728  -54.3727 C.3       21 UNK         0.1400 
    116 CB         1.4368  -21.4778  -55.3405 C.3       21 UNK        -0.1800 
    117 C          0.5156  -19.9319  -53.4816 C.2       21 UNK         0.5000 
    118 O          0.1364  -19.9213  -52.3081 O.2       21 UNK        -0.5000 
    119 N          1.1214  -18.8938  -54.0637 N.am      22 UNK        -0.5000 
    120 CA         1.5119  -17.6431  -53.4007 C.3       22 UNK         0.1400 
    121 C          2.5610  -16.8992  -54.2699 C.2       22 UNK         0.5000 
    122 N          2.3249  -16.7296  -55.5668 N.am      22 UNK        -0.7600 
    123 O          3.6141  -16.5046  -53.7772 O.2       22 UNK        -0.5000 
    124 C124        0.2915  -16.7544  -53.0246 C.3       23 UNK        -0.0398 
    125 S125        0.7281  -15.2579  -52.0684 S.3       23 UNK        -0.2404 
    126 C126        0.2302  -15.7128  -50.3721 C.3       23 UNK        -0.0205 
    127 H127       -3.8196  -14.6889  -45.0342 H         1 UNK         0.0600 
    128 H128       -5.0628  -15.0931  -46.2304 H         1 UNK         0.0600 
    129 H129       -5.5194  -14.3231  -44.7125 H         1 UNK         0.0600 
    130 H130       -3.9677  -13.8290  -47.8802 H         1 UNK         0.3000 
    131 H131       -4.8298  -11.1005  -48.0034 H         1 UNK         0.0600 
    132 H132       -3.9193  -11.0767  -50.2645 H         1 UNK         0.0800 
    133 H133       -2.9815  -12.5124  -49.9729 H         1 UNK         0.0800 
    134 H134       -4.0438  -13.7396  -52.1821 H         1 UNK         0.0800 
    135 H135       -5.3165  -14.8702  -51.8069 H         1 UNK         0.0800 
    136 H136       -1.8282  -14.2409  -51.4863 H         1 UNK         0.1150 
    137 H137       -1.0721  -17.4731  -48.7733 H         1 UNK         0.1150 
    138 H138       -5.0963  -16.2389  -49.5690 H         1 UNK         0.1150 
    139 H139       -4.6709  -18.3102  -48.3625 H         1 UNK         0.0800 
    140 H140       -3.0448  -18.9606  -48.3606 H         1 UNK         0.0800 
    141 H141       -4.8128  -19.1294  -45.1814 H         1 UNK         0.0800 
    142 H142       -3.2225  -18.9914  -44.4851 H         1 UNK         0.0800 
    143 H143       -3.9128  -20.5527  -47.0177 H         1 UNK         0.0600 
    144 H144       -1.3437  -19.7011  -46.1523 H         1 UNK         0.3000 
    145 H145        0.4848  -22.3135  -47.8247 H         1 UNK         0.0600 
    146 H146        0.3069  -19.2912  -48.2784 H         1 UNK         0.0600 
    147 H147        1.5553  -20.3802  -48.8643 H         1 UNK         0.0600 
    148 H148       -0.0805  -20.4931  -49.4935 H         1 UNK         0.0600 
    149 H149        1.3011  -20.0949  -46.1984 H         1 UNK         0.3000 
    150 H150        1.3245  -21.9130  -43.1090 H         1 UNK         0.0600 
    151 H151        3.4630  -22.5564  -44.2439 H         1 UNK         0.0600 
    152 H152        3.7001  -21.2286  -43.1183 H         1 UNK         0.0600 
    153 H153        3.6392  -20.9140  -44.8518 H         1 UNK         0.0600 
    154 H154        2.1654  -19.2716  -43.7195 H         1 UNK         0.3000 
    155 H155       -1.0373  -17.6752  -43.3746 H         1 UNK         0.0600 
    156 H156       -0.0638  -17.8988  -41.0938 H         1 UNK         0.0600 
    157 H157        1.5516  -17.6266  -41.7344 H         1 UNK         0.0600 
    158 H158        0.3485  -16.3407  -41.7968 H         1 UNK         0.0600 
    159 H159        1.4394  -16.5207  -44.0272 H         1 UNK         0.3000 
    160 H160        1.3096  -17.0107  -47.5928 H         1 UNK         0.0600 
    161 H161        1.6786  -14.5611  -47.3866 H         1 UNK         0.0600 
    162 H162        0.0102  -14.9832  -47.0275 H         1 UNK         0.0600 
    163 H163        1.1126  -14.5930  -45.7178 H         1 UNK         0.0600 
    164 H164        3.2488  -15.9279  -45.7319 H         1 UNK         0.3000 
    165 H165        5.2350  -18.8767  -45.5172 H         1 UNK         0.0600 
    166 H166        6.9787  -17.3529  -46.4036 H         1 UNK         0.0600 
    167 H167        5.9087  -17.8617  -47.7001 H         1 UNK         0.0600 
    168 H168        5.7464  -16.2488  -47.0155 H         1 UNK         0.0600 
    169 H169        5.5976  -16.2124  -44.5416 H         1 UNK         0.3000 
    170 H170        3.7703  -16.5583  -41.5109 H         1 UNK         0.0600 
    171 H171        5.9495  -17.6910  -41.0426 H         1 UNK         0.0600 
    172 H172        6.7950  -16.4873  -42.0082 H         1 UNK         0.0600 
    173 H173        5.9728  -16.0145  -40.5207 H         1 UNK         0.0600 
    174 H174        5.4033  -14.4502  -42.4229 H         1 UNK         0.3000 
    175 H175        4.4198  -12.4793  -42.9502 H         1 UNK         0.0600 
    176 H176        3.6241  -13.3031  -45.8029 H         1 UNK         0.0600 
    177 H177        4.4896  -11.8340  -45.3549 H         1 UNK         0.0600 
    178 H178        5.2503  -13.4007  -45.1373 H         1 UNK         0.0600 
    179 H179        2.1255  -11.8526  -44.4888 H         1 UNK         0.3000 
    180 H180       -0.3971  -11.7638  -42.3376 H         1 UNK         0.0600 
    181 H181        1.2990   -9.2161  -42.1567 H         1 UNK         0.0600 
    182 H182        0.6152  -10.0988  -40.7971 H         1 UNK         0.0600 
    183 H183       -0.4498   -9.3020  -41.9414 H         1 UNK         0.0600 
    184 H184        0.4920   -9.8560  -44.3734 H         1 UNK         0.3000 
    185 H185       -0.7933   -9.8597  -46.2814 H         1 UNK         0.0600 
    186 H186        0.4746  -10.7469  -48.2550 H         1 UNK         0.0600 
    187 H187        1.4927  -10.7559  -46.8237 H         1 UNK         0.0600 
    188 H188        0.7793  -12.2573  -47.4028 H         1 UNK         0.0600 
    189 H189       -1.9958  -12.4935  -46.7007 H         1 UNK         0.3000 
    190 H190       -1.8714  -21.9041  -44.5565 H         1 UNK         0.3000 
    191 H191       -3.9539  -23.3284  -43.1400 H         1 UNK         0.0600 
    192 H192       -0.9218  -23.7551  -43.1752 H         1 UNK         0.0600 
    193 H193       -2.0492  -24.4010  -41.9927 H         1 UNK         0.0600 
    194 H194       -1.7846  -22.6673  -42.0890 H         1 UNK         0.0600 
    195 H195       -2.5796  -23.8677  -46.2428 H         1 UNK         0.3000 
    196 H196       -2.5460  -26.7510  -46.2507 H         1 UNK         0.0600 
    197 H197       -2.2695  -26.4583  -48.6962 H         1 UNK         0.0600 
    198 H198       -1.2273  -25.3400  -47.8336 H         1 UNK         0.0600 
    199 H199       -2.7194  -24.7631  -48.5773 H         1 UNK         0.0600 
    200 H200       -3.9221  -28.0632  -47.6568 H         1 UNK         0.3000 
    201 H201       -6.4795  -28.2049  -46.7101 H         1 UNK         0.0600 
    202 H202       -5.2093  -30.1155  -47.6245 H         1 UNK         0.0600 
    203 H203       -5.3228  -29.4554  -49.2570 H         1 UNK         0.0600 
    204 H204       -6.7686  -30.0131  -48.4237 H         1 UNK         0.0600 
    205 H205       -5.5318  -26.4776  -49.6298 H         1 UNK         0.3000 
    206 H206       -8.3195  -25.4675  -49.9105 H         1 UNK         0.0600 
    207 H207       -7.8298  -27.1742  -51.7417 H         1 UNK         0.0600 
    208 H208       -8.1818  -25.5602  -52.3322 H         1 UNK         0.0600 
    209 H209       -6.5211  -26.1309  -52.2991 H         1 UNK         0.0600 
    210 H210       -5.8444  -24.5339  -48.5002 H         1 UNK         0.3000 
    211 H211       -4.5564  -22.7732  -48.1817 H         1 UNK         0.0600 
    212 H212       -6.8502  -21.2663  -49.5663 H         1 UNK         0.0600 
    213 H213       -5.6400  -20.5321  -48.5222 H         1 UNK         0.0600 
    214 H214       -6.7647  -21.6979  -47.8634 H         1 UNK         0.0600 
    215 H215       -4.9266  -20.4412  -50.4217 H         1 UNK         0.3000 
    216 H216       -2.4223  -20.8650  -51.6887 H         1 UNK         0.0600 
    217 H217       -3.0657  -18.8227  -52.9976 H         1 UNK         0.0600 
    218 H218       -3.3107  -18.6161  -51.2773 H         1 UNK         0.0600 
    219 H219       -4.6940  -18.9119  -52.3324 H         1 UNK         0.0600 
    220 H220       -5.5712  -22.1366  -52.5859 H         1 UNK         0.3000 
    221 H221       -4.9243  -22.4783  -55.4104 H         1 UNK         0.0600 
    222 H222       -7.0728  -23.8855  -53.7543 H         1 UNK         0.0600 
    223 H223       -7.2915  -22.3337  -54.5628 H         1 UNK         0.0600 
    224 H224       -6.9742  -23.7849  -55.5012 H         1 UNK         0.0600 
    225 H225       -4.1386  -24.1431  -52.4467 H         1 UNK         0.3000 
    226 H226       -3.1883  -26.5838  -53.8792 H         1 UNK         0.0600 
    227 H227       -4.4719  -27.0896  -51.8700 H         1 UNK         0.0600 
    228 H228       -2.7856  -27.4098  -51.5240 H         1 UNK         0.0600 
    229 H229       -3.5390  -25.9472  -50.9035 H         1 UNK         0.0600 
    230 H230       -2.0919  -24.0008  -51.6186 H         1 UNK         0.3000 
    231 H231        0.6613  -24.9175  -51.7558 H         1 UNK         0.0600 
    232 H232        0.9578  -23.1115  -50.0354 H         1 UNK         0.0600 
    233 H233       -0.3459  -24.2160  -49.6390 H         1 UNK         0.0600 
    234 H234       -0.7172  -22.6215  -50.2865 H         1 UNK         0.0600 
    235 H235       -1.0906  -22.5534  -53.5660 H         1 UNK         0.3000 
    236 H236       -0.5951  -20.9356  -54.9906 H         1 UNK         0.0600 
    237 H237        1.5233  -20.7098  -56.1095 H         1 UNK         0.0600 
    238 H238        1.2820  -22.4257  -55.8561 H         1 UNK         0.0600 
    239 H239        2.3957  -21.5309  -54.8244 H         1 UNK         0.0600 
    240 H240        1.4414  -18.9866  -55.0174 H         1 UNK         0.3000 
    241 H241        2.0159  -17.9202  -52.4723 H         1 UNK         0.0600 
    242 H242        1.4494  -16.9962  -55.9887 H         1 UNK         0.3800 
    243 H243        3.0171  -16.2588  -56.1291 H         1 UNK         0.3800 
    244 H244       -0.4337  -17.3319  -52.4507 H         1 UNK         0.0800 
    245 H245       -0.2347  -16.4385  -53.9263 H         1 UNK         0.0800 
    246 H246        0.7367  -16.6412  -50.1026 H         1 UNK         0.0800 
    247 H247        0.6003  -14.9475  -49.6896 H         1 UNK         0.0800 
@<TRIPOS>BOND
     1    1    2 1    
     2    1  127 1    
     3    1  128 1    
     4    1  129 1    
     5    2    3 2    
     6    2    4 am   BACKBONE|DICT|INTERRES
     7    4    5 1    
     8    4  130 1    
     9    5    6 1    
    10    5   65 1    
    11    5  131 1    
    12    6    7 1    
    13    6  132 1    
    14    6  133 1    
    15    7    8 1    
    16    8    9 1    
    17    8  134 1    
    18    8  135 1    
    19    9   10 ar   
    20    9   14 ar   
    21   10   11 ar   
    22   10  136 1    
    23   11   12 ar   
    24   11  126 1    
    25   12   13 ar   
    26   12  137 1    
    27   13   14 ar   
    28   13   15 1    
    29   14  138 1    
    30   15   16 1    
    31   15  139 1    
    32   15  140 1    
    33   16   17 1    
    34   17   18 1    
    35   17  141 1    
    36   17  142 1    
    37   18   19 1    
    38   18   67 1    
    39   18  143 1    
    40   19   20 am   BACKBONE|DICT|INTERRES
    41   19  144 1    
    42   20   21 2    
    43   20   22 1    
    44   22   23 1    
    45   22   24 1    
    46   22  145 1    
    47   23  146 1    
    48   23  147 1    
    49   23  148 1    
    50   24   25 am   BACKBONE|DICT|INTERRES
    51   24  149 1    
    52   25   26 2    
    53   25   27 1    
    54   27   28 1    
    55   27   29 1    
    56   27  150 1    
    57   28  151 1    
    58   28  152 1    
    59   28  153 1    
    60   29   30 am   BACKBONE|DICT|INTERRES
    61   29  154 1    
    62   30   31 2    
    63   30   32 1    
    64   32   33 1    
    65   32   34 1    
    66   32  155 1    
    67   33  156 1    
    68   33  157 1    
    69   33  158 1    
    70   34   35 am   BACKBONE|DICT|INTERRES
    71   34  159 1    
    72   35   36 2    
    73   35   37 1    
    74   37   38 1    
    75   37   39 1    
    76   37  160 1    
    77   38  161 1    
    78   38  162 1    
    79   38  163 1    
    80   39   40 am   BACKBONE|DICT|INTERRES
    81   39  164 1    
    82   40   41 2    
    83   40   42 1    
    84   42   43 1    
    85   42   44 1    
    86   42  165 1    
    87   43  166 1    
    88   43  167 1    
    89   43  168 1    
    90   44   45 am   BACKBONE|DICT|INTERRES
    91   44  169 1    
    92   45   46 2    
    93   45   47 1    
    94   47   48 1    
    95   47   49 1    
    96   47  170 1    
    97   48  171 1    
    98   48  172 1    
    99   48  173 1    
   100   49   50 am   BACKBONE|DICT|INTERRES
   101   49  174 1    
   102   50   51 2    
   103   50   52 1    
   104   52   53 1    
   105   52   54 1    
   106   52  175 1    
   107   53  176 1    
   108   53  177 1    
   109   53  178 1    
   110   54   55 am   BACKBONE|DICT|INTERRES
   111   54  179 1    
   112   55   56 2    
   113   55   57 1    
   114   57   58 1    
   115   57   59 1    
   116   57  180 1    
   117   58  181 1    
   118   58  182 1    
   119   58  183 1    
   120   59   60 am   BACKBONE|DICT|INTERRES
   121   59  184 1    
   122   60   61 2    
   123   60   62 1    
   124   62   63 1    
   125   62   64 1    
   126   62  185 1    
   127   63  186 1    
   128   63  187 1    
   129   63  188 1    
   130   64   65 am   BACKBONE|DICT|INTERRES
   131   64  189 1    
   132   65   66 2    
   133   67   68 2    
   134   67   69 am   BACKBONE|DICT|INTERRES
   135   69   70 1    
   136   69  190 1    
   137   70   71 1    
   138   70   72 1    
   139   70  191 1    
   140   71  192 1    
   141   71  193 1    
   142   71  194 1    
   143   72   73 2    
   144   72   74 am   BACKBONE|DICT|INTERRES
   145   74   75 1    
   146   74  195 1    
   147   75   76 1    
   148   75   77 1    
   149   75  196 1    
   150   76  197 1    
   151   76  198 1    
   152   76  199 1    
   153   77   78 2    
   154   77   79 am   BACKBONE|DICT|INTERRES
   155   79   80 1    
   156   79  200 1    
   157   80   81 1    
   158   80   82 1    
   159   80  201 1    
   160   81  202 1    
   161   81  203 1    
   162   81  204 1    
   163   82   83 2    
   164   82   84 am   BACKBONE|DICT|INTERRES
   165   84   85 1    
   166   84  205 1    
   167   85   86 1    
   168   85   87 1    
   169   85  206 1    
   170   86  207 1    
   171   86  208 1    
   172   86  209 1    
   173   87   88 2    
   174   87   89 am   BACKBONE|DICT|INTERRES
   175   89   90 1    
   176   89  210 1    
   177   90   91 1    
   178   90   92 1    
   179   90  211 1    
   180   91  212 1    
   181   91  213 1    
   182   91  214 1    
   183   92   93 2    
   184   92   94 am   BACKBONE|DICT|INTERRES
   185   94   95 1    
   186   94  215 1    
   187   95   96 1    
   188   95   97 1    
   189   95  216 1    
   190   96  217 1    
   191   96  218 1    
   192   96  219 1    
   193   97   98 2    
   194   97   99 am   BACKBONE|DICT|INTERRES
   195   99  100 1    
   196   99  220 1    
   197  100  101 1    
   198  100  102 1    
   199  100  221 1    
   200  101  222 1    
   201  101  223 1    
   202  101  224 1    
   203  102  103 2    
   204  102  104 am   BACKBONE|DICT|INTERRES
   205  104  105 1    
   206  104  225 1    
   207  105  106 1    
   208  105  107 1    
   209  105  226 1    
   210  106  227 1    
   211  106  228 1    
   212  106  229 1    
   213  107  108 2    
   214  107  109 am   BACKBONE|DICT|INTERRES
   215  109  110 1    
   216  109  230 1    
   217  110  111 1    
   218  110  112 1    
   219  110  231 1    
   220  111  232 1    
   221  111  233 1    
   222  111  234 1    
   223  112  113 2    
   224  112  114 am   BACKBONE|DICT|INTERRES
   225  114  115 1    
   226  114  235 1    
   227  115  116 1    
   228  115  117 1    
   229  115  236 1    
   230  116  237 1    
   231  116  238 1    
   232  116  239 1    
   233  117  118 2    
   234  117  119 am   BACKBONE|DICT|INTERRES
   235  119  120 1    
   236  119  240 1    
   237  120  121 1    
   238  120  124 1    
   239  120  241 1    
   240  121  122 am   BACKBONE|DICT|INTERRES
   241  121  123 2    
   242  122  242 1    
   243  122  243 1    
   244  124  125 1    
   245  124  244 1    
   246  124  245 1    
   247  125  126 1    
   248  126  246 1    
   249  126  247 1    
@<TRIPOS>SUBSTRUCTURE
     1 UNK         1 GROUP             0       ****    0 ROOT    
