@<TRIPOS>MOLECULE
3R540
247   249    1
SMALL
USER_CHARGES


@<TRIPOS>ATOM
      1 CA          4.0240  -13.6087  -48.2133 C.3       0 UNK        -0.1800 
      2 C           2.5536  -13.8300  -47.8930 C.2       0 UNK         0.5000 
      3 O           2.1256  -13.5731  -46.7683 O.2       0 UNK        -0.5000 
      4 N           1.7693  -14.2815  -48.8824 N.am      1 UNK        -0.5000 
      5 CA          0.3480  -14.6476  -48.7644 C.3       1 UNK         0.1400 
      6 C6         -0.1382  -15.4204  -50.0166 C.3       23 UNK        -0.0398 
      7 S7         -1.5361  -16.5499  -49.6871 S.3       23 UNK        -0.2404 
      8 C8         -0.7361  -17.9568  -48.8450 C.3       23 UNK        -0.0205 
      9 C9          0.2972  -18.6554  -49.7163 C.ar      23 UNK        -0.0193 
     10 C10        -0.0886  -19.2532  -50.9181 C.ar      23 UNK        -0.1150 
     11 C11         0.8501  -19.8882  -51.7342 C.ar      23 UNK        -0.0193 
     12 C12         2.1843  -19.9481  -51.3226 C.ar      23 UNK        -0.1150 
     13 C13         2.5868  -19.3587  -50.1200 C.ar      23 UNK        -0.0193 
     14 C14         1.6380  -18.7051  -49.3255 C.ar      23 UNK        -0.1150 
     15 C15         4.0543  -19.4038  -49.7086 C.3       23 UNK        -0.0205 
     16 S16         4.3118  -20.0022  -48.0074 S.3       23 UNK        -0.2404 
     17 C17         3.5208  -21.6467  -48.0652 C.3       23 UNK        -0.0398 
     18 CA          4.1304  -22.6225  -47.0298 C.3       11 UNK         0.1400 
     19 N           3.9514  -22.1416  -45.6547 N.am      11 UNK        -0.5000 
     20 C           4.6415  -22.5713  -44.5904 C.2       10 UNK         0.5000 
     21 O           5.5325  -23.4195  -44.6477 O.2       10 UNK        -0.5000 
     22 CA          4.2552  -21.9639  -43.2301 C.3       10 UNK         0.1400 
     23 CB          4.8770  -20.5699  -43.0506 C.3       10 UNK        -0.1800 
     24 N           2.8042  -21.8790  -43.0617 N.am      10 UNK        -0.5000 
     25 C           2.0146  -22.9225  -42.7719 C.2       9 UNK         0.5000 
     26 O           2.4341  -24.0648  -42.5848 O.2       9 UNK        -0.5000 
     27 CA          0.4997  -22.6530  -42.6831 C.3       9 UNK         0.1400 
     28 CB          0.1159  -22.2202  -41.2603 C.3       9 UNK        -0.1800 
     29 N           0.0331  -21.6455  -43.6356 N.am      9 UNK        -0.5000 
     30 C           0.0448  -21.7960  -44.9678 C.2       8 UNK         0.5000 
     31 O           0.4109  -22.8256  -45.5330 O.2       8 UNK        -0.5000 
     32 CA         -0.3669  -20.5726  -45.8074 C.3       8 UNK         0.1400 
     33 CB         -1.8915  -20.4930  -45.9154 C.3       8 UNK        -0.1800 
     34 N           0.1464  -19.3067  -45.2794 N.am      8 UNK        -0.5000 
     35 C           1.4460  -19.0357  -45.0984 C.2       7 UNK         0.5000 
     36 O           2.3486  -19.8330  -45.3401 O.2       7 UNK        -0.5000 
     37 CA          1.7978  -17.6686  -44.5018 C.3       7 UNK         0.1400 
     38 CB          1.7597  -16.5769  -45.5749 C.3       7 UNK        -0.1800 
     39 N           0.9011  -17.3205  -43.4032 N.am      7 UNK        -0.5000 
     40 C           1.0128  -17.8197  -42.1649 C.2       6 UNK         0.5000 
     41 O           1.9236  -18.5666  -41.8062 O.2       6 UNK        -0.5000 
     42 CA         -0.1006  -17.4469  -41.1692 C.3       6 UNK         0.1400 
     43 CB          0.2008  -16.0991  -40.4976 C.3       6 UNK        -0.1800 
     44 N          -1.4237  -17.3935  -41.7931 N.am      6 UNK        -0.5000 
     45 C          -2.0619  -18.4592  -42.2984 C.2       5 UNK         0.5000 
     46 O          -1.6040  -19.6013  -42.2802 O.2       5 UNK        -0.5000 
     47 CA         -3.4249  -18.2066  -42.9685 C.3       5 UNK         0.1400 
     48 CB         -4.5626  -18.3473  -41.9467 C.3       5 UNK        -0.1800 
     49 N          -3.5380  -16.9094  -43.6367 N.am      5 UNK        -0.5000 
     50 C          -2.7428  -16.4564  -44.6160 C.2       4 UNK         0.5000 
     51 O          -1.7568  -17.0649  -45.0383 O.2       4 UNK        -0.5000 
     52 CA         -3.1048  -15.0909  -45.2313 C.3       4 UNK         0.1400 
     53 CB         -4.4208  -14.4750  -44.7026 C.3       4 UNK        -0.1800 
     54 N          -2.0158  -14.1227  -45.1170 N.am      4 UNK        -0.5000 
     55 C          -1.4312  -13.6715  -43.9966 C.2       3 UNK         0.5000 
     56 O          -1.7081  -14.0898  -42.8711 O.2       3 UNK        -0.5000 
     57 CA         -0.3610  -12.5655  -44.1451 C.3       3 UNK         0.1400 
     58 CB          0.9868  -13.0253  -43.5686 C.3       3 UNK        -0.1800 
     59 N          -0.1635  -12.1303  -45.5319 N.am      3 UNK        -0.5000 
     60 C          -0.9558  -11.2657  -46.1869 C.2       2 UNK         0.5000 
     61 O          -1.8802  -10.6537  -45.6514 O.2       2 UNK        -0.5000 
     62 CA         -0.7096  -11.0830  -47.7029 C.3       2 UNK         0.1400 
     63 CB          0.1575   -9.8417  -47.9610 C.3       2 UNK        -0.1800 
     64 N          -0.0770  -12.2441  -48.3355 N.am      2 UNK        -0.5000 
     65 C          -0.5935  -13.4811  -48.3689 C.2       1 UNK         0.5000 
     66 O          -1.7475  -13.7244  -48.0180 O.2       1 UNK        -0.5000 
     67 C           3.5659  -24.0459  -47.2317 C.2       11 UNK         0.5000 
     68 O           4.0087  -24.7414  -48.1466 O.2       11 UNK        -0.5000 
     69 N           2.6088  -24.4443  -46.3802 N.am      12 UNK        -0.5000 
     70 CA          1.8622  -25.7048  -46.3845 C.3       12 UNK         0.1400 
     71 CB          2.7948  -26.9047  -46.1166 C.3       12 UNK        -0.1800 
     72 C           0.9961  -25.8664  -47.6508 C.2       12 UNK         0.5000 
     73 O           0.9193  -26.9589  -48.2170 O.2       12 UNK        -0.5000 
     74 N           0.3600  -24.7683  -48.0739 N.am      13 UNK        -0.5000 
     75 CA         -0.4967  -24.6817  -49.2519 C.3       13 UNK         0.1400 
     76 CB          0.3673  -24.5820  -50.5218 C.3       13 UNK        -0.1800 
     77 C          -1.4202  -23.4634  -49.1075 C.2       13 UNK         0.5000 
     78 O          -1.0771  -22.5293  -48.3826 O.2       13 UNK        -0.5000 
     79 N          -2.5638  -23.5020  -49.8043 N.am      14 UNK        -0.5000 
     80 CA         -3.6702  -22.5380  -49.7413 C.3       14 UNK         0.1400 
     81 CB         -3.2208  -21.1277  -50.1740 C.3       14 UNK        -0.1800 
     82 C          -4.4133  -22.5859  -48.3858 C.2       14 UNK         0.5000 
     83 O          -4.4165  -23.6397  -47.7433 O.2       14 UNK        -0.5000 
     84 N          -5.0841  -21.4936  -47.9960 N.am      15 UNK        -0.5000 
     85 CA         -5.9341  -21.4291  -46.8060 C.3       15 UNK         0.1400 
     86 CB         -7.3538  -21.9244  -47.1580 C.3       15 UNK        -0.1800 
     87 C          -5.8858  -20.0109  -46.2136 C.2       15 UNK         0.5000 
     88 O          -4.7945  -19.4795  -46.0113 O.2       15 UNK        -0.5000 
     89 N          -7.0475  -19.3981  -45.9469 N.am      16 UNK        -0.5000 
     90 CA         -7.1855  -18.0026  -45.5220 C.3       16 UNK         0.1400 
     91 CB         -8.5866  -17.7993  -44.9201 C.3       16 UNK        -0.1800 
     92 C          -6.9000  -17.0564  -46.7061 C.2       16 UNK         0.5000 
     93 O          -7.8269  -16.4970  -47.2941 O.2       16 UNK        -0.5000 
     94 N          -5.6124  -16.9755  -47.0652 N.am      17 UNK        -0.5000 
     95 CA         -5.0731  -16.4875  -48.3333 C.3       17 UNK         0.1400 
     96 CB         -5.3942  -14.9946  -48.5730 C.3       17 UNK        -0.1800 
     97 C          -5.4904  -17.4451  -49.4685 C.2       17 UNK         0.5000 
     98 O          -5.3528  -18.6577  -49.2917 O.2       17 UNK        -0.5000 
     99 N          -5.9988  -16.9030  -50.5851 N.am      18 UNK        -0.5000 
    100 CA        -6.4852  -17.6240  -51.7675 C.3       18 UNK         0.1400 
    101 CB        -7.7204  -18.4841  -51.4226 C.3       18 UNK        -0.1800 
    102 C         -5.3674  -18.4263  -52.4626 C.2       18 UNK         0.5000 
    103 O         -5.4995  -19.6322  -52.6752 O.2       18 UNK        -0.5000 
    104 N         -4.2807  -17.7263  -52.8205 N.am      19 UNK        -0.5000 
    105 CA        -3.0703  -18.2771  -53.4444 C.3       19 UNK         0.1400 
    106 CB        -2.0404  -17.1511  -53.6214 C.3       19 UNK        -0.1800 
    107 C         -3.2903  -19.0233  -54.7763 C.2       19 UNK         0.5000 
    108 O         -2.4571  -19.8478  -55.1492 O.2       19 UNK        -0.5000 
    109 N         -4.4248  -18.7727  -55.4438 N.am      20 UNK        -0.5000 
    110 CA        -4.8974  -19.5113  -56.6175 C.3       20 UNK         0.1400 
    111 CB        -6.1646  -18.8263  -57.1522 C.3       20 UNK        -0.1800 
    112 C         -5.1643  -21.0108  -56.3532 C.2       20 UNK         0.5000 
    113 O         -5.2013  -21.7889  -57.3068 O.2       20 UNK        -0.5000 
    114 N         -5.3365  -21.3960  -55.0792 N.am      21 UNK        -0.5000 
    115 CA        -5.4847  -22.7830  -54.6386 C.3       21 UNK         0.1400 
    116 CB        -6.0555  -22.7936  -53.2124 C.3       21 UNK        -0.1800 
    117 C         -4.1757  -23.5985  -54.7004 C.2       21 UNK         0.5000 
    118 O         -4.2466  -24.8285  -54.6928 O.2       21 UNK        -0.5000 
    119 N         -3.0146  -22.9285  -54.7487 N.am      22 UNK        -0.5000 
    120 CA        -1.6985  -23.5671  -54.9082 C.3       22 UNK         0.1400 
    121 C         -1.5222  -24.2035  -56.3155 C.2       22 UNK         0.5000 
    122 N         -0.9368  -25.3907  -56.3986 N.am      22 UNK        -0.7600 
    123 O         -1.8683  -23.6118  -57.3354 O.2       22 UNK        -0.5000 
    124 C124       -0.5356  -22.5857  -54.6214 C.3       23 UNK        -0.0398 
    125 S125       -0.4995  -22.0171  -52.8904 S.3       23 UNK        -0.2404 
    126 C126        0.4337  -20.4704  -53.0766 C.3       23 UNK        -0.0205 
    127 H127        4.2567  -13.8611  -49.2480 H         1 UNK         0.0600 
    128 H128        4.6437  -14.2272  -47.5642 H         1 UNK         0.0600 
    129 H129        4.2907  -12.5649  -48.0479 H         1 UNK         0.0600 
    130 H130        2.1825  -14.4388  -49.7908 H         1 UNK         0.3000 
    131 H131        0.3059  -15.3379  -47.9222 H         1 UNK         0.0600 
    132 H132        0.6724  -16.0181  -50.4348 H         1 UNK         0.0800 
    133 H133       -0.4267  -14.7291  -50.8101 H         1 UNK         0.0800 
    134 H134       -0.2967  -17.6212  -47.9050 H         1 UNK         0.0800 
    135 H135       -1.5070  -18.6780  -48.5747 H         1 UNK         0.0800 
    136 H136       -1.1226  -19.2100  -51.2196 H         1 UNK         0.1150 
    137 H137        2.9144  -20.4395  -51.9502 H         1 UNK         0.1150 
    138 H138        1.9464  -18.2426  -48.3993 H         1 UNK         0.1150 
    139 H139        4.6295  -20.0337  -50.3890 H         1 UNK         0.0800 
    140 H140        4.4710  -18.3995  -49.7931 H         1 UNK         0.0800 
    141 H141        2.4490  -21.5226  -47.8964 H         1 UNK         0.0800 
    142 H142        3.6305  -22.0459  -49.0754 H         1 UNK         0.0800 
    143 H143        5.2038  -22.6833  -47.2223 H         1 UNK         0.0600 
    144 H144        3.2846  -21.3814  -45.5297 H         1 UNK         0.3000 
    145 H145        4.6573  -22.6112  -42.4477 H         1 UNK         0.0600 
    146 H146        4.6305  -20.1514  -42.0745 H         1 UNK         0.0600 
    147 H147        4.5319  -19.8683  -43.8102 H         1 UNK         0.0600 
    148 H148        5.9643  -20.6177  -43.1202 H         1 UNK         0.0600 
    149 H149        2.3786  -20.9792  -43.2378 H         1 UNK         0.3000 
    150 H150       -0.0161  -23.5893  -42.9059 H         1 UNK         0.0600 
    151 H151        0.4495  -22.9519  -40.5234 H         1 UNK         0.0600 
    152 H152       -0.9650  -22.1244  -41.1564 H         1 UNK         0.0600 
    153 H153        0.5630  -21.2599  -40.9989 H         1 UNK         0.0600 
    154 H154       -0.3393  -20.7862  -43.2421 H         1 UNK         0.3000 
    155 H155        0.0464  -20.6965  -46.8103 H         1 UNK         0.0600 
    156 H156       -2.3030  -21.3848  -46.3872 H         1 UNK         0.0600 
    157 H157       -2.2025  -19.6357  -46.5109 H         1 UNK         0.0600 
    158 H158       -2.3550  -20.4108  -44.9344 H         1 UNK         0.0600 
    159 H159       -0.5385  -18.5847  -45.0753 H         1 UNK         0.3000 
    160 H160        2.8213  -17.7274  -44.1245 H         1 UNK         0.0600 
    161 H161        0.7399  -16.3364  -45.8735 H         1 UNK         0.0600 
    162 H162        2.3098  -16.8764  -46.4675 H         1 UNK         0.0600 
    163 H163        2.2296  -15.6683  -45.2046 H         1 UNK         0.0600 
    164 H164        0.0821  -16.7758  -43.6367 H         1 UNK         0.3000 
    165 H165       -0.1239  -18.2166  -40.3947 H         1 UNK         0.0600 
    166 H166       -0.5458  -15.8596  -39.7403 H         1 UNK         0.0600 
    167 H167        1.1723  -16.1183  -40.0021 H         1 UNK         0.0600 
    168 H168        0.2174  -15.2840  -41.2214 H         1 UNK         0.0600 
    169 H169       -1.8523  -16.4819  -41.8822 H         1 UNK         0.3000 
    170 H170       -3.5643  -18.9749  -43.7274 H         1 UNK         0.0600 
    171 H171       -4.5169  -19.3138  -41.4429 H         1 UNK         0.0600 
    172 H172       -4.5123  -17.5741  -41.1791 H         1 UNK         0.0600 
    173 H173       -5.5380  -18.2816  -42.4286 H         1 UNK         0.0600 
    174 H174       -4.2941  -16.3157  -43.3299 H         1 UNK         0.3000 
    175 H175       -3.2318  -15.2738  -46.2979 H         1 UNK         0.0600 
    176 H176       -4.6513  -13.5497  -45.2308 H         1 UNK         0.0600 
    177 H177       -5.2672  -15.1443  -44.8566 H         1 UNK         0.0600 
    178 H178       -4.3690  -14.2388  -43.6392 H         1 UNK         0.0600 
    179 H179       -1.7062  -13.7438  -46.0045 H         1 UNK         0.3000 
    180 H180       -0.7004  -11.7112  -43.5559 H         1 UNK         0.0600 
    181 H181        0.9010  -13.2584  -42.5069 H         1 UNK         0.0600 
    182 H182        1.7458  -12.2494  -43.6693 H         1 UNK         0.0600 
    183 H183        1.3525  -13.9185  -44.0717 H         1 UNK         0.0600 
    184 H184        0.5926  -12.5857  -46.0369 H         1 UNK         0.3000 
    185 H185       -1.6809  -10.9311  -48.1780 H         1 UNK         0.0600 
    186 H186        0.2750   -9.6569  -49.0289 H         1 UNK         0.0600 
    187 H187       -0.2969   -8.9504  -47.5262 H         1 UNK         0.0600 
    188 H188        1.1521   -9.9490  -47.5260 H         1 UNK         0.0600 
    189 H189        0.8852  -12.1318  -48.6192 H         1 UNK         0.3000 
    190 H190        2.2579  -23.7545  -45.7256 H         1 UNK         0.3000 
    191 H191        1.1645  -25.6421  -45.5482 H         1 UNK         0.0600 
    192 H192        2.2199  -27.8208  -45.9767 H         1 UNK         0.0600 
    193 H193        3.3835  -26.7503  -45.2122 H         1 UNK         0.0600 
    194 H194        3.4857  -27.0766  -46.9422 H         1 UNK         0.0600 
    195 H195        0.4051  -23.9166  -47.5217 H         1 UNK         0.3000 
    196 H196       -1.1171  -25.5789  -49.3024 H         1 UNK         0.0600 
    197 H197       -0.2565  -24.5828  -51.4155 H         1 UNK         0.0600 
    198 H198        1.0526  -25.4250  -50.6096 H         1 UNK         0.0600 
    199 H199        0.9604  -23.6663  -50.5306 H         1 UNK         0.0600 
    200 H200       -2.7513  -24.3255  -50.3575 H         1 UNK         0.3000 
    201 H201       -4.3921  -22.8859  -50.4797 H         1 UNK         0.0600 
    202 H202       -2.6592  -20.6182  -49.3911 H         1 UNK         0.0600 
    203 H203       -4.0787  -20.5103  -50.4313 H         1 UNK         0.0600 
    204 H204       -2.5957  -21.1703  -51.0636 H         1 UNK         0.0600 
    205 H205       -5.0148  -20.6318  -48.5302 H         1 UNK         0.3000 
    206 H206       -5.5246  -22.0821  -46.0326 H         1 UNK         0.0600 
    207 H207       -7.3278  -22.9446  -47.5414 H         1 UNK         0.0600 
    208 H208       -8.0023  -21.9357  -46.2811 H         1 UNK         0.0600 
    209 H209       -7.8217  -21.2993  -47.9198 H         1 UNK         0.0600 
    210 H210       -7.9054  -19.8850  -46.1613 H         1 UNK         0.3000 
    211 H211       -6.4525  -17.7934  -44.7400 H         1 UNK         0.0600 
    212 H212       -9.3742  -18.0269  -45.6395 H         1 UNK         0.0600 
    213 H213       -8.7250  -16.7672  -44.5957 H         1 UNK         0.0600 
    214 H214       -8.7357  -18.4360  -44.0478 H         1 UNK         0.0600 
    215 H215       -4.9979  -17.6234  -46.5798 H         1 UNK         0.3000 
    216 H216       -3.9921  -16.5798  -48.2424 H         1 UNK         0.0600 
    217 H217       -4.8366  -14.6096  -49.4276 H         1 UNK         0.0600 
    218 H218       -5.1073  -14.3905  -47.7128 H         1 UNK         0.0600 
    219 H219       -6.4538  -14.8193  -48.7594 H         1 UNK         0.0600 
    220 H220       -6.0755  -15.8967  -50.6247 H         1 UNK         0.3000 
    221 H221       -6.8083  -16.8652  -52.4814 H         1 UNK         0.0600 
    222 H222       -8.1511  -18.9236  -52.3230 H         1 UNK         0.0600 
    223 H223       -7.4734  -19.3050  -50.7486 H         1 UNK         0.0600 
    224 H224       -8.4980  -17.8850  -50.9489 H         1 UNK         0.0600 
    225 H225       -4.2559  -16.7413  -52.6012 H         1 UNK         0.3000 
    226 H226       -2.6660  -19.0138  -52.7507 H         1 UNK         0.0600 
    227 H227       -1.7752  -16.7028  -52.6647 H         1 UNK         0.0600 
    228 H228       -1.1178  -17.5257  -54.0662 H         1 UNK         0.0600 
    229 H229       -2.4189  -16.3604  -54.2702 H         1 UNK         0.0600 
    230 H230       -5.0540  -18.0825  -55.0626 H         1 UNK         0.3000 
    231 H231       -4.1223  -19.4499  -57.3841 H         1 UNK         0.0600 
    232 H232       -6.5318  -19.3275  -58.0488 H         1 UNK         0.0600 
    233 H233       -5.9698  -17.7876  -57.4198 H         1 UNK         0.0600 
    234 H234       -6.9692  -18.8399  -56.4157 H         1 UNK         0.0600 
    235 H235       -5.3185  -20.6953  -54.3437 H         1 UNK         0.3000 
    236 H236       -6.2060  -23.2745  -55.2947 H         1 UNK         0.0600 
    237 H237       -5.3786  -22.3052  -52.5120 H         1 UNK         0.0600 
    238 H238       -7.0137  -22.2758  -53.1659 H         1 UNK         0.0600 
    239 H239       -6.2172  -23.8128  -52.8595 H         1 UNK         0.0600 
    240 H240       -3.0244  -21.9168  -54.7864 H         1 UNK         0.3000 
    241 H241       -1.6400  -24.3705  -54.1708 H         1 UNK         0.0600 
    242 H242       -0.8019  -25.8072  -57.3070 H         1 UNK         0.3800 
    243 H243       -0.6380  -25.8933  -55.5768 H         1 UNK         0.3800 
    244 H244       -0.5925  -21.7248  -55.2894 H         1 UNK         0.0800 
    245 H245        0.4257  -23.0626  -54.8214 H         1 UNK         0.0800 
    246 H246       -0.1752  -19.7451  -53.6160 H         1 UNK         0.0800 
    247 H247        1.3124  -20.6547  -53.6965 H         1 UNK         0.0800 
@<TRIPOS>BOND
     1    1    2 1    
     2    1  127 1    
     3    1  128 1    
     4    1  129 1    
     5    2    3 2    
     6    2    4 am   BACKBONE|DICT|INTERRES
     7    4    5 1    
     8    4  130 1    
     9    5    6 1    
    10    5   65 1    
    11    5  131 1    
    12    6    7 1    
    13    6  132 1    
    14    6  133 1    
    15    7    8 1    
    16    8    9 1    
    17    8  134 1    
    18    8  135 1    
    19    9   10 ar   
    20    9   14 ar   
    21   10   11 ar   
    22   10  136 1    
    23   11   12 ar   
    24   11  126 1    
    25   12   13 ar   
    26   12  137 1    
    27   13   14 ar   
    28   13   15 1    
    29   14  138 1    
    30   15   16 1    
    31   15  139 1    
    32   15  140 1    
    33   16   17 1    
    34   17   18 1    
    35   17  141 1    
    36   17  142 1    
    37   18   19 1    
    38   18   67 1    
    39   18  143 1    
    40   19   20 am   BACKBONE|DICT|INTERRES
    41   19  144 1    
    42   20   21 2    
    43   20   22 1    
    44   22   23 1    
    45   22   24 1    
    46   22  145 1    
    47   23  146 1    
    48   23  147 1    
    49   23  148 1    
    50   24   25 am   BACKBONE|DICT|INTERRES
    51   24  149 1    
    52   25   26 2    
    53   25   27 1    
    54   27   28 1    
    55   27   29 1    
    56   27  150 1    
    57   28  151 1    
    58   28  152 1    
    59   28  153 1    
    60   29   30 am   BACKBONE|DICT|INTERRES
    61   29  154 1    
    62   30   31 2    
    63   30   32 1    
    64   32   33 1    
    65   32   34 1    
    66   32  155 1    
    67   33  156 1    
    68   33  157 1    
    69   33  158 1    
    70   34   35 am   BACKBONE|DICT|INTERRES
    71   34  159 1    
    72   35   36 2    
    73   35   37 1    
    74   37   38 1    
    75   37   39 1    
    76   37  160 1    
    77   38  161 1    
    78   38  162 1    
    79   38  163 1    
    80   39   40 am   BACKBONE|DICT|INTERRES
    81   39  164 1    
    82   40   41 2    
    83   40   42 1    
    84   42   43 1    
    85   42   44 1    
    86   42  165 1    
    87   43  166 1    
    88   43  167 1    
    89   43  168 1    
    90   44   45 am   BACKBONE|DICT|INTERRES
    91   44  169 1    
    92   45   46 2    
    93   45   47 1    
    94   47   48 1    
    95   47   49 1    
    96   47  170 1    
    97   48  171 1    
    98   48  172 1    
    99   48  173 1    
   100   49   50 am   BACKBONE|DICT|INTERRES
   101   49  174 1    
   102   50   51 2    
   103   50   52 1    
   104   52   53 1    
   105   52   54 1    
   106   52  175 1    
   107   53  176 1    
   108   53  177 1    
   109   53  178 1    
   110   54   55 am   BACKBONE|DICT|INTERRES
   111   54  179 1    
   112   55   56 2    
   113   55   57 1    
   114   57   58 1    
   115   57   59 1    
   116   57  180 1    
   117   58  181 1    
   118   58  182 1    
   119   58  183 1    
   120   59   60 am   BACKBONE|DICT|INTERRES
   121   59  184 1    
   122   60   61 2    
   123   60   62 1    
   124   62   63 1    
   125   62   64 1    
   126   62  185 1    
   127   63  186 1    
   128   63  187 1    
   129   63  188 1    
   130   64   65 am   BACKBONE|DICT|INTERRES
   131   64  189 1    
   132   65   66 2    
   133   67   68 2    
   134   67   69 am   BACKBONE|DICT|INTERRES
   135   69   70 1    
   136   69  190 1    
   137   70   71 1    
   138   70   72 1    
   139   70  191 1    
   140   71  192 1    
   141   71  193 1    
   142   71  194 1    
   143   72   73 2    
   144   72   74 am   BACKBONE|DICT|INTERRES
   145   74   75 1    
   146   74  195 1    
   147   75   76 1    
   148   75   77 1    
   149   75  196 1    
   150   76  197 1    
   151   76  198 1    
   152   76  199 1    
   153   77   78 2    
   154   77   79 am   BACKBONE|DICT|INTERRES
   155   79   80 1    
   156   79  200 1    
   157   80   81 1    
   158   80   82 1    
   159   80  201 1    
   160   81  202 1    
   161   81  203 1    
   162   81  204 1    
   163   82   83 2    
   164   82   84 am   BACKBONE|DICT|INTERRES
   165   84   85 1    
   166   84  205 1    
   167   85   86 1    
   168   85   87 1    
   169   85  206 1    
   170   86  207 1    
   171   86  208 1    
   172   86  209 1    
   173   87   88 2    
   174   87   89 am   BACKBONE|DICT|INTERRES
   175   89   90 1    
   176   89  210 1    
   177   90   91 1    
   178   90   92 1    
   179   90  211 1    
   180   91  212 1    
   181   91  213 1    
   182   91  214 1    
   183   92   93 2    
   184   92   94 am   BACKBONE|DICT|INTERRES
   185   94   95 1    
   186   94  215 1    
   187   95   96 1    
   188   95   97 1    
   189   95  216 1    
   190   96  217 1    
   191   96  218 1    
   192   96  219 1    
   193   97   98 2    
   194   97   99 am   BACKBONE|DICT|INTERRES
   195   99  100 1    
   196   99  220 1    
   197  100  101 1    
   198  100  102 1    
   199  100  221 1    
   200  101  222 1    
   201  101  223 1    
   202  101  224 1    
   203  102  103 2    
   204  102  104 am   BACKBONE|DICT|INTERRES
   205  104  105 1    
   206  104  225 1    
   207  105  106 1    
   208  105  107 1    
   209  105  226 1    
   210  106  227 1    
   211  106  228 1    
   212  106  229 1    
   213  107  108 2    
   214  107  109 am   BACKBONE|DICT|INTERRES
   215  109  110 1    
   216  109  230 1    
   217  110  111 1    
   218  110  112 1    
   219  110  231 1    
   220  111  232 1    
   221  111  233 1    
   222  111  234 1    
   223  112  113 2    
   224  112  114 am   BACKBONE|DICT|INTERRES
   225  114  115 1    
   226  114  235 1    
   227  115  116 1    
   228  115  117 1    
   229  115  236 1    
   230  116  237 1    
   231  116  238 1    
   232  116  239 1    
   233  117  118 2    
   234  117  119 am   BACKBONE|DICT|INTERRES
   235  119  120 1    
   236  119  240 1    
   237  120  121 1    
   238  120  124 1    
   239  120  241 1    
   240  121  122 am   BACKBONE|DICT|INTERRES
   241  121  123 2    
   242  122  242 1    
   243  122  243 1    
   244  124  125 1    
   245  124  244 1    
   246  124  245 1    
   247  125  126 1    
   248  126  246 1    
   249  126  247 1    
@<TRIPOS>SUBSTRUCTURE
     1 UNK         1 GROUP             0       ****    0 ROOT    
