@<TRIPOS>MOLECULE
3R540
247   249    1
SMALL
USER_CHARGES


@<TRIPOS>ATOM
      1 CA         -0.9603  -14.4706  -43.8708 C.3       0 UNK        -0.1800 
      2 C          -0.3663  -13.6828  -45.0275 C.2       0 UNK         0.5000 
      3 O          -0.9764  -12.7162  -45.4848 O.2       0 UNK        -0.5000 
      4 N           0.8089  -14.1047  -45.5062 N.am      1 UNK        -0.5000 
      5 CA          1.5031  -13.5151  -46.6529 C.3       1 UNK         0.1400 
      6 C6          2.0796  -14.5874  -47.6086 C.3       23 UNK        -0.0398 
      7 S7          0.7973  -15.6643  -48.3299 S.3       23 UNK        -0.2404 
      8 C8          1.6562  -16.2239  -49.8315 C.3       23 UNK        -0.0205 
      9 C9          0.9475  -17.4035  -50.4786 C.ar      23 UNK        -0.0193 
     10 C10        -0.2384  -17.2102  -51.1924 C.ar      23 UNK        -0.1150 
     11 C11        -0.8797  -18.2894  -51.8068 C.ar      23 UNK        -0.0193 
     12 C12        -0.3248  -19.5676  -51.7018 C.ar      23 UNK        -0.1150 
     13 C13         0.8459  -19.7845  -50.9688 C.ar      23 UNK        -0.0193 
     14 C14         1.4838  -18.6901  -50.3718 C.ar      23 UNK        -0.1150 
     15 C15         1.3974  -21.2037  -50.8462 C.3       23 UNK        -0.0205 
     16 S16         2.1123  -21.5716  -49.2068 S.3       23 UNK        -0.2404 
     17 C17         1.7826  -23.3648  -49.0332 C.3       23 UNK        -0.0398 
     18 CA          0.7012  -23.6996  -47.9727 C.3       11 UNK         0.1400 
     19 N           0.9652  -23.0323  -46.6961 N.am      11 UNK        -0.5000 
     20 C           0.3181  -23.2565  -45.5457 C.2       10 UNK         0.5000 
     21 O          -0.5407  -24.1245  -45.4002 O.2       10 UNK        -0.5000 
     22 CA          0.6488  -22.3046  -44.3798 C.3       10 UNK         0.1400 
     23 CB          1.8427  -22.8309  -43.5705 C.3       10 UNK        -0.1800 
     24 N           0.9265  -20.9318  -44.8152 N.am      10 UNK        -0.5000 
     25 C           0.0612  -20.1485  -45.4765 C.2       9 UNK         0.5000 
     26 O          -1.0705  -20.5180  -45.7886 O.2       9 UNK        -0.5000 
     27 CA          0.5223  -18.7322  -45.8634 C.3       9 UNK         0.1400 
     28 CB         -0.5109  -17.6895  -45.4105 C.3       9 UNK        -0.1800 
     29 N           1.8225  -18.3988  -45.2768 N.am      9 UNK        -0.5000 
     30 C           2.9623  -18.2179  -45.9607 C.2       8 UNK         0.5000 
     31 O           3.0483  -18.3420  -47.1815 O.2       8 UNK        -0.5000 
     32 CA          4.2355  -17.8793  -45.1490 C.3       8 UNK         0.1400 
     33 CB          5.1276  -16.8255  -45.8396 C.3       8 UNK        -0.1800 
     34 N           3.9842  -17.5161  -43.7492 N.am      8 UNK        -0.5000 
     35 C           3.3109  -16.4519  -43.2942 C.2       7 UNK         0.5000 
     36 O           2.8310  -15.5676  -44.0092 O.2       7 UNK        -0.5000 
     37 CA          3.0946  -16.4027  -41.7749 C.3       7 UNK         0.1400 
     38 CB          3.8181  -15.2093  -41.1414 C.3       7 UNK        -0.1800 
     39 N           1.6713  -16.3385  -41.4581 N.am      7 UNK        -0.5000 
     40 C           0.8038  -17.3398  -41.6632 C.2       6 UNK         0.5000 
     41 O           1.1183  -18.3974  -42.2149 O.2       6 UNK        -0.5000 
     42 CA         -0.6536  -17.1263  -41.1936 C.3       6 UNK         0.1400 
     43 CB         -1.3013  -18.4342  -40.6948 C.3       6 UNK        -0.1800 
     44 N          -0.8231  -16.0513  -40.2059 N.am      6 UNK        -0.5000 
     45 C          -0.2975  -15.9616  -38.9748 C.2       5 UNK         0.5000 
     46 O           0.4365  -16.8221  -38.4864 O.2       5 UNK        -0.5000 
     47 CA         -0.6372  -14.6869  -38.1631 C.3       5 UNK         0.1400 
     48 CB          0.3025  -14.4886  -36.9596 C.3       5 UNK        -0.1800 
     49 N          -0.6230  -13.4590  -38.9659 N.am      5 UNK        -0.5000 
     50 C          -1.5740  -13.0644  -39.8225 C.2       4 UNK         0.5000 
     51 O          -2.5932  -13.7180  -40.0458 O.2       4 UNK        -0.5000 
     52 CA         -1.3461  -11.7439  -40.5850 C.3       4 UNK         0.1400 
     53 CB         -2.1277  -10.6035  -39.9150 C.3       4 UNK        -0.1800 
     54 N           0.0538  -11.3307  -40.7388 N.am      4 UNK        -0.5000 
     55 C           1.0159  -12.0319  -41.3513 C.2       3 UNK         0.5000 
     56 O           0.8883  -13.1978  -41.7345 O.2       3 UNK        -0.5000 
     57 CA          2.3532  -11.3120  -41.5608 C.3       3 UNK         0.1400 
     58 CB          3.2353  -11.4151  -40.3021 C.3       3 UNK        -0.1800 
     59 N           3.0048  -11.9297  -42.7087 N.am      3 UNK        -0.5000 
     60 C           4.0459  -11.4530  -43.3979 C.2       2 UNK         0.5000 
     61 O           4.6174  -10.3946  -43.1338 O.2       2 UNK        -0.5000 
     62 CA          4.5228  -12.2973  -44.5934 C.3       2 UNK         0.1400 
     63 CB          5.6295  -13.2718  -44.1617 C.3       2 UNK        -0.1800 
     64 N           3.4288  -13.0565  -45.2022 N.am      2 UNK        -0.5000 
     65 C           2.6178  -12.5782  -46.1564 C.2       1 UNK         0.5000 
     66 O           2.7184  -11.4478  -46.6356 O.2       1 UNK        -0.5000 
     67 C          -0.7260  -23.4167  -48.4897 C.2       11 UNK         0.5000 
     68 O          -1.4253  -24.3509  -48.8823 O.2       11 UNK        -0.5000 
     69 N          -1.1453  -22.1439  -48.4337 N.am      12 UNK        -0.5000 
     70 CA         -2.4798  -21.6846  -48.8176 C.3       12 UNK         0.1400 
     71 CB         -2.5167  -20.1482  -48.8440 C.3       12 UNK        -0.1800 
     72 C          -3.5641  -22.2246  -47.8738 C.2       12 UNK         0.5000 
     73 O          -4.6271  -22.6243  -48.3418 O.2       12 UNK        -0.5000 
     74 N          -3.2683  -22.2523  -46.5681 N.am      13 UNK        -0.5000 
     75 CA         -4.1427  -22.8050  -45.5356 C.3       13 UNK         0.1400 
     76 CB         -3.5775  -22.4576  -44.1499 C.3       13 UNK        -0.1800 
     77 C          -4.3490  -24.3250  -45.6816 C.2       13 UNK         0.5000 
     78 O          -5.4710  -24.8025  -45.5089 O.2       13 UNK        -0.5000 
     79 N          -3.2698  -25.0521  -46.0007 N.am      14 UNK        -0.5000 
     80 CA         -3.2720  -26.5025  -46.1725 C.3       14 UNK         0.1400 
     81 CB         -1.8306  -27.0310  -46.0932 C.3       14 UNK        -0.1800 
     82 C          -3.9443  -26.9537  -47.4805 C.2       14 UNK         0.5000 
     83 O          -4.8249  -27.8143  -47.4415 O.2       14 UNK        -0.5000 
     84 N          -3.4995  -26.3964  -48.6147 N.am      15 UNK        -0.5000 
     85 CA         -3.8916  -26.8562  -49.9501 C.3       15 UNK         0.1400 
     86 CB         -2.7098  -26.6474  -50.9094 C.3       15 UNK        -0.1800 
     87 C          -5.1540  -26.1722  -50.5046 C.2       15 UNK         0.5000 
     88 O          -5.7223  -26.6895  -51.4659 O.2       15 UNK        -0.5000 
     89 N          -5.5525  -25.0412  -49.9033 N.am      16 UNK        -0.5000 
     90 CA         -6.5307  -24.0484  -50.3642 C.3       16 UNK         0.1400 
     91 CB         -7.8584  -24.6667  -50.8460 C.3       16 UNK        -0.1800 
     92 C          -5.9095  -23.1330  -51.4341 C.2       16 UNK         0.5000 
     93 O          -5.3160  -23.6179  -52.3997 O.2       16 UNK        -0.5000 
     94 N          -6.0804  -21.8146  -51.2634 N.am      17 UNK        -0.5000 
     95 CA         -5.5329  -20.7667  -52.1350 C.3       17 UNK         0.1400 
     96 CB         -5.8884  -19.3910  -51.5526 C.3       17 UNK        -0.1800 
     97 C          -5.9904  -20.8628  -53.6036 C.2       17 UNK         0.5000 
     98 O          -5.2423  -20.4746  -54.5006 O.2       17 UNK        -0.5000 
     99 N          -7.1954  -21.4076  -53.8213 N.am      18 UNK        -0.5000 
    100 CA        -7.7679  -21.6894  -55.1378 C.3       18 UNK         0.1400 
    101 CB        -9.2332  -22.1165  -54.9643 C.3       18 UNK        -0.1800 
    102 C         -6.9853  -22.7569  -55.9280 C.2       18 UNK         0.5000 
    103 O         -6.9331  -22.6775  -57.1557 O.2       18 UNK        -0.5000 
    104 N         -6.3884  -23.7234  -55.2170 N.am      19 UNK        -0.5000 
    105 CA        -5.5191  -24.7480  -55.7910 C.3       19 UNK         0.1400 
    106 CB        -5.6635  -26.0497  -54.9900 C.3       19 UNK        -0.1800 
    107 C         -4.0564  -24.2783  -55.8014 C.2       19 UNK         0.5000 
    108 O         -3.3560  -24.4908  -56.7924 O.2       19 UNK        -0.5000 
    109 N         -3.6228  -23.6262  -54.7138 N.am      20 UNK        -0.5000 
    110 CA        -2.2720  -23.1033  -54.5067 C.3       20 UNK         0.1400 
    111 CB        -2.0189  -22.9597  -52.9957 C.3       20 UNK        -0.1800 
    112 C         -2.0061  -21.7961  -55.2851 C.2       20 UNK         0.5000 
    113 O         -1.6304  -20.7866  -54.6902 O.2       20 UNK        -0.5000 
    114 N         -2.1946  -21.8528  -56.6091 N.am      21 UNK        -0.5000 
    115 CA        -1.8762  -20.8663  -57.6496 C.3       21 UNK         0.1400 
    116 CB        -0.3611  -20.5888  -57.6888 C.3       21 UNK        -0.1800 
    117 C         -2.6668  -19.5414  -57.6255 C.2       21 UNK         0.5000 
    118 O         -2.9331  -19.0013  -58.7007 O.2       21 UNK        -0.5000 
    119 N         -3.0035  -19.0201  -56.4410 N.am      22 UNK        -0.5000 
    120 CA        -3.6723  -17.7195  -56.2602 C.3       22 UNK         0.1400 
    121 C         -5.1256  -17.6682  -56.8079 C.2       22 UNK         0.5000 
    122 N         -5.9008  -18.7356  -56.6788 N.am      22 UNK        -0.7600 
    123 O         -5.5487  -16.6540  -57.3562 O.2       22 UNK        -0.5000 
    124 C124       -3.6403  -17.2336  -54.7905 C.3       23 UNK        -0.0398 
    125 S125       -1.9532  -17.1568  -54.0979 S.3       23 UNK        -0.2404 
    126 C126       -2.1894  -18.0846  -52.5517 C.3       23 UNK        -0.0205 
    127 H127       -1.3647  -13.7965  -43.1168 H         1 UNK         0.0600 
    128 H128       -0.2036  -15.0946  -43.3982 H         1 UNK         0.0600 
    129 H129       -1.7678  -15.1109  -44.2250 H         1 UNK         0.0600 
    130 H130        1.2980  -14.8628  -45.0410 H         1 UNK         0.3000 
    131 H131        0.8072  -12.9068  -47.2348 H         1 UNK         0.0600 
    132 H132        2.6261  -14.1076  -48.4228 H         1 UNK         0.0800 
    133 H133        2.7943  -15.2263  -47.0906 H         1 UNK         0.0800 
    134 H134        1.7221  -15.3990  -50.5423 H         1 UNK         0.0800 
    135 H135        2.6814  -16.4978  -49.5757 H         1 UNK         0.0800 
    136 H136       -0.6630  -16.2191  -51.2693 H         1 UNK         0.1150 
    137 H137       -0.8228  -20.4007  -52.1749 H         1 UNK         0.1150 
    138 H138        2.3975  -18.8376  -49.8134 H         1 UNK         0.1150 
    139 H139        0.5985  -21.9178  -51.0494 H         1 UNK         0.0800 
    140 H140        2.1582  -21.3593  -51.6119 H         1 UNK         0.0800 
    141 H141        1.5349  -23.8058  -50.0004 H         1 UNK         0.0800 
    142 H142        2.7217  -23.8345  -48.7381 H         1 UNK         0.0800 
    143 H143        0.7535  -24.7743  -47.7849 H         1 UNK         0.0600 
    144 H144        1.6427  -22.2842  -46.7263 H         1 UNK         0.3000 
    145 H145       -0.2222  -22.2729  -43.7225 H         1 UNK         0.0600 
    146 H146        2.0297  -22.2089  -42.6948 H         1 UNK         0.0600 
    147 H147        1.6555  -23.8447  -43.2139 H         1 UNK         0.0600 
    148 H148        2.7554  -22.8555  -44.1672 H         1 UNK         0.0600 
    149 H149        1.8326  -20.5537  -44.5845 H         1 UNK         0.3000 
    150 H150        0.5749  -18.7031  -46.9540 H         1 UNK         0.0600 
    151 H151       -0.1915  -16.6856  -45.6802 H         1 UNK         0.0600 
    152 H152       -0.6685  -17.7179  -44.3331 H         1 UNK         0.0600 
    153 H153       -1.4762  -17.8576  -45.8895 H         1 UNK         0.0600 
    154 H154        1.8361  -18.2970  -44.2682 H         1 UNK         0.3000 
    155 H155        4.8067  -18.8080  -45.1155 H         1 UNK         0.0600 
    156 H156        5.3874  -17.1299  -46.8540 H         1 UNK         0.0600 
    157 H157        6.0626  -16.6903  -45.2961 H         1 UNK         0.0600 
    158 H158        4.6429  -15.8533  -45.9054 H         1 UNK         0.0600 
    159 H159        4.3140  -18.1894  -43.0713 H         1 UNK         0.3000 
    160 H160        3.4955  -17.3129  -41.3238 H         1 UNK         0.0600 
    161 H161        3.4724  -14.2695  -41.5634 H         1 UNK         0.0600 
    162 H162        4.8940  -15.2703  -41.3079 H         1 UNK         0.0600 
    163 H163        3.6557  -15.1737  -40.0640 H         1 UNK         0.0600 
    164 H164        1.3250  -15.4620  -41.0914 H         1 UNK         0.3000 
    165 H165       -1.2111  -16.8107  -42.0751 H         1 UNK         0.0600 
    166 H166       -0.7589  -18.8576  -39.8490 H         1 UNK         0.0600 
    167 H167       -2.3331  -18.2700  -40.3842 H         1 UNK         0.0600 
    168 H168       -1.3184  -19.1891  -41.4820 H         1 UNK         0.0600 
    169 H169       -1.4298  -15.2885  -40.4878 H         1 UNK         0.3000 
    170 H170       -1.6468  -14.8279  -37.7719 H         1 UNK         0.0600 
    171 H171        0.2629  -15.3431  -36.2827 H         1 UNK         0.0600 
    172 H172        1.3390  -14.3660  -37.2763 H         1 UNK         0.0600 
    173 H173        0.0218  -13.6087  -36.3804 H         1 UNK         0.0600 
    174 H174        0.1973  -12.8778  -38.8787 H         1 UNK         0.3000 
    175 H175       -1.7512  -11.8844  -41.5890 H         1 UNK         0.0600 
    176 H176       -1.7426  -10.3845  -38.9183 H         1 UNK         0.0600 
    177 H177       -2.0759   -9.6882  -40.5049 H         1 UNK         0.0600 
    178 H178       -3.1831  -10.8594  -39.8101 H         1 UNK         0.0600 
    179 H179        0.2671  -10.3922  -40.4327 H         1 UNK         0.3000 
    180 H180        2.1577  -10.2628  -41.7912 H         1 UNK         0.0600 
    181 H181        3.4372  -12.4513  -40.0312 H         1 UNK         0.0600 
    182 H182        2.7501  -10.9437  -39.4468 H         1 UNK         0.0600 
    183 H183        4.1932  -10.9145  -40.4420 H         1 UNK         0.0600 
    184 H184        2.5628  -12.7908  -43.0072 H         1 UNK         0.3000 
    185 H185        4.9484  -11.6155  -45.3329 H         1 UNK         0.0600 
    186 H186        6.0254  -13.8202  -45.0164 H         1 UNK         0.0600 
    187 H187        6.4634  -12.7386  -43.7035 H         1 UNK         0.0600 
    188 H188        5.2672  -13.9998  -43.4368 H         1 UNK         0.0600 
    189 H189        3.2616  -13.9895  -44.8318 H         1 UNK         0.3000 
    190 H190       -0.5225  -21.4473  -48.0520 H         1 UNK         0.3000 
    191 H191       -2.6843  -22.0534  -49.8252 H         1 UNK         0.0600 
    192 H192       -3.4242  -19.7924  -49.3315 H         1 UNK         0.0600 
    193 H193       -1.6704  -19.7345  -49.3864 H         1 UNK         0.0600 
    194 H194       -2.4980  -19.7198  -47.8418 H         1 UNK         0.0600 
    195 H195       -2.3918  -21.8384  -46.2623 H         1 UNK         0.3000 
    196 H196       -5.1187  -22.3252  -45.6337 H         1 UNK         0.0600 
    197 H197       -4.2425  -22.8068  -43.3592 H         1 UNK         0.0600 
    198 H198       -3.4630  -21.3801  -44.0287 H         1 UNK         0.0600 
    199 H199       -2.6032  -22.9175  -43.9855 H         1 UNK         0.0600 
    200 H200       -2.3688  -24.5889  -46.0657 H         1 UNK         0.3000 
    201 H201       -3.8311  -26.9426  -45.3439 H         1 UNK         0.0600 
    202 H202       -1.3866  -26.8145  -45.1214 H         1 UNK         0.0600 
    203 H203       -1.1931  -26.5840  -46.8571 H         1 UNK         0.0600 
    204 H204       -1.8010  -28.1127  -46.2299 H         1 UNK         0.0600 
    205 H205       -2.7757  -25.6824  -48.5762 H         1 UNK         0.3000 
    206 H206       -4.0972  -27.9283  -49.9153 H         1 UNK         0.0600 
    207 H207       -1.8262  -27.1892  -50.5720 H         1 UNK         0.0600 
    208 H208       -2.9479  -27.0027  -51.9129 H         1 UNK         0.0600 
    209 H209       -2.4461  -25.5941  -50.9890 H         1 UNK         0.0600 
    210 H210       -4.9876  -24.7182  -49.1279 H         1 UNK         0.3000 
    211 H211       -6.7676  -23.4430  -49.4890 H         1 UNK         0.0600 
    212 H212       -7.7552  -25.1661  -51.8098 H         1 UNK         0.0600 
    213 H213       -8.6188  -23.8948  -50.9682 H         1 UNK         0.0600 
    214 H214       -8.2422  -25.3913  -50.1279 H         1 UNK         0.0600 
    215 H215       -6.5735  -21.4957  -50.4417 H         1 UNK         0.3000 
    216 H216       -4.4470  -20.8638  -52.1258 H         1 UNK         0.0600 
    217 H217       -5.4644  -18.5877  -52.1557 H         1 UNK         0.0600 
    218 H218       -5.4982  -19.2754  -50.5417 H         1 UNK         0.0600 
    219 H219       -6.9676  -19.2375  -51.5149 H         1 UNK         0.0600 
    220 H220       -7.7405  -21.6896  -53.0203 H         1 UNK         0.3000 
    221 H221       -7.7490  -20.7657  -55.7187 H         1 UNK         0.0600 
    222 H222       -9.6996  -22.3134  -55.9306 H         1 UNK         0.0600 
    223 H223       -9.3200  -23.0250  -54.3667 H         1 UNK         0.0600 
    224 H224       -9.8170  -21.3357  -54.4765 H         1 UNK         0.0600 
    225 H225       -6.4266  -23.6844  -54.2059 H         1 UNK         0.3000 
    226 H226       -5.8179  -24.9545  -56.8210 H         1 UNK         0.0600 
    227 H227       -6.6969  -26.3961  -54.9800 H         1 UNK         0.0600 
    228 H228       -5.0561  -26.8445  -55.4243 H         1 UNK         0.0600 
    229 H229       -5.3434  -25.9216  -53.9562 H         1 UNK         0.0600 
    230 H230       -4.2645  -23.5166  -53.9325 H         1 UNK         0.3000 
    231 H231       -1.5617  -23.8426  -54.8822 H         1 UNK         0.0600 
    232 H232       -0.9803  -22.6937  -52.7999 H         1 UNK         0.0600 
    233 H233       -2.2154  -23.8946  -52.4746 H         1 UNK         0.0600 
    234 H234       -2.6490  -22.1922  -52.5494 H         1 UNK         0.0600 
    235 H235       -2.5596  -22.7344  -56.9587 H         1 UNK         0.3000 
    236 H236       -2.1383  -21.3550  -58.5893 H         1 UNK         0.0600 
    237 H237       -0.0159  -20.0946  -56.7800 H         1 UNK         0.0600 
    238 H238        0.2070  -21.5117  -57.8064 H         1 UNK         0.0600 
    239 H239       -0.1048  -19.9409  -58.5279 H         1 UNK         0.0600 
    240 H240       -2.7109  -19.5120  -55.6017 H         1 UNK         0.3000 
    241 H241       -3.1010  -16.9956  -56.8448 H         1 UNK         0.0600 
    242 H242       -5.5730  -19.5256  -56.1300 H         1 UNK         0.3800 
    243 H243       -6.8397  -18.7176  -57.0414 H         1 UNK         0.3800 
    244 H244       -4.2623  -17.8822  -54.1725 H         1 UNK         0.0800 
    245 H245       -4.0735  -16.2350  -54.7116 H         1 UNK         0.0800 
    246 H246       -2.6504  -19.0473  -52.7792 H         1 UNK         0.0800 
    247 H247       -2.8898  -17.5485  -51.9096 H         1 UNK         0.0800 
@<TRIPOS>BOND
     1    1    2 1    
     2    1  127 1    
     3    1  128 1    
     4    1  129 1    
     5    2    3 2    
     6    2    4 am   BACKBONE|DICT|INTERRES
     7    4    5 1    
     8    4  130 1    
     9    5    6 1    
    10    5   65 1    
    11    5  131 1    
    12    6    7 1    
    13    6  132 1    
    14    6  133 1    
    15    7    8 1    
    16    8    9 1    
    17    8  134 1    
    18    8  135 1    
    19    9   10 ar   
    20    9   14 ar   
    21   10   11 ar   
    22   10  136 1    
    23   11   12 ar   
    24   11  126 1    
    25   12   13 ar   
    26   12  137 1    
    27   13   14 ar   
    28   13   15 1    
    29   14  138 1    
    30   15   16 1    
    31   15  139 1    
    32   15  140 1    
    33   16   17 1    
    34   17   18 1    
    35   17  141 1    
    36   17  142 1    
    37   18   19 1    
    38   18   67 1    
    39   18  143 1    
    40   19   20 am   BACKBONE|DICT|INTERRES
    41   19  144 1    
    42   20   21 2    
    43   20   22 1    
    44   22   23 1    
    45   22   24 1    
    46   22  145 1    
    47   23  146 1    
    48   23  147 1    
    49   23  148 1    
    50   24   25 am   BACKBONE|DICT|INTERRES
    51   24  149 1    
    52   25   26 2    
    53   25   27 1    
    54   27   28 1    
    55   27   29 1    
    56   27  150 1    
    57   28  151 1    
    58   28  152 1    
    59   28  153 1    
    60   29   30 am   BACKBONE|DICT|INTERRES
    61   29  154 1    
    62   30   31 2    
    63   30   32 1    
    64   32   33 1    
    65   32   34 1    
    66   32  155 1    
    67   33  156 1    
    68   33  157 1    
    69   33  158 1    
    70   34   35 am   BACKBONE|DICT|INTERRES
    71   34  159 1    
    72   35   36 2    
    73   35   37 1    
    74   37   38 1    
    75   37   39 1    
    76   37  160 1    
    77   38  161 1    
    78   38  162 1    
    79   38  163 1    
    80   39   40 am   BACKBONE|DICT|INTERRES
    81   39  164 1    
    82   40   41 2    
    83   40   42 1    
    84   42   43 1    
    85   42   44 1    
    86   42  165 1    
    87   43  166 1    
    88   43  167 1    
    89   43  168 1    
    90   44   45 am   BACKBONE|DICT|INTERRES
    91   44  169 1    
    92   45   46 2    
    93   45   47 1    
    94   47   48 1    
    95   47   49 1    
    96   47  170 1    
    97   48  171 1    
    98   48  172 1    
    99   48  173 1    
   100   49   50 am   BACKBONE|DICT|INTERRES
   101   49  174 1    
   102   50   51 2    
   103   50   52 1    
   104   52   53 1    
   105   52   54 1    
   106   52  175 1    
   107   53  176 1    
   108   53  177 1    
   109   53  178 1    
   110   54   55 am   BACKBONE|DICT|INTERRES
   111   54  179 1    
   112   55   56 2    
   113   55   57 1    
   114   57   58 1    
   115   57   59 1    
   116   57  180 1    
   117   58  181 1    
   118   58  182 1    
   119   58  183 1    
   120   59   60 am   BACKBONE|DICT|INTERRES
   121   59  184 1    
   122   60   61 2    
   123   60   62 1    
   124   62   63 1    
   125   62   64 1    
   126   62  185 1    
   127   63  186 1    
   128   63  187 1    
   129   63  188 1    
   130   64   65 am   BACKBONE|DICT|INTERRES
   131   64  189 1    
   132   65   66 2    
   133   67   68 2    
   134   67   69 am   BACKBONE|DICT|INTERRES
   135   69   70 1    
   136   69  190 1    
   137   70   71 1    
   138   70   72 1    
   139   70  191 1    
   140   71  192 1    
   141   71  193 1    
   142   71  194 1    
   143   72   73 2    
   144   72   74 am   BACKBONE|DICT|INTERRES
   145   74   75 1    
   146   74  195 1    
   147   75   76 1    
   148   75   77 1    
   149   75  196 1    
   150   76  197 1    
   151   76  198 1    
   152   76  199 1    
   153   77   78 2    
   154   77   79 am   BACKBONE|DICT|INTERRES
   155   79   80 1    
   156   79  200 1    
   157   80   81 1    
   158   80   82 1    
   159   80  201 1    
   160   81  202 1    
   161   81  203 1    
   162   81  204 1    
   163   82   83 2    
   164   82   84 am   BACKBONE|DICT|INTERRES
   165   84   85 1    
   166   84  205 1    
   167   85   86 1    
   168   85   87 1    
   169   85  206 1    
   170   86  207 1    
   171   86  208 1    
   172   86  209 1    
   173   87   88 2    
   174   87   89 am   BACKBONE|DICT|INTERRES
   175   89   90 1    
   176   89  210 1    
   177   90   91 1    
   178   90   92 1    
   179   90  211 1    
   180   91  212 1    
   181   91  213 1    
   182   91  214 1    
   183   92   93 2    
   184   92   94 am   BACKBONE|DICT|INTERRES
   185   94   95 1    
   186   94  215 1    
   187   95   96 1    
   188   95   97 1    
   189   95  216 1    
   190   96  217 1    
   191   96  218 1    
   192   96  219 1    
   193   97   98 2    
   194   97   99 am   BACKBONE|DICT|INTERRES
   195   99  100 1    
   196   99  220 1    
   197  100  101 1    
   198  100  102 1    
   199  100  221 1    
   200  101  222 1    
   201  101  223 1    
   202  101  224 1    
   203  102  103 2    
   204  102  104 am   BACKBONE|DICT|INTERRES
   205  104  105 1    
   206  104  225 1    
   207  105  106 1    
   208  105  107 1    
   209  105  226 1    
   210  106  227 1    
   211  106  228 1    
   212  106  229 1    
   213  107  108 2    
   214  107  109 am   BACKBONE|DICT|INTERRES
   215  109  110 1    
   216  109  230 1    
   217  110  111 1    
   218  110  112 1    
   219  110  231 1    
   220  111  232 1    
   221  111  233 1    
   222  111  234 1    
   223  112  113 2    
   224  112  114 am   BACKBONE|DICT|INTERRES
   225  114  115 1    
   226  114  235 1    
   227  115  116 1    
   228  115  117 1    
   229  115  236 1    
   230  116  237 1    
   231  116  238 1    
   232  116  239 1    
   233  117  118 2    
   234  117  119 am   BACKBONE|DICT|INTERRES
   235  119  120 1    
   236  119  240 1    
   237  120  121 1    
   238  120  124 1    
   239  120  241 1    
   240  121  122 am   BACKBONE|DICT|INTERRES
   241  121  123 2    
   242  122  242 1    
   243  122  243 1    
   244  124  125 1    
   245  124  244 1    
   246  124  245 1    
   247  125  126 1    
   248  126  246 1    
   249  126  247 1    
@<TRIPOS>SUBSTRUCTURE
     1 UNK         1 GROUP             0       ****    0 ROOT    
