@<TRIPOS>MOLECULE
3R540
247   249    1
SMALL
USER_CHARGES


@<TRIPOS>ATOM
      1 CA         -1.4582  -16.4458  -40.4927 C.3       0 UNK        -0.1800 
      2 C          -2.1097  -15.7660  -41.6895 C.2       0 UNK         0.5000 
      3 O          -3.2589  -15.3340  -41.5963 O.2       0 UNK        -0.5000 
      4 N          -1.3849  -15.6775  -42.8117 N.am      1 UNK        -0.5000 
      5 CA         -1.7918  -14.9495  -44.0183 C.3       1 UNK         0.1400 
      6 C6         -0.8380  -15.2425  -45.2031 C.3       23 UNK        -0.0398 
      7 S7         -0.9306  -16.9586  -45.8000 S.3       23 UNK        -0.2404 
      8 C8          0.0825  -16.7853  -47.3019 C.3       23 UNK        -0.0205 
      9 C9          0.2003  -18.0977  -48.0580 C.ar      23 UNK        -0.0193 
     10 C10        -0.7216  -18.4279  -49.0545 C.ar      23 UNK        -0.1150 
     11 C11        -0.6145  -19.6373  -49.7483 C.ar      23 UNK        -0.0193 
     12 C12         0.4333  -20.5145  -49.4464 C.ar      23 UNK        -0.1150 
     13 C13         1.3683  -20.1895  -48.4577 C.ar      23 UNK        -0.0193 
     14 C14         1.2406  -18.9808  -47.7663 C.ar      23 UNK        -0.1150 
     15 C15         2.5407  -21.1150  -48.1608 C.3       23 UNK        -0.0205 
     16 S16         2.5322  -21.7240  -46.4408 S.3       23 UNK        -0.2404 
     17 C17         2.1356  -23.4954  -46.6218 C.3       23 UNK        -0.0398 
     18 CA          0.7399  -23.9082  -46.0998 C.3       11 UNK         0.1400 
     19 N           0.5010  -23.5417  -44.7010 N.am      11 UNK        -0.5000 
     20 C          -0.3831  -24.1746  -43.9159 C.2       10 UNK         0.5000 
     21 O          -1.0478  -25.1450  -44.2824 O.2       10 UNK        -0.5000 
     22 CA         -0.6026  -23.5908  -42.5074 C.3       10 UNK         0.1400 
     23 CB          0.5542  -23.9706  -41.5707 C.3       10 UNK        -0.1800 
     24 N          -0.7675  -22.1356  -42.5107 N.am      10 UNK        -0.5000 
     25 C          -1.7259  -21.4743  -43.1746 C.2       9 UNK         0.5000 
     26 O          -2.5967  -22.0404  -43.8351 O.2       9 UNK        -0.5000 
     27 CA         -1.7244  -19.9320  -43.1071 C.3       9 UNK         0.1400 
     28 CB         -2.9740  -19.4289  -42.3682 C.3       9 UNK        -0.1800 
     29 N          -0.5299  -19.3353  -42.4982 N.am      9 UNK        -0.5000 
     30 C           0.6952  -19.3508  -43.0405 C.2       8 UNK         0.5000 
     31 O           0.9653  -19.9476  -44.0830 O.2       8 UNK        -0.5000 
     32 CA          1.7996  -18.6303  -42.2406 C.3       8 UNK         0.1400 
     33 CB          2.1508  -19.4256  -40.9720 C.3       8 UNK        -0.1800 
     34 N           3.0213  -18.4467  -43.0230 N.am      8 UNK        -0.5000 
     35 C           3.1879  -17.5352  -43.9888 C.2       7 UNK         0.5000 
     36 O           2.3578  -16.6627  -44.2611 O.2       7 UNK        -0.5000 
     37 CA          4.5171  -17.6067  -44.7634 C.3       7 UNK         0.1400 
     38 CB          4.6808  -18.9651  -45.4826 C.3       7 UNK        -0.1800 
     39 N           4.5703  -16.4897  -45.7043 N.am      7 UNK        -0.5000 
     40 C           5.5401  -16.2026  -46.5811 C.2       6 UNK         0.5000 
     41 O           6.5653  -16.8682  -46.7313 O.2       6 UNK        -0.5000 
     42 CA          5.3442  -14.9191  -47.4053 C.3       6 UNK         0.1400 
     43 CB          4.1211  -15.0234  -48.3328 C.3       6 UNK        -0.1800 
     44 N           5.2153  -13.7553  -46.5288 N.am      6 UNK        -0.5000 
     45 C           6.2407  -13.2136  -45.8509 C.2       5 UNK         0.5000 
     46 O           7.4089  -13.5840  -45.9762 O.2       5 UNK        -0.5000 
     47 CA          5.9313  -12.0654  -44.8683 C.3       5 UNK         0.1400 
     48 CB          6.2624  -10.7079  -45.5076 C.3       5 UNK        -0.1800 
     49 N           4.5443  -12.0420  -44.4090 N.am      5 UNK        -0.5000 
     50 C           3.9650  -12.9687  -43.6335 C.2       4 UNK         0.5000 
     51 O           4.5675  -13.9217  -43.1390 O.2       4 UNK        -0.5000 
     52 CA          2.4512  -12.8099  -43.3854 C.3       4 UNK         0.1400 
     53 CB          2.2105  -12.1720  -42.0083 C.3       4 UNK        -0.1800 
     54 N           1.7474  -12.0212  -44.4068 N.am      4 UNK        -0.5000 
     55 C           1.6771  -12.3186  -45.7120 C.2       3 UNK         0.5000 
     56 O           2.2485  -13.2869  -46.2145 O.2       3 UNK        -0.5000 
     57 CA          0.8029  -11.3928  -46.5812 C.3       3 UNK         0.1400 
     58 CB          0.8732  -11.7507  -48.0768 C.3       3 UNK        -0.1800 
     59 N          -0.5865  -11.4822  -46.1405 N.am      3 UNK        -0.5000 
     60 C          -1.1474  -10.7466  -45.1709 C.2       2 UNK         0.5000 
     61 O          -0.5942   -9.7900  -44.6279 O.2       2 UNK        -0.5000 
     62 CA         -2.5237  -11.2308  -44.6706 C.3       2 UNK         0.1400 
     63 CB         -3.6506  -10.7164  -45.5790 C.3       2 UNK        -0.1800 
     64 N          -2.5819  -12.6958  -44.5935 N.am      2 UNK        -0.5000 
     65 C          -1.8241  -13.4273  -43.7625 C.2       1 UNK         0.5000 
     66 O          -1.1184  -12.9347  -42.8793 O.2       1 UNK        -0.5000 
     67 C          -0.3973  -23.4353  -47.0247 C.2       11 UNK         0.5000 
     68 O          -0.6515  -24.0916  -48.0317 O.2       11 UNK        -0.5000 
     69 N          -1.0931  -22.3504  -46.6554 N.am      12 UNK        -0.5000 
     70 CA         -2.2521  -21.8268  -47.3802 C.3       12 UNK         0.1400 
     71 CB         -2.6287  -20.4450  -46.8229 C.3       12 UNK        -0.1800 
     72 C          -3.4467  -22.7946  -47.3429 C.2       12 UNK         0.5000 
     73 O          -4.0962  -23.0093  -48.3686 O.2       12 UNK        -0.5000 
     74 N          -3.6788  -23.3977  -46.1701 N.am      13 UNK        -0.5000 
     75 CA         -4.6621  -24.4564  -45.9599 C.3       13 UNK         0.1400 
     76 CB         -4.8097  -24.7187  -44.4536 C.3       13 UNK        -0.1800 
     77 C          -4.2971  -25.7509  -46.7096 C.2       13 UNK         0.5000 
     78 O          -5.1771  -26.3691  -47.3086 O.2       13 UNK        -0.5000 
     79 N          -3.0091  -26.1244  -46.6807 N.am      14 UNK        -0.5000 
     80 CA         -2.4786  -27.3172  -47.3447 C.3       14 UNK         0.1400 
     81 CB         -1.0517  -27.5921  -46.8473 C.3       14 UNK        -0.1800 
     82 C          -2.5083  -27.2178  -48.8816 C.2       14 UNK         0.5000 
     83 O          -2.8836  -28.1855  -49.5444 O.2       14 UNK        -0.5000 
     84 N          -2.1221  -26.0526  -49.4195 N.am      15 UNK        -0.5000 
     85 CA         -2.1049  -25.7608  -50.8545 C.3       15 UNK         0.1400 
     86 CB         -1.2459  -24.5097  -51.1051 C.3       15 UNK        -0.1800 
     87 C          -3.5066  -25.5562  -51.4556 C.2       15 UNK         0.5000 
     88 O          -3.6576  -25.7073  -52.6675 O.2       15 UNK        -0.5000 
     89 N          -4.4826  -25.2025  -50.6050 N.am      16 UNK        -0.5000 
     90 CA         -5.8366  -24.7540  -50.9339 C.3       16 UNK         0.1400 
     91 CB         -6.6348  -25.8272  -51.7040 C.3       16 UNK        -0.1800 
     92 C          -5.7732  -23.4020  -51.6642 C.2       16 UNK         0.5000 
     93 O          -5.9501  -23.3373  -52.8808 O.2       16 UNK        -0.5000 
     94 N          -5.4760  -22.3520  -50.8884 N.am      17 UNK        -0.5000 
     95 CA         -5.2023  -20.9687  -51.2932 C.3       17 UNK         0.1400 
     96 CB         -5.2261  -20.0945  -50.0325 C.3       17 UNK        -0.1800 
     97 C          -6.1142  -20.3525  -52.3713 C.2       17 UNK         0.5000 
     98 O          -5.6262  -19.5700  -53.1885 O.2       17 UNK        -0.5000 
     99 N          -7.4039  -20.7122  -52.3639 N.am      18 UNK        -0.5000 
    100 CA        -8.3921  -20.2656  -53.3473 C.3       18 UNK         0.1400 
    101 CB        -9.8004  -20.5762  -52.8182 C.3       18 UNK        -0.1800 
    102 C         -8.1909  -20.8914  -54.7421 C.2       18 UNK         0.5000 
    103 O         -8.4831  -20.2379  -55.7439 O.2       18 UNK        -0.5000 
    104 N         -7.6950  -22.1348  -54.7844 N.am      19 UNK        -0.5000 
    105 CA        -7.3854  -22.8704  -56.0103 C.3       19 UNK         0.1400 
    106 CB        -7.6261  -24.3703  -55.7767 C.3       19 UNK        -0.1800 
    107 C         -5.9364  -22.6170  -56.4570 C.2       19 UNK         0.5000 
    108 O         -5.6818  -22.4939  -57.6554 O.2       19 UNK        -0.5000 
    109 N         -5.0181  -22.5196  -55.4849 N.am      20 UNK        -0.5000 
    110 CA        -3.6001  -22.2144  -55.6932 C.3       20 UNK         0.1400 
    111 CB        -2.8287  -22.5530  -54.4097 C.3       20 UNK        -0.1800 
    112 C         -3.3393  -20.7542  -56.1180 C.2       20 UNK         0.5000 
    113 O         -2.2734  -20.4667  -56.6618 O.2       20 UNK        -0.5000 
    114 N         -4.3130  -19.8697  -55.8574 N.am      21 UNK        -0.5000 
    115 CA        -4.3755  -18.4399  -56.1835 C.3       21 UNK         0.1400 
    116 CB        -4.1757  -18.1900  -57.6925 C.3       21 UNK        -0.1800 
    117 C         -3.4753  -17.5373  -55.3148 C.2       21 UNK         0.5000 
    118 O         -3.4922  -16.3195  -55.5021 O.2       21 UNK        -0.5000 
    119 N         -2.7435  -18.1212  -54.3583 N.am      22 UNK        -0.5000 
    120 CA        -2.0002  -17.4043  -53.3094 C.3       22 UNK         0.1400 
    121 C         -2.8891  -16.8619  -52.1517 C.2       22 UNK         0.5000 
    122 N         -4.1647  -17.2195  -52.0595 N.am      22 UNK        -0.7600 
    123 O         -2.4167  -16.0809  -51.3310 O.2       22 UNK        -0.5000 
    124 C124       -0.7712  -18.2031  -52.7899 C.3       23 UNK        -0.0398 
    125 S125       -1.0571  -19.9836  -52.4914 S.3       23 UNK        -0.2404 
    126 C126       -1.6666  -20.0176  -50.7798 C.3       23 UNK        -0.0205 
    127 H127       -1.9917  -17.3622  -40.2416 H         1 UNK         0.0600 
    128 H128       -1.4922  -15.7853  -39.6262 H         1 UNK         0.0600 
    129 H129       -0.4144  -16.6930  -40.6832 H         1 UNK         0.0600 
    130 H130       -0.4430  -16.0381  -42.8304 H         1 UNK         0.3000 
    131 H131       -2.8009  -15.2696  -44.2869 H         1 UNK         0.0600 
    132 H132        0.1967  -15.0254  -44.9296 H         1 UNK         0.0800 
    133 H133       -1.0691  -14.5978  -46.0526 H         1 UNK         0.0800 
    134 H134       -0.3512  -16.0231  -47.9512 H         1 UNK         0.0800 
    135 H135        1.0748  -16.4258  -47.0234 H         1 UNK         0.0800 
    136 H136       -1.5330  -17.7486  -49.2759 H         1 UNK         0.1150 
    137 H137        0.5149  -21.4505  -49.9812 H         1 UNK         0.1150 
    138 H138        1.9466  -18.7260  -46.9903 H         1 UNK         0.1150 
    139 H139        2.5668  -21.9451  -48.8672 H         1 UNK         0.0800 
    140 H140        3.4653  -20.5597  -48.3224 H         1 UNK         0.0800 
    141 H141        2.2634  -23.8125  -47.6578 H         1 UNK         0.0800 
    142 H142        2.8934  -24.0464  -46.0635 H         1 UNK         0.0800 
    143 H143        0.7246  -24.9985  -46.1483 H         1 UNK         0.0600 
    144 H144        0.9853  -22.7230  -44.3574 H         1 UNK         0.3000 
    145 H145       -1.5213  -24.0270  -42.1098 H         1 UNK         0.0600 
    146 H146        0.3580  -23.6434  -40.5495 H         1 UNK         0.0600 
    147 H147        0.6945  -25.0520  -41.5427 H         1 UNK         0.0600 
    148 H148        1.4970  -23.5249  -41.8905 H         1 UNK         0.0600 
    149 H149       -0.0890  -21.5978  -41.9938 H         1 UNK         0.3000 
    150 H150       -1.7786  -19.5732  -44.1360 H         1 UNK         0.0600 
    151 H151       -3.0869  -18.3516  -42.4764 H         1 UNK         0.0600 
    152 H152       -2.9371  -19.6645  -41.3041 H         1 UNK         0.0600 
    153 H153       -3.8809  -19.8808  -42.7726 H         1 UNK         0.0600 
    154 H154       -0.6675  -18.8793  -41.6094 H         1 UNK         0.3000 
    155 H155        1.4262  -17.6475  -41.9478 H         1 UNK         0.0600 
    156 H156        1.2846  -19.5369  -40.3187 H         1 UNK         0.0600 
    157 H157        2.9243  -18.9206  -40.3928 H         1 UNK         0.0600 
    158 H158        2.5125  -20.4266  -41.2114 H         1 UNK         0.0600 
    159 H159        3.7392  -19.1427  -42.8881 H         1 UNK         0.3000 
    160 H160        5.3243  -17.4814  -44.0397 H         1 UNK         0.0600 
    161 H161        4.0489  -19.0285  -46.3659 H         1 UNK         0.0600 
    162 H162        4.4285  -19.8072  -44.8380 H         1 UNK         0.0600 
    163 H163        5.7092  -19.1250  -45.8039 H         1 UNK         0.0600 
    164 H164        3.7684  -15.8738  -45.6304 H         1 UNK         0.3000 
    165 H165        6.2259  -14.7825  -48.0354 H         1 UNK         0.0600 
    166 H166        3.1968  -15.1874  -47.7789 H         1 UNK         0.0600 
    167 H167        3.9972  -14.1166  -48.9249 H         1 UNK         0.0600 
    168 H168        4.2333  -15.8551  -49.0293 H         1 UNK         0.0600 
    169 H169        4.2726  -13.4217  -46.3572 H         1 UNK         0.3000 
    170 H170        6.5732  -12.1997  -43.9952 H         1 UNK         0.0600 
    171 H171        7.3021  -10.6733  -45.8358 H         1 UNK         0.0600 
    172 H172        5.6366  -10.5104  -46.3789 H         1 UNK         0.0600 
    173 H173        6.1204   -9.8919  -44.7986 H         1 UNK         0.0600 
    174 H174        3.9667  -11.2916  -44.7573 H         1 UNK         0.3000 
    175 H175        2.0147  -13.8111  -43.3838 H         1 UNK         0.0600 
    176 H176        2.6094  -11.1580  -41.9607 H         1 UNK         0.0600 
    177 H177        1.1483  -12.1247  -41.7707 H         1 UNK         0.0600 
    178 H178        2.6908  -12.7519  -41.2191 H         1 UNK         0.0600 
    179 H179        1.2220  -11.2240  -44.0725 H         1 UNK         0.3000 
    180 H180        1.1707  -10.3718  -46.4600 H         1 UNK         0.0600 
    181 H181        1.8977  -11.6860  -48.4460 H         1 UNK         0.0600 
    182 H182        0.2697  -11.0666  -48.6736 H         1 UNK         0.0600 
    183 H183        0.5187  -12.7644  -48.2686 H         1 UNK         0.0600 
    184 H184       -1.1186  -12.2524  -46.5154 H         1 UNK         0.3000 
    185 H185       -2.6791  -10.8270  -43.6678 H         1 UNK         0.0600 
    186 H186       -4.6291  -11.0057  -45.1949 H         1 UNK         0.0600 
    187 H187       -3.6354   -9.6273  -45.6390 H         1 UNK         0.0600 
    188 H188       -3.5610  -11.1023  -46.5952 H         1 UNK         0.0600 
    189 H189       -3.1628  -13.1607  -45.2766 H         1 UNK         0.3000 
    190 H190       -0.8227  -21.8676  -45.8119 H         1 UNK         0.3000 
    191 H191       -1.9567  -21.7134  -48.4210 H         1 UNK         0.0600 
    192 H192       -3.2771  -19.9049  -47.5100 H         1 UNK         0.0600 
    193 H193       -1.7447  -19.8271  -46.6683 H         1 UNK         0.0600 
    194 H194       -3.1588  -20.5149  -45.8740 H         1 UNK         0.0600 
    195 H195       -3.1369  -23.1074  -45.3607 H         1 UNK         0.3000 
    196 H196       -5.6232  -24.1064  -46.3423 H         1 UNK         0.0600 
    197 H197       -5.5514  -25.4950  -44.2622 H         1 UNK         0.0600 
    198 H198       -5.1344  -23.8202  -43.9284 H         1 UNK         0.0600 
    199 H199       -3.8690  -25.0430  -44.0067 H         1 UNK         0.0600 
    200 H200       -2.3558  -25.5741  -46.1380 H         1 UNK         0.3000 
    201 H201       -3.1036  -28.1644  -47.0542 H         1 UNK         0.0600 
    202 H202       -1.0187  -27.6754  -45.7608 H         1 UNK         0.0600 
    203 H203       -0.3628  -26.8027  -47.1461 H         1 UNK         0.0600 
    204 H204       -0.6714  -28.5282  -47.2578 H         1 UNK         0.0600 
    205 H205       -1.7602  -25.3210  -48.8108 H         1 UNK         0.3000 
    206 H206       -1.6415  -26.6033  -51.3720 H         1 UNK         0.0600 
    207 H207       -0.2258  -24.6525  -50.7484 H         1 UNK         0.0600 
    208 H208       -1.1878  -24.2784  -52.1694 H         1 UNK         0.0600 
    209 H209       -1.6576  -23.6336  -50.6019 H         1 UNK         0.0600 
    210 H210       -4.2186  -25.0852  -49.6357 H         1 UNK         0.3000 
    211 H211       -6.3467  -24.5888  -49.9835 H         1 UNK         0.0600 
    212 H212       -6.2260  -26.0201  -52.6959 H         1 UNK         0.0600 
    213 H213       -7.6696  -25.5116  -51.8403 H         1 UNK         0.0600 
    214 H214       -6.6504  -26.7709  -51.1589 H         1 UNK         0.0600 
    215 H215       -5.2666  -22.5537  -49.9150 H         1 UNK         0.3000 
    216 H216       -4.1919  -20.9584  -51.6999 H         1 UNK         0.0600 
    217 H217       -5.0120  -19.0510  -50.2591 H         1 UNK         0.0600 
    218 H218       -4.4774  -20.4294  -49.3188 H         1 UNK         0.0600 
    219 H219       -6.1976  -20.1294  -49.5381 H         1 UNK         0.0600 
    220 H220       -7.7195  -21.3607  -51.6580 H         1 UNK         0.3000 
    221 H221       -8.3008  -19.1826  -53.4553 H         1 UNK         0.0600 
    222 H222      -10.5646  -20.2333  -53.5171 H         1 UNK         0.0600 
    223 H223       -9.9479  -21.6466  -52.6696 H         1 UNK         0.0600 
    224 H224       -9.9837  -20.0758  -51.8672 H         1 UNK         0.0600 
    225 H225       -7.3967  -22.5723  -53.9183 H         1 UNK         0.3000 
    226 H226       -8.0498  -22.5439  -56.8133 H         1 UNK         0.0600 
    227 H227       -8.6605  -24.5628  -55.4919 H         1 UNK         0.0600 
    228 H228       -7.4258  -24.9427  -56.6832 H         1 UNK         0.0600 
    229 H229       -6.9833  -24.7670  -54.9898 H         1 UNK         0.0600 
    230 H230       -5.3103  -22.7039  -54.5284 H         1 UNK         0.3000 
    231 H231       -3.2272  -22.8569  -56.4934 H         1 UNK         0.0600 
    232 H232       -1.7643  -22.3428  -54.5215 H         1 UNK         0.0600 
    233 H233       -2.9251  -23.6096  -54.1632 H         1 UNK         0.0600 
    234 H234       -3.1919  -21.9779  -53.5591 H         1 UNK         0.0600 
    235 H235       -5.1059  -20.2099  -55.3291 H         1 UNK         0.3000 
    236 H236       -5.3975  -18.1429  -55.9432 H         1 UNK         0.0600 
    237 H237       -3.1481  -18.3768  -58.0046 H         1 UNK         0.0600 
    238 H238       -4.8306  -18.8262  -58.2881 H         1 UNK         0.0600 
    239 H239       -4.4077  -17.1560  -57.9500 H         1 UNK         0.0600 
    240 H240       -2.7827  -19.1252  -54.2652 H         1 UNK         0.3000 
    241 H241       -1.5911  -16.5037  -53.7714 H         1 UNK         0.0600 
    242 H242       -4.5741  -17.8851  -52.7042 H         1 UNK         0.3800 
    243 H243       -4.7271  -16.8288  -51.3215 H         1 UNK         0.3800 
    244 H244       -0.3375  -17.7425  -51.9008 H         1 UNK         0.0800 
    245 H245        0.0146  -18.1465  -53.5440 H         1 UNK         0.0800 
    246 H246       -2.0215  -21.0271  -50.5735 H         1 UNK         0.0800 
    247 H247       -2.5358  -19.3666  -50.6951 H         1 UNK         0.0800 
@<TRIPOS>BOND
     1    1    2 1    
     2    1  127 1    
     3    1  128 1    
     4    1  129 1    
     5    2    3 2    
     6    2    4 am   BACKBONE|DICT|INTERRES
     7    4    5 1    
     8    4  130 1    
     9    5    6 1    
    10    5   65 1    
    11    5  131 1    
    12    6    7 1    
    13    6  132 1    
    14    6  133 1    
    15    7    8 1    
    16    8    9 1    
    17    8  134 1    
    18    8  135 1    
    19    9   10 ar   
    20    9   14 ar   
    21   10   11 ar   
    22   10  136 1    
    23   11   12 ar   
    24   11  126 1    
    25   12   13 ar   
    26   12  137 1    
    27   13   14 ar   
    28   13   15 1    
    29   14  138 1    
    30   15   16 1    
    31   15  139 1    
    32   15  140 1    
    33   16   17 1    
    34   17   18 1    
    35   17  141 1    
    36   17  142 1    
    37   18   19 1    
    38   18   67 1    
    39   18  143 1    
    40   19   20 am   BACKBONE|DICT|INTERRES
    41   19  144 1    
    42   20   21 2    
    43   20   22 1    
    44   22   23 1    
    45   22   24 1    
    46   22  145 1    
    47   23  146 1    
    48   23  147 1    
    49   23  148 1    
    50   24   25 am   BACKBONE|DICT|INTERRES
    51   24  149 1    
    52   25   26 2    
    53   25   27 1    
    54   27   28 1    
    55   27   29 1    
    56   27  150 1    
    57   28  151 1    
    58   28  152 1    
    59   28  153 1    
    60   29   30 am   BACKBONE|DICT|INTERRES
    61   29  154 1    
    62   30   31 2    
    63   30   32 1    
    64   32   33 1    
    65   32   34 1    
    66   32  155 1    
    67   33  156 1    
    68   33  157 1    
    69   33  158 1    
    70   34   35 am   BACKBONE|DICT|INTERRES
    71   34  159 1    
    72   35   36 2    
    73   35   37 1    
    74   37   38 1    
    75   37   39 1    
    76   37  160 1    
    77   38  161 1    
    78   38  162 1    
    79   38  163 1    
    80   39   40 am   BACKBONE|DICT|INTERRES
    81   39  164 1    
    82   40   41 2    
    83   40   42 1    
    84   42   43 1    
    85   42   44 1    
    86   42  165 1    
    87   43  166 1    
    88   43  167 1    
    89   43  168 1    
    90   44   45 am   BACKBONE|DICT|INTERRES
    91   44  169 1    
    92   45   46 2    
    93   45   47 1    
    94   47   48 1    
    95   47   49 1    
    96   47  170 1    
    97   48  171 1    
    98   48  172 1    
    99   48  173 1    
   100   49   50 am   BACKBONE|DICT|INTERRES
   101   49  174 1    
   102   50   51 2    
   103   50   52 1    
   104   52   53 1    
   105   52   54 1    
   106   52  175 1    
   107   53  176 1    
   108   53  177 1    
   109   53  178 1    
   110   54   55 am   BACKBONE|DICT|INTERRES
   111   54  179 1    
   112   55   56 2    
   113   55   57 1    
   114   57   58 1    
   115   57   59 1    
   116   57  180 1    
   117   58  181 1    
   118   58  182 1    
   119   58  183 1    
   120   59   60 am   BACKBONE|DICT|INTERRES
   121   59  184 1    
   122   60   61 2    
   123   60   62 1    
   124   62   63 1    
   125   62   64 1    
   126   62  185 1    
   127   63  186 1    
   128   63  187 1    
   129   63  188 1    
   130   64   65 am   BACKBONE|DICT|INTERRES
   131   64  189 1    
   132   65   66 2    
   133   67   68 2    
   134   67   69 am   BACKBONE|DICT|INTERRES
   135   69   70 1    
   136   69  190 1    
   137   70   71 1    
   138   70   72 1    
   139   70  191 1    
   140   71  192 1    
   141   71  193 1    
   142   71  194 1    
   143   72   73 2    
   144   72   74 am   BACKBONE|DICT|INTERRES
   145   74   75 1    
   146   74  195 1    
   147   75   76 1    
   148   75   77 1    
   149   75  196 1    
   150   76  197 1    
   151   76  198 1    
   152   76  199 1    
   153   77   78 2    
   154   77   79 am   BACKBONE|DICT|INTERRES
   155   79   80 1    
   156   79  200 1    
   157   80   81 1    
   158   80   82 1    
   159   80  201 1    
   160   81  202 1    
   161   81  203 1    
   162   81  204 1    
   163   82   83 2    
   164   82   84 am   BACKBONE|DICT|INTERRES
   165   84   85 1    
   166   84  205 1    
   167   85   86 1    
   168   85   87 1    
   169   85  206 1    
   170   86  207 1    
   171   86  208 1    
   172   86  209 1    
   173   87   88 2    
   174   87   89 am   BACKBONE|DICT|INTERRES
   175   89   90 1    
   176   89  210 1    
   177   90   91 1    
   178   90   92 1    
   179   90  211 1    
   180   91  212 1    
   181   91  213 1    
   182   91  214 1    
   183   92   93 2    
   184   92   94 am   BACKBONE|DICT|INTERRES
   185   94   95 1    
   186   94  215 1    
   187   95   96 1    
   188   95   97 1    
   189   95  216 1    
   190   96  217 1    
   191   96  218 1    
   192   96  219 1    
   193   97   98 2    
   194   97   99 am   BACKBONE|DICT|INTERRES
   195   99  100 1    
   196   99  220 1    
   197  100  101 1    
   198  100  102 1    
   199  100  221 1    
   200  101  222 1    
   201  101  223 1    
   202  101  224 1    
   203  102  103 2    
   204  102  104 am   BACKBONE|DICT|INTERRES
   205  104  105 1    
   206  104  225 1    
   207  105  106 1    
   208  105  107 1    
   209  105  226 1    
   210  106  227 1    
   211  106  228 1    
   212  106  229 1    
   213  107  108 2    
   214  107  109 am   BACKBONE|DICT|INTERRES
   215  109  110 1    
   216  109  230 1    
   217  110  111 1    
   218  110  112 1    
   219  110  231 1    
   220  111  232 1    
   221  111  233 1    
   222  111  234 1    
   223  112  113 2    
   224  112  114 am   BACKBONE|DICT|INTERRES
   225  114  115 1    
   226  114  235 1    
   227  115  116 1    
   228  115  117 1    
   229  115  236 1    
   230  116  237 1    
   231  116  238 1    
   232  116  239 1    
   233  117  118 2    
   234  117  119 am   BACKBONE|DICT|INTERRES
   235  119  120 1    
   236  119  240 1    
   237  120  121 1    
   238  120  124 1    
   239  120  241 1    
   240  121  122 am   BACKBONE|DICT|INTERRES
   241  121  123 2    
   242  122  242 1    
   243  122  243 1    
   244  124  125 1    
   245  124  244 1    
   246  124  245 1    
   247  125  126 1    
   248  126  246 1    
   249  126  247 1    
@<TRIPOS>SUBSTRUCTURE
     1 UNK         1 GROUP             0       ****    0 ROOT    
