@<TRIPOS>MOLECULE
3R540
247   249    1
SMALL
USER_CHARGES


@<TRIPOS>ATOM
      1 CA         -3.7854  -13.5711  -47.5691 C.3       0 UNK        -0.1800 
      2 C          -2.2927  -13.2775  -47.5605 C.2       0 UNK         0.5000 
      3 O          -1.7303  -13.0148  -46.5002 O.2       0 UNK        -0.5000 
      4 N          -1.6558  -13.2923  -48.7397 N.am      1 UNK        -0.5000 
      5 CA         -0.2105  -13.1462  -48.9940 C.3       1 UNK         0.1400 
      6 C6          0.6528  -14.2411  -48.3066 C.3       23 UNK        -0.0398 
      7 S7          0.3124  -15.9141  -48.9535 S.3       23 UNK        -0.2404 
      8 C8          1.7803  -16.1732  -49.9935 C.3       23 UNK        -0.0205 
      9 C9          1.8371  -17.5889  -50.5439 C.ar      23 UNK        -0.0193 
     10 C10         1.3945  -17.8664  -51.8402 C.ar      23 UNK        -0.1150 
     11 C11         1.4965  -19.1601  -52.3606 C.ar      23 UNK        -0.0193 
     12 C12         2.0231  -20.1834  -51.5661 C.ar      23 UNK        -0.1150 
     13 C13         2.4670  -19.9212  -50.2658 C.ar      23 UNK        -0.0193 
     14 C14         2.3747  -18.6174  -49.7654 C.ar      23 UNK        -0.1150 
     15 C15         3.1045  -21.0381  -49.4421 C.3       23 UNK        -0.0205 
     16 S16         2.5874  -21.0554  -47.6928 S.3       23 UNK        -0.2404 
     17 C17         0.8505  -21.5946  -47.8185 C.3       23 UNK        -0.0398 
     18 CA          0.5319  -22.7341  -46.8217 C.3       11 UNK         0.1400 
     19 N           0.5480  -22.2820  -45.4280 N.am      11 UNK        -0.5000 
     20 C           0.4860  -23.0869  -44.3582 C.2       10 UNK         0.5000 
     21 O           0.4511  -24.3161  -44.4271 O.2       10 UNK        -0.5000 
     22 CA          0.4005  -22.4011  -42.9824 C.3       10 UNK         0.1400 
     23 CB          1.7812  -21.9161  -42.5147 C.3       10 UNK        -0.1800 
     24 N          -0.5471  -21.2854  -42.9852 N.am      10 UNK        -0.5000 
     25 C          -1.8739  -21.4312  -43.1124 C.2       9 UNK         0.5000 
     26 O          -2.4362  -22.5257  -43.1613 O.2       9 UNK        -0.5000 
     27 CA         -2.7155  -20.1461  -43.2286 C.3       9 UNK         0.1400 
     28 CB         -3.0710  -19.6062  -41.8355 C.3       9 UNK        -0.1800 
     29 N          -2.0638  -19.0919  -44.0072 N.am      9 UNK        -0.5000 
     30 C          -1.7620  -19.1758  -45.3109 C.2       8 UNK         0.5000 
     31 O          -2.0226  -20.1514  -46.0114 O.2       8 UNK        -0.5000 
     32 CA         -0.9808  -17.9972  -45.9203 C.3       8 UNK         0.1400 
     33 CB         -1.9168  -16.8119  -46.1999 C.3       8 UNK        -0.1800 
     34 N           0.1314  -17.5683  -45.0697 N.am      8 UNK        -0.5000 
     35 C           1.1455  -18.3609  -44.6909 C.2       7 UNK         0.5000 
     36 O           1.2685  -19.5310  -45.0454 O.2       7 UNK        -0.5000 
     37 CA          2.1506  -17.7738  -43.6889 C.3       7 UNK         0.1400 
     38 CB          3.2009  -16.9051  -44.3987 C.3       7 UNK        -0.1800 
     39 N           1.4687  -17.0025  -42.6503 N.am      7 UNK        -0.5000 
     40 C           0.7340  -17.5510  -41.6711 C.2       6 UNK         0.5000 
     41 O           0.6130  -18.7652  -41.5066 O.2       6 UNK        -0.5000 
     42 CA         -0.0247  -16.5804  -40.7459 C.3       6 UNK         0.1400 
     43 CB          0.8857  -16.0925  -39.6093 C.3       6 UNK        -0.1800 
     44 N          -0.5640  -15.4245  -41.4642 N.am      6 UNK        -0.5000 
     45 C          -1.5355  -15.4916  -42.3856 C.2       5 UNK         0.5000 
     46 O          -2.1271  -16.5304  -42.6746 O.2       5 UNK        -0.5000 
     47 CA         -1.8687  -14.1933  -43.1465 C.3       5 UNK         0.1400 
     48 CB         -3.0101  -13.4377  -42.4510 C.3       5 UNK        -0.1800 
     49 N          -0.7230  -13.2936  -43.3141 N.am      5 UNK        -0.5000 
     50 C           0.4011  -13.6068  -43.9710 C.2       4 UNK         0.5000 
     51 O           0.6197  -14.7169  -44.4644 O.2       4 UNK        -0.5000 
     52 CA          1.4778  -12.5155  -44.0394 C.3       4 UNK         0.1400 
     53 CB          2.1234  -12.3010  -42.6575 C.3       4 UNK        -0.1800 
     54 N           2.5028  -12.9297  -44.9945 N.am      4 UNK        -0.5000 
     55 C           3.3105  -12.1676  -45.7415 C.2       3 UNK         0.5000 
     56 O           4.1126  -12.6739  -46.5252 O.2       3 UNK        -0.5000 
     57 CA          3.1764  -10.6325  -45.6906 C.3       3 UNK         0.1400 
     58 CB          4.4777   -9.9108  -46.0845 C.3       3 UNK        -0.1800 
     59 N           2.1341  -10.2803  -46.6429 N.am      3 UNK        -0.5000 
     60 C           1.0470   -9.5442  -46.4029 C.2       2 UNK         0.5000 
     61 O           0.8498   -8.9373  -45.3500 O.2       2 UNK        -0.5000 
     62 CA         -0.0331   -9.5319  -47.5033 C.3       2 UNK         0.1400 
     63 CB          0.3329   -8.5687  -48.6487 C.3       2 UNK        -0.1800 
     64 N          -0.3753  -10.8750  -47.9983 N.am      2 UNK        -0.5000 
     65 C           0.3659  -11.7383  -48.7088 C.2       1 UNK         0.5000 
     66 O           1.4896  -11.4673  -49.1342 O.2       1 UNK        -0.5000 
     67 C          -0.7960  -23.4230  -47.1883 C.2       11 UNK         0.5000 
     68 O          -0.7650  -24.4362  -47.8841 O.2       11 UNK        -0.5000 
     69 N          -1.9306  -22.8952  -46.7033 N.am      12 UNK        -0.5000 
     70 CA         -3.2847  -23.3928  -46.9701 C.3       12 UNK         0.1400 
     71 CB         -4.3172  -22.5020  -46.2633 C.3       12 UNK        -0.1800 
     72 C          -3.5106  -24.8656  -46.5915 C.2       12 UNK         0.5000 
     73 O          -4.2814  -25.5431  -47.2719 O.2       12 UNK        -0.5000 
     74 N          -2.8176  -25.3402  -45.5487 N.am      13 UNK        -0.5000 
     75 CA         -2.8434  -26.7334  -45.1042 C.3       13 UNK         0.1400 
     76 CB         -2.1679  -26.8328  -43.7285 C.3       13 UNK        -0.1800 
     77 C          -2.1817  -27.7022  -46.1049 C.2       13 UNK         0.5000 
     78 O          -2.6159  -28.8497  -46.2092 O.2       13 UNK        -0.5000 
     79 N          -1.1566  -27.2268  -46.8245 N.am      14 UNK        -0.5000 
     80 CA         -0.4389  -27.9848  -47.8495 C.3       14 UNK         0.1400 
     81 CB          1.0332  -27.5435  -47.8618 C.3       14 UNK        -0.1800 
     82 C          -1.0715  -27.7926  -49.2382 C.2       14 UNK         0.5000 
     83 O          -1.1807  -28.7541  -49.9993 O.2       14 UNK        -0.5000 
     84 N          -1.4815  -26.5534  -49.5383 N.am      15 UNK        -0.5000 
     85 CA         -2.0636  -26.1332  -50.8131 C.3       15 UNK         0.1400 
     86 CB         -1.9287  -24.6048  -50.9271 C.3       15 UNK        -0.1800 
     87 C          -3.5342  -26.5545  -50.9983 C.2       15 UNK         0.5000 
     88 O          -4.0576  -26.4027  -52.1010 O.2       15 UNK        -0.5000 
     89 N          -4.1826  -27.0345  -49.9265 N.am      16 UNK        -0.5000 
     90 CA         -5.6024  -27.3952  -49.8372 C.3       16 UNK         0.1400 
     91 CB         -5.9335  -28.5977  -50.7458 C.3       16 UNK        -0.1800 
     92 C          -6.5087  -26.1710  -50.0794 C.2       16 UNK         0.5000 
     93 O          -7.3955  -26.2005  -50.9338 O.2       16 UNK        -0.5000 
     94 N          -6.2217  -25.1011  -49.3245 N.am      17 UNK        -0.5000 
     95 CA         -6.8827  -23.7899  -49.3158 C.3       17 UNK         0.1400 
     96 CB         -8.3743  -23.9199  -48.9445 C.3       17 UNK        -0.1800 
     97 C          -6.6655  -22.9357  -50.5849 C.2       17 UNK         0.5000 
     98 O          -7.2818  -21.8765  -50.7042 O.2       17 UNK        -0.5000 
     99 N          -5.7725  -23.3644  -51.4888 N.am      18 UNK        -0.5000 
    100 CA        -5.4061  -22.6316  -52.7072 C.3       18 UNK         0.1400 
    101 CB        -4.9475  -23.6341  -53.7778 C.3       18 UNK        -0.1800 
    102 C         -4.3293  -21.5500  -52.4743 C.2       18 UNK         0.5000 
    103 O         -3.9860  -20.8365  -53.4178 O.2       18 UNK        -0.5000 
    104 N         -3.8080  -21.4523  -51.2412 N.am      19 UNK        -0.5000 
    105 CA        -2.8120  -20.4696  -50.8088 C.3       19 UNK         0.1400 
    106 CB        -2.4384  -20.7369  -49.3479 C.3       19 UNK        -0.1800 
    107 C         -3.2825  -19.0144  -50.9844 C.2       19 UNK         0.5000 
    108 O         -4.4845  -18.7434  -50.9270 O.2       19 UNK        -0.5000 
    109 N         -2.3193  -18.1119  -51.2116 N.am      20 UNK        -0.5000 
    110 CA        -2.4604  -16.6844  -51.5296 C.3       20 UNK         0.1400 
    111 CB        -3.2269  -15.9159  -50.4368 C.3       20 UNK        -0.1800 
    112 C         -3.0545  -16.4198  -52.9270 C.2       20 UNK         0.5000 
    113 O         -2.4980  -15.6126  -53.6718 O.2       20 UNK        -0.5000 
    114 N         -4.1303  -17.1333  -53.2877 N.am      21 UNK        -0.5000 
    115 CA        -4.7717  -17.1142  -54.6075 C.3       21 UNK         0.1400 
    116 CB        -6.0461  -17.9703  -54.5593 C.3       21 UNK        -0.1800 
    117 C         -3.8397  -17.5835  -55.7439 C.2       21 UNK         0.5000 
    118 O         -3.9834  -17.1309  -56.8801 O.2       21 UNK        -0.5000 
    119 N         -2.8765  -18.4446  -55.3988 N.am      22 UNK        -0.5000 
    120 CA        -1.7187  -18.8338  -56.2155 C.3       22 UNK         0.1400 
    121 C         -0.6977  -17.6938  -56.5176 C.2       22 UNK         0.5000 
    122 N         -0.7582  -16.5346  -55.8717 N.am      22 UNK        -0.7600 
    123 O          0.1709  -17.8656  -57.3683 O.2       22 UNK        -0.5000 
    124 C124       -1.0116  -20.0846  -55.6250 C.3       23 UNK        -0.0398 
    125 S125       -0.6757  -19.9667  -53.8316 S.3       23 UNK        -0.2404 
    126 C126        1.0598  -19.4462  -53.7886 C.3       23 UNK        -0.0205 
    127 H127       -4.3258  -12.7857  -47.0408 H         1 UNK         0.0600 
    128 H128       -4.1825  -13.6332  -48.5822 H         1 UNK         0.0600 
    129 H129       -3.9808  -14.5182  -47.0664 H         1 UNK         0.0600 
    130 H130       -2.2028  -13.4631  -49.5704 H         1 UNK         0.3000 
    131 H131       -0.0974  -13.2762  -50.0716 H         1 UNK         0.0600 
    132 H132        1.7176  -14.0345  -48.4291 H         1 UNK         0.0800 
    133 H133        0.4847  -14.2490  -47.2292 H         1 UNK         0.0800 
    134 H134        1.7784  -15.4471  -50.8078 H         1 UNK         0.0800 
    135 H135        2.6809  -15.9796  -49.4086 H         1 UNK         0.0800 
    136 H136        0.9892  -17.0725  -52.4521 H         1 UNK         0.1150 
    137 H137        2.1049  -21.1822  -51.9716 H         1 UNK         0.1150 
    138 H138        2.7314  -18.3969  -48.7690 H         1 UNK         0.1150 
    139 H139        2.8953  -22.0145  -49.8820 H         1 UNK         0.0800 
    140 H140        4.1870  -20.9115  -49.4794 H         1 UNK         0.0800 
    141 H141        0.6576  -21.9128  -48.8449 H         1 UNK         0.0800 
    142 H142        0.2076  -20.7320  -47.6389 H         1 UNK         0.0800 
    143 H143        1.3092  -23.4950  -46.9227 H         1 UNK         0.0600 
    144 H144        0.6369  -21.2785  -45.2822 H         1 UNK         0.3000 
    145 H145        0.0458  -23.1423  -42.2630 H         1 UNK         0.0600 
    146 H146        1.7259  -21.4693  -41.5218 H         1 UNK         0.0600 
    147 H147        2.4862  -22.7463  -42.4599 H         1 UNK         0.0600 
    148 H148        2.2033  -21.1737  -43.1914 H         1 UNK         0.0600 
    149 H149       -0.1587  -20.3528  -42.9192 H         1 UNK         0.3000 
    150 H150       -3.6449  -20.4064  -43.7390 H         1 UNK         0.0600 
    151 H151       -3.5715  -20.3676  -41.2360 H         1 UNK         0.0600 
    152 H152       -3.7446  -18.7519  -41.9046 H         1 UNK         0.0600 
    153 H153       -2.1824  -19.2877  -41.2894 H         1 UNK         0.0600 
    154 H154       -1.8614  -18.2256  -43.5152 H         1 UNK         0.3000 
    155 H155       -0.5536  -18.3259  -46.8700 H         1 UNK         0.0600 
    156 H156       -1.3581  -15.9294  -46.5079 H         1 UNK         0.0600 
    157 H157       -2.5060  -16.5406  -45.3250 H         1 UNK         0.0600 
    158 H158       -2.6160  -17.0538  -47.0009 H         1 UNK         0.0600 
    159 H159        0.1313  -16.6016  -44.7595 H         1 UNK         0.3000 
    160 H160        2.6733  -18.6044  -43.2095 H         1 UNK         0.0600 
    161 H161        2.7478  -16.0954  -44.9692 H         1 UNK         0.0600 
    162 H162        3.7834  -17.5046  -45.0994 H         1 UNK         0.0600 
    163 H163        3.8998  -16.4667  -43.6864 H         1 UNK         0.0600 
    164 H164        1.4508  -16.0001  -42.7716 H         1 UNK         0.3000 
    165 H165       -0.8609  -17.1269  -40.3044 H         1 UNK         0.0600 
    166 H166        1.7302  -15.5149  -39.9874 H         1 UNK         0.0600 
    167 H167        0.3370  -15.4651  -38.9065 H         1 UNK         0.0600 
    168 H168        1.2896  -16.9342  -39.0450 H         1 UNK         0.0600 
    169 H169       -0.1356  -14.5295  -41.2815 H         1 UNK         0.3000 
    170 H170       -2.2093  -14.4770  -44.1438 H         1 UNK         0.0600 
    171 H171       -3.8860  -14.0771  -42.3325 H         1 UNK         0.0600 
    172 H172       -2.7187  -13.0915  -41.4587 H         1 UNK         0.0600 
    173 H173       -3.3201  -12.5702  -43.0339 H         1 UNK         0.0600 
    174 H174       -0.8265  -12.3645  -42.9332 H         1 UNK         0.3000 
    175 H175        0.9875  -11.6011  -44.3716 H         1 UNK         0.0600 
    176 H176        2.9093  -11.5473  -42.6896 H         1 UNK         0.0600 
    177 H177        1.3888  -11.9641  -41.9253 H         1 UNK         0.0600 
    178 H178        2.5673  -13.2220  -42.2770 H         1 UNK         0.0600 
    179 H179        2.5275  -13.9324  -45.1223 H         1 UNK         0.3000 
    180 H180        2.9153  -10.3174  -44.6801 H         1 UNK         0.0600 
    181 H181        4.7816  -10.1451  -47.1056 H         1 UNK         0.0600 
    182 H182        5.2961  -10.1946  -45.4219 H         1 UNK         0.0600 
    183 H183        4.3609   -8.8292  -46.0138 H         1 UNK         0.0600 
    184 H184        2.1777  -10.7582  -47.5403 H         1 UNK         0.3000 
    185 H185       -0.9454   -9.1517  -47.0409 H         1 UNK         0.0600 
    186 H186       -0.4520   -8.5393  -49.4044 H         1 UNK         0.0600 
    187 H187        0.4604   -7.5530  -48.2725 H         1 UNK         0.0600 
    188 H188        1.2638   -8.8485  -49.1422 H         1 UNK         0.0600 
    189 H189       -1.2400  -11.2514  -47.6298 H         1 UNK         0.3000 
    190 H190       -1.8740  -22.0140  -46.1979 H         1 UNK         0.3000 
    191 H191       -3.4538  -23.3141  -48.0448 H         1 UNK         0.0600 
    192 H192       -4.2808  -21.4776  -46.6320 H         1 UNK         0.0600 
    193 H193       -5.3320  -22.8667  -46.4238 H         1 UNK         0.0600 
    194 H194       -4.1524  -22.4758  -45.1869 H         1 UNK         0.0600 
    195 H195       -2.2050  -24.7097  -45.0489 H         1 UNK         0.3000 
    196 H196       -3.8877  -27.0336  -44.9941 H         1 UNK         0.0600 
    197 H197       -2.2069  -27.8538  -43.3468 H         1 UNK         0.0600 
    198 H198       -2.6636  -26.1930  -42.9981 H         1 UNK         0.0600 
    199 H199       -1.1185  -26.5387  -43.7737 H         1 UNK         0.0600 
    200 H200       -0.8958  -26.2546  -46.7163 H         1 UNK         0.3000 
    201 H201       -0.4677  -29.0498  -47.6095 H         1 UNK         0.0600 
    202 H202        1.5047  -27.7221  -46.8954 H         1 UNK         0.0600 
    203 H203        1.1373  -26.4825  -48.0928 H         1 UNK         0.0600 
    204 H204        1.6011  -28.0996  -48.6087 H         1 UNK         0.0600 
    205 H205       -1.2998  -25.8094  -48.8665 H         1 UNK         0.3000 
    206 H206       -1.4884  -26.5888  -51.6216 H         1 UNK         0.0600 
    207 H207       -0.8919  -24.2888  -50.8096 H         1 UNK         0.0600 
    208 H208       -2.2629  -24.2495  -51.9017 H         1 UNK         0.0600 
    209 H209       -2.5210  -24.0927  -50.1691 H         1 UNK         0.0600 
    210 H210       -3.6729  -27.0631  -49.0538 H         1 UNK         0.3000 
    211 H211       -5.7756  -27.7073  -48.8061 H         1 UNK         0.0600 
    212 H212       -5.8336  -28.3530  -51.8035 H         1 UNK         0.0600 
    213 H213       -6.9586  -28.9335  -50.5858 H         1 UNK         0.0600 
    214 H214       -5.2780  -29.4425  -50.5341 H         1 UNK         0.0600 
    215 H215       -5.4788  -25.2175  -48.6377 H         1 UNK         0.3000 
    216 H216       -6.4030  -23.2316  -48.5121 H         1 UNK         0.0600 
    217 H217       -8.5045  -24.5031  -48.0329 H         1 UNK         0.0600 
    218 H218       -8.9506  -24.3991  -49.7361 H         1 UNK         0.0600 
    219 H219       -8.8209  -22.9409  -48.7665 H         1 UNK         0.0600 
    220 H220       -5.3338  -24.2641  -51.3511 H         1 UNK         0.3000 
    221 H221       -6.2919  -22.1219  -53.0918 H         1 UNK         0.0600 
    222 H222       -4.0115  -24.1190  -53.5034 H         1 UNK         0.0600 
    223 H223       -5.6942  -24.4120  -53.9388 H         1 UNK         0.0600 
    224 H224       -4.7862  -23.1361  -54.7347 H         1 UNK         0.0600 
    225 H225       -4.1847  -22.0560  -50.5293 H         1 UNK         0.3000 
    226 H226       -1.9192  -20.6246  -51.4131 H         1 UNK         0.0600 
    227 H227       -1.9902  -21.7229  -49.2447 H         1 UNK         0.0600 
    228 H228       -1.7097  -20.0101  -48.9869 H         1 UNK         0.0600 
    229 H229       -3.3070  -20.6807  -48.6918 H         1 UNK         0.0600 
    230 H230       -1.3676  -18.4507  -51.2527 H         1 UNK         0.3000 
    231 H231       -1.4429  -16.2905  -51.5461 H         1 UNK         0.0600 
    232 H232       -3.2243  -14.8471  -50.6497 H         1 UNK         0.0600 
    233 H233       -2.7684  -16.0595  -49.4586 H         1 UNK         0.0600 
    234 H234       -4.2700  -16.2235  -50.3663 H         1 UNK         0.0600 
    235 H235       -4.5081  -17.7808  -52.6016 H         1 UNK         0.3000 
    236 H236       -5.0577  -16.0827  -54.8224 H         1 UNK         0.0600 
    237 H237       -6.5639  -17.9549  -55.5192 H         1 UNK         0.0600 
    238 H238       -5.8224  -19.0111  -54.3232 H         1 UNK         0.0600 
    239 H239       -6.7429  -17.5987  -53.8079 H         1 UNK         0.0600 
    240 H240       -2.8730  -18.8015  -54.4527 H         1 UNK         0.3000 
    241 H241       -2.1140  -19.1231  -57.1908 H         1 UNK         0.0600 
    242 H242       -1.4632  -16.3509  -55.1659 H         1 UNK         0.3800 
    243 H243       -0.0894  -15.8158  -56.0966 H         1 UNK         0.3800 
    244 H244       -1.6598  -20.9505  -55.7659 H         1 UNK         0.0800 
    245 H245       -0.0928  -20.3222  -56.1643 H         1 UNK         0.0800 
    246 H246        1.6855  -20.2252  -54.2266 H         1 UNK         0.0800 
    247 H247        1.1948  -18.5561  -54.4045 H         1 UNK         0.0800 
@<TRIPOS>BOND
     1    1    2 1    
     2    1  127 1    
     3    1  128 1    
     4    1  129 1    
     5    2    3 2    
     6    2    4 am   BACKBONE|DICT|INTERRES
     7    4    5 1    
     8    4  130 1    
     9    5    6 1    
    10    5   65 1    
    11    5  131 1    
    12    6    7 1    
    13    6  132 1    
    14    6  133 1    
    15    7    8 1    
    16    8    9 1    
    17    8  134 1    
    18    8  135 1    
    19    9   10 ar   
    20    9   14 ar   
    21   10   11 ar   
    22   10  136 1    
    23   11   12 ar   
    24   11  126 1    
    25   12   13 ar   
    26   12  137 1    
    27   13   14 ar   
    28   13   15 1    
    29   14  138 1    
    30   15   16 1    
    31   15  139 1    
    32   15  140 1    
    33   16   17 1    
    34   17   18 1    
    35   17  141 1    
    36   17  142 1    
    37   18   19 1    
    38   18   67 1    
    39   18  143 1    
    40   19   20 am   BACKBONE|DICT|INTERRES
    41   19  144 1    
    42   20   21 2    
    43   20   22 1    
    44   22   23 1    
    45   22   24 1    
    46   22  145 1    
    47   23  146 1    
    48   23  147 1    
    49   23  148 1    
    50   24   25 am   BACKBONE|DICT|INTERRES
    51   24  149 1    
    52   25   26 2    
    53   25   27 1    
    54   27   28 1    
    55   27   29 1    
    56   27  150 1    
    57   28  151 1    
    58   28  152 1    
    59   28  153 1    
    60   29   30 am   BACKBONE|DICT|INTERRES
    61   29  154 1    
    62   30   31 2    
    63   30   32 1    
    64   32   33 1    
    65   32   34 1    
    66   32  155 1    
    67   33  156 1    
    68   33  157 1    
    69   33  158 1    
    70   34   35 am   BACKBONE|DICT|INTERRES
    71   34  159 1    
    72   35   36 2    
    73   35   37 1    
    74   37   38 1    
    75   37   39 1    
    76   37  160 1    
    77   38  161 1    
    78   38  162 1    
    79   38  163 1    
    80   39   40 am   BACKBONE|DICT|INTERRES
    81   39  164 1    
    82   40   41 2    
    83   40   42 1    
    84   42   43 1    
    85   42   44 1    
    86   42  165 1    
    87   43  166 1    
    88   43  167 1    
    89   43  168 1    
    90   44   45 am   BACKBONE|DICT|INTERRES
    91   44  169 1    
    92   45   46 2    
    93   45   47 1    
    94   47   48 1    
    95   47   49 1    
    96   47  170 1    
    97   48  171 1    
    98   48  172 1    
    99   48  173 1    
   100   49   50 am   BACKBONE|DICT|INTERRES
   101   49  174 1    
   102   50   51 2    
   103   50   52 1    
   104   52   53 1    
   105   52   54 1    
   106   52  175 1    
   107   53  176 1    
   108   53  177 1    
   109   53  178 1    
   110   54   55 am   BACKBONE|DICT|INTERRES
   111   54  179 1    
   112   55   56 2    
   113   55   57 1    
   114   57   58 1    
   115   57   59 1    
   116   57  180 1    
   117   58  181 1    
   118   58  182 1    
   119   58  183 1    
   120   59   60 am   BACKBONE|DICT|INTERRES
   121   59  184 1    
   122   60   61 2    
   123   60   62 1    
   124   62   63 1    
   125   62   64 1    
   126   62  185 1    
   127   63  186 1    
   128   63  187 1    
   129   63  188 1    
   130   64   65 am   BACKBONE|DICT|INTERRES
   131   64  189 1    
   132   65   66 2    
   133   67   68 2    
   134   67   69 am   BACKBONE|DICT|INTERRES
   135   69   70 1    
   136   69  190 1    
   137   70   71 1    
   138   70   72 1    
   139   70  191 1    
   140   71  192 1    
   141   71  193 1    
   142   71  194 1    
   143   72   73 2    
   144   72   74 am   BACKBONE|DICT|INTERRES
   145   74   75 1    
   146   74  195 1    
   147   75   76 1    
   148   75   77 1    
   149   75  196 1    
   150   76  197 1    
   151   76  198 1    
   152   76  199 1    
   153   77   78 2    
   154   77   79 am   BACKBONE|DICT|INTERRES
   155   79   80 1    
   156   79  200 1    
   157   80   81 1    
   158   80   82 1    
   159   80  201 1    
   160   81  202 1    
   161   81  203 1    
   162   81  204 1    
   163   82   83 2    
   164   82   84 am   BACKBONE|DICT|INTERRES
   165   84   85 1    
   166   84  205 1    
   167   85   86 1    
   168   85   87 1    
   169   85  206 1    
   170   86  207 1    
   171   86  208 1    
   172   86  209 1    
   173   87   88 2    
   174   87   89 am   BACKBONE|DICT|INTERRES
   175   89   90 1    
   176   89  210 1    
   177   90   91 1    
   178   90   92 1    
   179   90  211 1    
   180   91  212 1    
   181   91  213 1    
   182   91  214 1    
   183   92   93 2    
   184   92   94 am   BACKBONE|DICT|INTERRES
   185   94   95 1    
   186   94  215 1    
   187   95   96 1    
   188   95   97 1    
   189   95  216 1    
   190   96  217 1    
   191   96  218 1    
   192   96  219 1    
   193   97   98 2    
   194   97   99 am   BACKBONE|DICT|INTERRES
   195   99  100 1    
   196   99  220 1    
   197  100  101 1    
   198  100  102 1    
   199  100  221 1    
   200  101  222 1    
   201  101  223 1    
   202  101  224 1    
   203  102  103 2    
   204  102  104 am   BACKBONE|DICT|INTERRES
   205  104  105 1    
   206  104  225 1    
   207  105  106 1    
   208  105  107 1    
   209  105  226 1    
   210  106  227 1    
   211  106  228 1    
   212  106  229 1    
   213  107  108 2    
   214  107  109 am   BACKBONE|DICT|INTERRES
   215  109  110 1    
   216  109  230 1    
   217  110  111 1    
   218  110  112 1    
   219  110  231 1    
   220  111  232 1    
   221  111  233 1    
   222  111  234 1    
   223  112  113 2    
   224  112  114 am   BACKBONE|DICT|INTERRES
   225  114  115 1    
   226  114  235 1    
   227  115  116 1    
   228  115  117 1    
   229  115  236 1    
   230  116  237 1    
   231  116  238 1    
   232  116  239 1    
   233  117  118 2    
   234  117  119 am   BACKBONE|DICT|INTERRES
   235  119  120 1    
   236  119  240 1    
   237  120  121 1    
   238  120  124 1    
   239  120  241 1    
   240  121  122 am   BACKBONE|DICT|INTERRES
   241  121  123 2    
   242  122  242 1    
   243  122  243 1    
   244  124  125 1    
   245  124  244 1    
   246  124  245 1    
   247  125  126 1    
   248  126  246 1    
   249  126  247 1    
@<TRIPOS>SUBSTRUCTURE
     1 UNK         1 GROUP             0       ****    0 ROOT    
