@<TRIPOS>MOLECULE
3R540
247   249    1
SMALL
USER_CHARGES


@<TRIPOS>ATOM
      1 CA          5.6755  -15.3493  -45.9704 C.3       0 UNK        -0.1800 
      2 C           4.9332  -14.8503  -47.2020 C.2       0 UNK         0.5000 
      3 O           4.9422  -13.6512  -47.4763 O.2       0 UNK        -0.5000 
      4 N           4.2729  -15.7650  -47.9261 N.am      1 UNK        -0.5000 
      5 CA          3.5134  -15.5409  -49.1693 C.3       1 UNK         0.1400 
      6 C6          4.3774  -14.9941  -50.3418 C.3       23 UNK        -0.0398 
      7 S7          5.6432  -16.1962  -50.8748 S.3       23 UNK        -0.2404 
      8 C8          4.8442  -16.9343  -52.3395 C.3       23 UNK        -0.0205 
      9 C9          3.5313  -17.6188  -51.9863 C.ar      23 UNK        -0.0193 
     10 C10         2.3096  -17.0079  -52.2864 C.ar      23 UNK        -0.1150 
     11 C11         1.1026  -17.6134  -51.9254 C.ar      23 UNK        -0.0193 
     12 C12         1.1252  -18.8479  -51.2694 C.ar      23 UNK        -0.1150 
     13 C13         2.3400  -19.4724  -50.9687 C.ar      23 UNK        -0.0193 
     14 C14         3.5387  -18.8541  -51.3340 C.ar      23 UNK        -0.1150 
     15 C15         2.3709  -20.8159  -50.2552 C.3       23 UNK        -0.0205 
     16 S16         2.5977  -20.6239  -48.4582 S.3       23 UNK        -0.2404 
     17 C17         0.8953  -20.2708  -47.9126 C.3       23 UNK        -0.0398 
     18 CA          0.2039  -21.5159  -47.3123 C.3       11 UNK         0.1400 
     19 N           0.8805  -22.0266  -46.1189 N.am      11 UNK        -0.5000 
     20 C           0.6316  -23.2148  -45.5518 C.2       10 UNK         0.5000 
     21 O          -0.1796  -24.0291  -45.9926 O.2       10 UNK        -0.5000 
     22 CA          1.3788  -23.5130  -44.2398 C.3       10 UNK         0.1400 
     23 CB          2.8102  -23.9913  -44.5249 C.3       10 UNK        -0.1800 
     24 N           1.4193  -22.3503  -43.3503 N.am      10 UNK        -0.5000 
     25 C           0.3380  -21.8085  -42.7726 C.2       9 UNK         0.5000 
     26 O          -0.7999  -22.2600  -42.8964 O.2       9 UNK        -0.5000 
     27 CA          0.5553  -20.5230  -41.9549 C.3       9 UNK         0.1400 
     28 CB          0.9463  -20.8703  -40.5112 C.3       9 UNK        -0.1800 
     29 N           1.5486  -19.6073  -42.5247 N.am      9 UNK        -0.5000 
     30 C           1.4808  -19.0531  -43.7451 C.2       8 UNK         0.5000 
     31 O           0.6135  -19.3352  -44.5735 O.2       8 UNK        -0.5000 
     32 CA          2.5443  -17.9935  -44.0832 C.3       8 UNK         0.1400 
     33 CB          2.1028  -17.0558  -45.2203 C.3       8 UNK        -0.1800 
     34 N           2.8307  -17.1857  -42.9026 N.am      8 UNK        -0.5000 
     35 C           4.0490  -16.8504  -42.4598 C.2       7 UNK         0.5000 
     36 O           5.0941  -17.2038  -43.0061 O.2       7 UNK        -0.5000 
     37 CA          4.1225  -15.9620  -41.1997 C.3       7 UNK         0.1400 
     38 CB          4.4857  -14.5204  -41.5896 C.3       7 UNK        -0.1800 
     39 N           2.8808  -15.9365  -40.4228 N.am      7 UNK        -0.5000 
     40 C           2.3775  -16.9706  -39.7346 C.2       6 UNK         0.5000 
     41 O           2.9472  -18.0560  -39.6220 O.2       6 UNK        -0.5000 
     42 CA          0.9824  -16.7730  -39.1069 C.3       6 UNK         0.1400 
     43 CB          1.1114  -16.3716  -37.6299 C.3       6 UNK        -0.1800 
     44 N           0.1435  -15.7874  -39.8010 N.am      6 UNK        -0.5000 
     45 C          -0.2683  -15.8843  -41.0720 C.2       5 UNK         0.5000 
     46 O           0.0575  -16.7986  -41.8330 O.2       5 UNK        -0.5000 
     47 CA         -1.1477  -14.7450  -41.5978 C.3       5 UNK         0.1400 
     48 CB         -0.2835  -13.5394  -42.0105 C.3       5 UNK        -0.1800 
     49 N          -1.8949  -15.2354  -42.7509 N.am      5 UNK        -0.5000 
     50 C          -3.0593  -14.7422  -43.1895 C.2       4 UNK         0.5000 
     51 O          -3.6347  -13.7942  -42.6524 O.2       4 UNK        -0.5000 
     52 CA         -3.6618  -15.4000  -44.4463 C.3       4 UNK         0.1400 
     53 CB         -4.6363  -14.4660  -45.1955 C.3       4 UNK        -0.1800 
     54 N          -2.5947  -15.8450  -45.3418 N.am      4 UNK        -0.5000 
     55 C          -2.7228  -16.7300  -46.3376 C.2       3 UNK         0.5000 
     56 O          -3.7765  -17.3111  -46.5945 O.2       3 UNK        -0.5000 
     57 CA         -1.4511  -17.0308  -47.1649 C.3       3 UNK         0.1400 
     58 CB         -1.7590  -17.4857  -48.6054 C.3       3 UNK        -0.1800 
     59 N          -0.4625  -15.9431  -47.1701 N.am      3 UNK        -0.5000 
     60 C          -0.6402  -14.6689  -47.5582 C.2       2 UNK         0.5000 
     61 O          -1.6949  -14.2132  -47.9980 O.2       2 UNK        -0.5000 
     62 CA          0.5797  -13.7439  -47.3968 C.3       2 UNK         0.1400 
     63 CB          0.6669  -13.2193  -45.9541 C.3       2 UNK        -0.1800 
     64 N           1.8333  -14.4168  -47.7388 N.am      2 UNK        -0.5000 
     65 C           2.2042  -14.7364  -48.9865 C.2       1 UNK         0.5000 
     66 O           1.5300  -14.4492  -49.9764 O.2       1 UNK        -0.5000 
     67 C          -1.2785  -21.2217  -47.0279 C.2       11 UNK         0.5000 
     68 O          -2.1167  -21.5201  -47.8759 O.2       11 UNK        -0.5000 
     69 N          -1.5772  -20.6748  -45.8415 N.am      12 UNK        -0.5000 
     70 CA         -2.9350  -20.4152  -45.3651 C.3       12 UNK         0.1400 
     71 CB         -2.8801  -19.6012  -44.0617 C.3       12 UNK        -0.1800 
     72 C          -3.7484  -21.7078  -45.1792 C.2       12 UNK         0.5000 
     73 O          -4.8873  -21.7767  -45.6410 O.2       12 UNK        -0.5000 
     74 N          -3.1352  -22.7207  -44.5503 N.am      13 UNK        -0.5000 
     75 CA         -3.7197  -24.0457  -44.3331 C.3       13 UNK         0.1400 
     76 CB         -2.8049  -24.8616  -43.4073 C.3       13 UNK        -0.1800 
     77 C          -3.9862  -24.8097  -45.6434 C.2       13 UNK         0.5000 
     78 O          -5.0286  -25.4527  -45.7714 O.2       13 UNK        -0.5000 
     79 N          -3.0527  -24.7072  -46.5987 N.am      14 UNK        -0.5000 
     80 CA         -3.1542  -25.3161  -47.9262 C.3       14 UNK         0.1400 
     81 CB         -1.7373  -25.4631  -48.5039 C.3       14 UNK        -0.1800 
     82 C          -4.0411  -24.5219  -48.9060 C.2       14 UNK         0.5000 
     83 O          -4.3179  -25.0233  -49.9964 O.2       14 UNK        -0.5000 
     84 N          -4.4104  -23.2833  -48.5464 N.am      15 UNK        -0.5000 
     85 CA         -5.0832  -22.2785  -49.3790 C.3       15 UNK         0.1400 
     86 CB         -6.5408  -22.6897  -49.6688 C.3       15 UNK        -0.1800 
     87 C          -4.2844  -21.9598  -50.6608 C.2       15 UNK         0.5000 
     88 O          -4.8632  -21.8550  -51.7441 O.2       15 UNK        -0.5000 
     89 N          -2.9584  -21.8375  -50.5070 N.am      16 UNK        -0.5000 
     90 CA         -1.9441  -21.6911  -51.5570 C.3       16 UNK         0.1400 
     91 CB         -2.0884  -20.3359  -52.2717 C.3       16 UNK        -0.1800 
     92 C          -1.9149  -22.8879  -52.5324 C.2       16 UNK         0.5000 
     93 O          -1.7510  -22.7003  -53.7375 O.2       16 UNK        -0.5000 
     94 N          -2.0865  -24.0964  -51.9761 N.am      17 UNK        -0.5000 
     95 CA         -2.2345  -25.3817  -52.6674 C.3       17 UNK         0.1400 
     96 CB         -0.9572  -25.7545  -53.4496 C.3       17 UNK        -0.1800 
     97 C          -3.5184  -25.4158  -53.5204 C.2       17 UNK         0.5000 
     98 O          -3.4692  -25.7153  -54.7149 O.2       17 UNK        -0.5000 
     99 N          -4.6438  -25.0938  -52.8648 N.am      18 UNK        -0.5000 
    100 CA        -6.0031  -25.0168  -53.4081 C.3       18 UNK         0.1400 
    101 CB        -6.5179  -26.4224  -53.7823 C.3       18 UNK        -0.1800 
    102 C         -6.1406  -23.9922  -54.5554 C.2       18 UNK         0.5000 
    103 O         -6.7601  -24.2852  -55.5800 O.2       18 UNK        -0.5000 
    104 N         -5.5675  -22.8005  -54.3498 N.am      19 UNK        -0.5000 
    105 CA        -5.6058  -21.6650  -55.2746 C.3       19 UNK         0.1400 
    106 CB        -4.1764  -21.3439  -55.7431 C.3       19 UNK        -0.1800 
    107 C         -6.2919  -20.4473  -54.6256 C.2       19 UNK         0.5000 
    108 O         -6.0303  -19.3107  -55.0245 O.2       19 UNK        -0.5000 
    109 N         -7.1463  -20.7035  -53.6225 N.am      20 UNK        -0.5000 
    110 CA        -7.9497  -19.7371  -52.8646 C.3       20 UNK         0.1400 
    111 CB        -9.0500  -19.1355  -53.7640 C.3       20 UNK        -0.1800 
    112 C         -7.1032  -18.6612  -52.1509 C.2       20 UNK         0.5000 
    113 O         -7.5132  -17.5015  -52.0864 O.2       20 UNK        -0.5000 
    114 N         -5.9326  -19.0744  -51.6391 N.am      21 UNK        -0.5000 
    115 CA        -4.9155  -18.2380  -50.9889 C.3       21 UNK         0.1400 
    116 CB        -5.4538  -17.6205  -49.6807 C.3       21 UNK        -0.1800 
    117 C         -4.3038  -17.2018  -51.9582 C.2       21 UNK         0.5000 
    118 O         -4.1231  -16.0398  -51.5922 O.2       21 UNK        -0.5000 
    119 N         -4.0068  -17.6594  -53.1830 N.am      22 UNK        -0.5000 
    120 CA        -3.5488  -16.8626  -54.3332 C.3       22 UNK         0.1400 
    121 C         -4.6653  -15.9172  -54.8637 C.2       22 UNK         0.5000 
    122 N         -5.8480  -16.4481  -55.1463 N.am      22 UNK        -0.7600 
    123 O         -4.4728  -14.7150  -55.0289 O.2       22 UNK        -0.5000 
    124 C124       -2.1805  -16.1528  -54.1172 C.3       23 UNK        -0.0398 
    125 S125       -0.7947  -17.3234  -53.9109 S.3       23 UNK        -0.2404 
    126 C126       -0.2172  -16.9205  -52.2346 C.3       23 UNK        -0.0205 
    127 H127        5.2871  -14.8646  -45.0745 H         1 UNK         0.0600 
    128 H128        6.7373  -15.1171  -46.0519 H         1 UNK         0.0600 
    129 H129        5.5724  -16.4272  -45.8418 H         1 UNK         0.0600 
    130 H130        4.3252  -16.7323  -47.6393 H         1 UNK         0.3000 
    131 H131        3.1639  -16.5330  -49.4559 H         1 UNK         0.0600 
    132 H132        3.7647  -14.7402  -51.2077 H         1 UNK         0.0800 
    133 H133        4.8746  -14.0658  -50.0603 H         1 UNK         0.0800 
    134 H134        4.6871  -16.1626  -53.0948 H         1 UNK         0.0800 
    135 H135        5.5236  -17.6624  -52.7847 H         1 UNK         0.0800 
    136 H136        2.2948  -16.0504  -52.7880 H         1 UNK         0.1150 
    137 H137        0.1969  -19.3206  -50.9910 H         1 UNK         0.1150 
    138 H138        4.4813  -19.3264  -51.0944 H         1 UNK         0.1150 
    139 H139        1.4637  -21.3857  -50.4598 H         1 UNK         0.0800 
    140 H140        3.1949  -21.4140  -50.6473 H         1 UNK         0.0800 
    141 H141        0.3216  -19.8851  -48.7545 H         1 UNK         0.0800 
    142 H142        0.9345  -19.4621  -47.1839 H         1 UNK         0.0800 
    143 H143        0.2294  -22.3061  -48.0662 H         1 UNK         0.0600 
    144 H144        1.5270  -21.3971  -45.6674 H         1 UNK         0.3000 
    145 H145        0.8450  -24.3160  -43.7271 H         1 UNK         0.0600 
    146 H146        2.8057  -24.8672  -45.1751 H         1 UNK         0.0600 
    147 H147        3.4046  -23.2203  -45.0170 H         1 UNK         0.0600 
    148 H148        3.3217  -24.2738  -43.6047 H         1 UNK         0.0600 
    149 H149        2.3175  -21.9163  -43.1970 H         1 UNK         0.3000 
    150 H150       -0.3964  -19.9887  -41.9278 H         1 UNK         0.0600 
    151 H151        0.9708  -19.9805  -39.8840 H         1 UNK         0.0600 
    152 H152        1.9281  -21.3425  -40.4618 H         1 UNK         0.0600 
    153 H153        0.2268  -21.5581  -40.0648 H         1 UNK         0.0600 
    154 H154        2.2853  -19.3028  -41.9040 H         1 UNK         0.3000 
    155 H155        3.4363  -18.5358  -44.4028 H         1 UNK         0.0600 
    156 H156        1.9804  -17.6008  -46.1560 H         1 UNK         0.0600 
    157 H157        2.8424  -16.2751  -45.3902 H         1 UNK         0.0600 
    158 H158        1.1568  -16.5715  -44.9777 H         1 UNK         0.0600 
    159 H159        2.0131  -16.8934  -42.3763 H         1 UNK         0.3000 
    160 H160        4.9163  -16.3591  -40.5637 H         1 UNK         0.0600 
    161 H161        5.4245  -14.4892  -42.1444 H         1 UNK         0.0600 
    162 H162        4.6109  -13.8920  -40.7077 H         1 UNK         0.0600 
    163 H163        3.7179  -14.0686  -42.2192 H         1 UNK         0.0600 
    164 H164        2.3446  -15.0824  -40.4563 H         1 UNK         0.3000 
    165 H165        0.4660  -17.7335  -39.1546 H         1 UNK         0.0600 
    166 H166        0.1351  -16.3209  -37.1475 H         1 UNK         0.0600 
    167 H167        1.7071  -17.0996  -37.0773 H         1 UNK         0.0600 
    168 H168        1.5937  -15.3997  -37.5177 H         1 UNK         0.0600 
    169 H169       -0.1565  -14.9947  -39.2515 H         1 UNK         0.3000 
    170 H170       -1.8429  -14.4517  -40.8082 H         1 UNK         0.0600 
    171 H171       -0.8958  -12.7281  -42.4043 H         1 UNK         0.0600 
    172 H172        0.2690  -13.1413  -41.1587 H         1 UNK         0.0600 
    173 H173        0.4441  -13.8104  -42.7764 H         1 UNK         0.0600 
    174 H174       -1.5060  -16.0748  -43.1622 H         1 UNK         0.3000 
    175 H175       -4.2149  -16.2766  -44.1032 H         1 UNK         0.0600 
    176 H176       -4.1279  -13.5736  -45.5625 H         1 UNK         0.0600 
    177 H177       -5.0924  -14.9644  -46.0507 H         1 UNK         0.0600 
    178 H178       -5.4506  -14.1411  -44.5469 H         1 UNK         0.0600 
    179 H179       -1.7005  -15.3953  -45.2114 H         1 UNK         0.3000 
    180 H180       -0.9710  -17.8678  -46.6563 H         1 UNK         0.0600 
    181 H181       -0.8424  -17.7374  -49.1371 H         1 UNK         0.0600 
    182 H182       -2.2688  -16.7063  -49.1723 H         1 UNK         0.0600 
    183 H183       -2.3931  -18.3733  -48.6144 H         1 UNK         0.0600 
    184 H184        0.4562  -16.1937  -46.8380 H         1 UNK         0.3000 
    185 H185        0.4472  -12.8903  -48.0652 H         1 UNK         0.0600 
    186 H186        0.8365  -14.0241  -45.2384 H         1 UNK         0.0600 
    187 H187        1.4794  -12.5005  -45.8461 H         1 UNK         0.0600 
    188 H188       -0.2545  -12.7116  -45.6652 H         1 UNK         0.0600 
    189 H189        2.4636  -14.6385  -46.9834 H         1 UNK         0.3000 
    190 H190       -0.8149  -20.4091  -45.2238 H         1 UNK         0.3000 
    191 H191       -3.4404  -19.8191  -46.1258 H         1 UNK         0.0600 
    192 H192       -2.4841  -20.1875  -43.2333 H         1 UNK         0.0600 
    193 H193       -3.8767  -19.2634  -43.7758 H         1 UNK         0.0600 
    194 H194       -2.2533  -18.7163  -44.1677 H         1 UNK         0.0600 
    195 H195       -2.2113  -22.5644  -44.1555 H         1 UNK         0.3000 
    196 H196       -4.6784  -23.9084  -43.8289 H         1 UNK         0.0600 
    197 H197       -3.2198  -25.8527  -43.2198 H         1 UNK         0.0600 
    198 H198       -2.6848  -24.3712  -42.4411 H         1 UNK         0.0600 
    199 H199       -1.8122  -24.9956  -43.8388 H         1 UNK         0.0600 
    200 H200       -2.1917  -24.2113  -46.3912 H         1 UNK         0.3000 
    201 H201       -3.5872  -26.3135  -47.8267 H         1 UNK         0.0600 
    202 H202       -1.1008  -26.0473  -47.8388 H         1 UNK         0.0600 
    203 H203       -1.2607  -24.4932  -48.6527 H         1 UNK         0.0600 
    204 H204       -1.7530  -25.9775  -49.4650 H         1 UNK         0.0600 
    205 H205       -4.0999  -22.9519  -47.6424 H         1 UNK         0.3000 
    206 H206       -5.1055  -21.3575  -48.7944 H         1 UNK         0.0600 
    207 H207       -7.0753  -21.8955  -50.1912 H         1 UNK         0.0600 
    208 H208       -6.5958  -23.5846  -50.2887 H         1 UNK         0.0600 
    209 H209       -7.0820  -22.8900  -48.7441 H         1 UNK         0.0600 
    210 H210       -2.6044  -21.8705  -49.5511 H         1 UNK         0.3000 
    211 H211       -0.9781  -21.6931  -51.0509 H         1 UNK         0.0600 
    212 H212       -3.0319  -20.2624  -52.8084 H         1 UNK         0.0600 
    213 H213       -1.2876  -20.1884  -52.9970 H         1 UNK         0.0600 
    214 H214       -2.0375  -19.5101  -51.5646 H         1 UNK         0.0600 
    215 H215       -2.2647  -24.1240  -50.9834 H         1 UNK         0.3000 
    216 H216       -2.3674  -26.1355  -51.8902 H         1 UNK         0.0600 
    217 H217       -1.0322  -26.7648  -53.8532 H         1 UNK         0.0600 
    218 H218       -0.0787  -25.7268  -52.8052 H         1 UNK         0.0600 
    219 H219       -0.7788  -25.0832  -54.2898 H         1 UNK         0.0600 
    220 H220       -4.5631  -24.8993  -51.8693 H         1 UNK         0.3000 
    221 H221       -6.6310  -24.6458  -52.5971 H         1 UNK         0.0600 
    222 H222       -5.9633  -26.8487  -54.6187 H         1 UNK         0.0600 
    223 H223       -6.4344  -27.1090  -52.9399 H         1 UNK         0.0600 
    224 H224       -7.5695  -26.3901  -54.0697 H         1 UNK         0.0600 
    225 H225       -5.1165  -22.6222  -53.4550 H         1 UNK         0.3000 
    226 H226       -6.1984  -21.9116  -56.1573 H         1 UNK         0.0600 
    227 H227       -3.6983  -22.2224  -56.1769 H         1 UNK         0.0600 
    228 H228       -4.1766  -20.5643  -56.5057 H         1 UNK         0.0600 
    229 H229       -3.5513  -20.9988  -54.9213 H         1 UNK         0.0600 
    230 H230       -7.2545  -21.6697  -53.3503 H         1 UNK         0.3000 
    231 H231       -8.4441  -20.3032  -52.0740 H         1 UNK         0.0600 
    232 H232       -8.6308  -18.5067  -54.5501 H         1 UNK         0.0600 
    233 H233       -9.6414  -19.9176  -54.2400 H         1 UNK         0.0600 
    234 H234       -9.7378  -18.5192  -53.1839 H         1 UNK         0.0600 
    235 H235       -5.6814  -20.0486  -51.7769 H         1 UNK         0.3000 
    236 H236       -4.1027  -18.9056  -50.7064 H         1 UNK         0.0600 
    237 H237       -6.2644  -16.9148  -49.8612 H         1 UNK         0.0600 
    238 H238       -5.8214  -18.3907  -49.0027 H         1 UNK         0.0600 
    239 H239       -4.6705  -17.0762  -49.1545 H         1 UNK         0.0600 
    240 H240       -4.2588  -18.6110  -53.4033 H         1 UNK         0.3000 
    241 H241       -3.3977  -17.5800  -55.1411 H         1 UNK         0.0600 
    242 H242       -6.5909  -15.8597  -55.4869 H         1 UNK         0.3800 
    243 H243       -5.9989  -17.4501  -55.0490 H         1 UNK         0.3800 
    244 H244       -1.9369  -15.5398  -54.9864 H         1 UNK         0.0800 
    245 H245       -2.2260  -15.4621  -53.2750 H         1 UNK         0.0800 
    246 H246       -0.9823  -17.2072  -51.5130 H         1 UNK         0.0800 
    247 H247       -0.0918  -15.8407  -52.1373 H         1 UNK         0.0800 
@<TRIPOS>BOND
     1    1    2 1    
     2    1  127 1    
     3    1  128 1    
     4    1  129 1    
     5    2    3 2    
     6    2    4 am   BACKBONE|DICT|INTERRES
     7    4    5 1    
     8    4  130 1    
     9    5    6 1    
    10    5   65 1    
    11    5  131 1    
    12    6    7 1    
    13    6  132 1    
    14    6  133 1    
    15    7    8 1    
    16    8    9 1    
    17    8  134 1    
    18    8  135 1    
    19    9   10 ar   
    20    9   14 ar   
    21   10   11 ar   
    22   10  136 1    
    23   11   12 ar   
    24   11  126 1    
    25   12   13 ar   
    26   12  137 1    
    27   13   14 ar   
    28   13   15 1    
    29   14  138 1    
    30   15   16 1    
    31   15  139 1    
    32   15  140 1    
    33   16   17 1    
    34   17   18 1    
    35   17  141 1    
    36   17  142 1    
    37   18   19 1    
    38   18   67 1    
    39   18  143 1    
    40   19   20 am   BACKBONE|DICT|INTERRES
    41   19  144 1    
    42   20   21 2    
    43   20   22 1    
    44   22   23 1    
    45   22   24 1    
    46   22  145 1    
    47   23  146 1    
    48   23  147 1    
    49   23  148 1    
    50   24   25 am   BACKBONE|DICT|INTERRES
    51   24  149 1    
    52   25   26 2    
    53   25   27 1    
    54   27   28 1    
    55   27   29 1    
    56   27  150 1    
    57   28  151 1    
    58   28  152 1    
    59   28  153 1    
    60   29   30 am   BACKBONE|DICT|INTERRES
    61   29  154 1    
    62   30   31 2    
    63   30   32 1    
    64   32   33 1    
    65   32   34 1    
    66   32  155 1    
    67   33  156 1    
    68   33  157 1    
    69   33  158 1    
    70   34   35 am   BACKBONE|DICT|INTERRES
    71   34  159 1    
    72   35   36 2    
    73   35   37 1    
    74   37   38 1    
    75   37   39 1    
    76   37  160 1    
    77   38  161 1    
    78   38  162 1    
    79   38  163 1    
    80   39   40 am   BACKBONE|DICT|INTERRES
    81   39  164 1    
    82   40   41 2    
    83   40   42 1    
    84   42   43 1    
    85   42   44 1    
    86   42  165 1    
    87   43  166 1    
    88   43  167 1    
    89   43  168 1    
    90   44   45 am   BACKBONE|DICT|INTERRES
    91   44  169 1    
    92   45   46 2    
    93   45   47 1    
    94   47   48 1    
    95   47   49 1    
    96   47  170 1    
    97   48  171 1    
    98   48  172 1    
    99   48  173 1    
   100   49   50 am   BACKBONE|DICT|INTERRES
   101   49  174 1    
   102   50   51 2    
   103   50   52 1    
   104   52   53 1    
   105   52   54 1    
   106   52  175 1    
   107   53  176 1    
   108   53  177 1    
   109   53  178 1    
   110   54   55 am   BACKBONE|DICT|INTERRES
   111   54  179 1    
   112   55   56 2    
   113   55   57 1    
   114   57   58 1    
   115   57   59 1    
   116   57  180 1    
   117   58  181 1    
   118   58  182 1    
   119   58  183 1    
   120   59   60 am   BACKBONE|DICT|INTERRES
   121   59  184 1    
   122   60   61 2    
   123   60   62 1    
   124   62   63 1    
   125   62   64 1    
   126   62  185 1    
   127   63  186 1    
   128   63  187 1    
   129   63  188 1    
   130   64   65 am   BACKBONE|DICT|INTERRES
   131   64  189 1    
   132   65   66 2    
   133   67   68 2    
   134   67   69 am   BACKBONE|DICT|INTERRES
   135   69   70 1    
   136   69  190 1    
   137   70   71 1    
   138   70   72 1    
   139   70  191 1    
   140   71  192 1    
   141   71  193 1    
   142   71  194 1    
   143   72   73 2    
   144   72   74 am   BACKBONE|DICT|INTERRES
   145   74   75 1    
   146   74  195 1    
   147   75   76 1    
   148   75   77 1    
   149   75  196 1    
   150   76  197 1    
   151   76  198 1    
   152   76  199 1    
   153   77   78 2    
   154   77   79 am   BACKBONE|DICT|INTERRES
   155   79   80 1    
   156   79  200 1    
   157   80   81 1    
   158   80   82 1    
   159   80  201 1    
   160   81  202 1    
   161   81  203 1    
   162   81  204 1    
   163   82   83 2    
   164   82   84 am   BACKBONE|DICT|INTERRES
   165   84   85 1    
   166   84  205 1    
   167   85   86 1    
   168   85   87 1    
   169   85  206 1    
   170   86  207 1    
   171   86  208 1    
   172   86  209 1    
   173   87   88 2    
   174   87   89 am   BACKBONE|DICT|INTERRES
   175   89   90 1    
   176   89  210 1    
   177   90   91 1    
   178   90   92 1    
   179   90  211 1    
   180   91  212 1    
   181   91  213 1    
   182   91  214 1    
   183   92   93 2    
   184   92   94 am   BACKBONE|DICT|INTERRES
   185   94   95 1    
   186   94  215 1    
   187   95   96 1    
   188   95   97 1    
   189   95  216 1    
   190   96  217 1    
   191   96  218 1    
   192   96  219 1    
   193   97   98 2    
   194   97   99 am   BACKBONE|DICT|INTERRES
   195   99  100 1    
   196   99  220 1    
   197  100  101 1    
   198  100  102 1    
   199  100  221 1    
   200  101  222 1    
   201  101  223 1    
   202  101  224 1    
   203  102  103 2    
   204  102  104 am   BACKBONE|DICT|INTERRES
   205  104  105 1    
   206  104  225 1    
   207  105  106 1    
   208  105  107 1    
   209  105  226 1    
   210  106  227 1    
   211  106  228 1    
   212  106  229 1    
   213  107  108 2    
   214  107  109 am   BACKBONE|DICT|INTERRES
   215  109  110 1    
   216  109  230 1    
   217  110  111 1    
   218  110  112 1    
   219  110  231 1    
   220  111  232 1    
   221  111  233 1    
   222  111  234 1    
   223  112  113 2    
   224  112  114 am   BACKBONE|DICT|INTERRES
   225  114  115 1    
   226  114  235 1    
   227  115  116 1    
   228  115  117 1    
   229  115  236 1    
   230  116  237 1    
   231  116  238 1    
   232  116  239 1    
   233  117  118 2    
   234  117  119 am   BACKBONE|DICT|INTERRES
   235  119  120 1    
   236  119  240 1    
   237  120  121 1    
   238  120  124 1    
   239  120  241 1    
   240  121  122 am   BACKBONE|DICT|INTERRES
   241  121  123 2    
   242  122  242 1    
   243  122  243 1    
   244  124  125 1    
   245  124  244 1    
   246  124  245 1    
   247  125  126 1    
   248  126  246 1    
   249  126  247 1    
@<TRIPOS>SUBSTRUCTURE
     1 UNK         1 GROUP             0       ****    0 ROOT    
