@<TRIPOS>MOLECULE
3R540
247   249    1
SMALL
USER_CHARGES


@<TRIPOS>ATOM
      1 CA         -3.0072  -14.4548  -47.1471 C.3       0 UNK        -0.1800 
      2 C          -2.0664  -13.5331  -47.9092 C.2       0 UNK         0.5000 
      3 O          -2.5225  -12.6912  -48.6814 O.2       0 UNK        -0.5000 
      4 N          -0.7533  -13.6760  -47.6798 N.am      1 UNK        -0.5000 
      5 CA          0.2978  -12.8426  -48.2843 C.3       1 UNK         0.1400 
      6 C6          1.7027  -13.5100  -48.2449 C.3       23 UNK        -0.0398 
      7 S7          1.8135  -15.2949  -48.6267 S.3       23 UNK        -0.2404 
      8 C8          0.8413  -15.5397  -50.1484 C.3       23 UNK        -0.0205 
      9 C9         -0.0247  -16.7859  -50.0321 C.ar      23 UNK        -0.0193 
     10 C10        -1.4145  -16.6743  -49.9324 C.ar      23 UNK        -0.1150 
     11 C11        -2.2123  -17.8152  -49.8096 C.ar      23 UNK        -0.0193 
     12 C12        -1.6058  -19.0727  -49.7529 C.ar      23 UNK        -0.1150 
     13 C13        -0.2190  -19.2012  -49.8545 C.ar      23 UNK        -0.0193 
     14 C14         0.5650  -18.0541  -50.0106 C.ar      23 UNK        -0.1150 
     15 C15         0.4289  -20.5759  -49.7842 C.3       23 UNK        -0.0205 
     16 S16         1.3418  -20.7738  -48.2264 S.3       23 UNK        -0.2404 
     17 C17         1.6067  -22.5709  -48.1380 C.3       23 UNK        -0.0398 
     18 CA          0.7019  -23.3150  -47.1238 C.3       11 UNK         0.1400 
     19 N           0.7385  -22.7765  -45.7568 N.am      11 UNK        -0.5000 
     20 C           0.3550  -23.4883  -44.6851 C.2       10 UNK         0.5000 
     21 O          -0.0508  -24.6486  -44.7560 O.2       10 UNK        -0.5000 
     22 CA          0.3861  -22.7954  -43.3118 C.3       10 UNK         0.1400 
     23 CB          1.8208  -22.6609  -42.7788 C.3       10 UNK        -0.1800 
     24 N          -0.2738  -21.4920  -43.3250 N.am      10 UNK        -0.5000 
     25 C          -1.5908  -21.3172  -43.5046 C.2       9 UNK         0.5000 
     26 O          -2.3857  -22.2405  -43.6744 O.2       9 UNK        -0.5000 
     27 CA         -2.1077  -19.8675  -43.5285 C.3       9 UNK         0.1400 
     28 CB         -2.3615  -19.3563  -42.1027 C.3       9 UNK        -0.1800 
     29 N          -1.2010  -18.9518  -44.2159 N.am      9 UNK        -0.5000 
     30 C          -0.8569  -19.0506  -45.5077 C.2       8 UNK         0.5000 
     31 O          -1.3003  -19.9056  -46.2716 O.2       8 UNK        -0.5000 
     32 CA          0.1984  -18.0489  -46.0028 C.3       8 UNK         0.1400 
     33 CB         -0.4379  -16.6671  -46.1931 C.3       8 UNK        -0.1800 
     34 N           1.3396  -17.9431  -45.0916 N.am      8 UNK        -0.5000 
     35 C           2.1234  -18.9595  -44.6995 C.2       7 UNK         0.5000 
     36 O           1.9972  -20.1224  -45.0803 O.2       7 UNK        -0.5000 
     37 CA          3.1962  -18.6282  -43.6506 C.3       7 UNK         0.1400 
     38 CB          4.4494  -18.0373  -44.3135 C.3       7 UNK        -0.1800 
     39 N           2.6818  -17.7047  -42.6395 N.am      7 UNK        -0.5000 
     40 C           1.8015  -18.0489  -41.6883 C.2       6 UNK         0.5000 
     41 O           1.3864  -19.1966  -41.5241 O.2       6 UNK        -0.5000 
     42 CA          1.2706  -16.9117  -40.7944 C.3       6 UNK         0.1400 
     43 CB          2.2364  -16.6403  -39.6313 C.3       6 UNK        -0.1800 
     44 N           1.0429  -15.6693  -41.5365 N.am      6 UNK        -0.5000 
     45 C           0.0936  -15.5132  -42.4699 C.2       5 UNK         0.5000 
     46 O          -0.7179  -16.3901  -42.7656 O.2       5 UNK        -0.5000 
     47 CA          0.0728  -14.1719  -43.2331 C.3       5 UNK         0.1400 
     48 CB         -0.8524  -13.1645  -42.5361 C.3       5 UNK        -0.1800 
     49 N           1.3940  -13.5617  -43.4235 N.am      5 UNK        -0.5000 
     50 C           2.4192  -14.1340  -44.0708 C.2       4 UNK         0.5000 
     51 O           2.3635  -15.2644  -44.5545 O.2       4 UNK        -0.5000 
     52 CA          3.6940  -13.2878  -44.2143 C.3       4 UNK         0.1400 
     53 CB          4.7488  -13.9282  -45.1363 C.3       4 UNK        -0.1800 
     54 N           3.3370  -11.9652  -44.7181 N.am      4 UNK        -0.5000 
     55 C           3.9281  -10.8126  -44.3821 C.2       3 UNK         0.5000 
     56 O           4.8665  -10.7305  -43.5890 O.2       3 UNK        -0.5000 
     57 CA          3.3811   -9.5321  -45.0462 C.3       3 UNK         0.1400 
     58 CB          4.3161   -9.0741  -46.1760 C.3       3 UNK        -0.1800 
     59 N           2.0319   -9.6960  -45.5932 N.am      3 UNK        -0.5000 
     60 C           0.9090   -9.7837  -44.8711 C.2       2 UNK         0.5000 
     61 O           0.8810   -9.7103  -43.6427 O.2       2 UNK        -0.5000 
     62 CA         -0.3939  -10.0522  -45.6454 C.3       2 UNK         0.1400 
     63 CB         -0.8706   -8.8041  -46.4127 C.3       2 UNK        -0.1800 
     64 N          -0.3221  -11.2379  -46.5108 N.am      2 UNK        -0.5000 
     65 C           0.3792  -11.4367  -47.6395 C.2       1 UNK         0.5000 
     66 O           1.1100  -10.5848  -48.1463 O.2       1 UNK        -0.5000 
     67 C          -0.7372  -23.5234  -47.6392 C.2       11 UNK         0.5000 
     68 O          -0.9821  -24.5216  -48.3164 O.2       11 UNK        -0.5000 
     69 N          -1.6754  -22.6379  -47.2685 N.am      12 UNK        -0.5000 
     70 CA         -3.1026  -22.7938  -47.5626 C.3       12 UNK         0.1400 
     71 CB         -3.8634  -21.5118  -47.1961 C.3       12 UNK        -0.1800 
     72 C          -3.7358  -24.0130  -46.8661 C.2       12 UNK         0.5000 
     73 O          -4.6126  -24.6437  -47.4527 O.2       12 UNK        -0.5000 
     74 N          -3.2847  -24.3309  -45.6443 N.am      13 UNK        -0.5000 
     75 CA         -3.7102  -25.5152  -44.8974 C.3       13 UNK         0.1400 
     76 CB         -3.3807  -25.3326  -43.4081 C.3       13 UNK        -0.1800 
     77 C          -3.0820  -26.8144  -45.4347 C.2       13 UNK         0.5000 
     78 O          -3.7455  -27.8522  -45.4232 O.2       13 UNK        -0.5000 
     79 N          -1.8172  -26.7444  -45.8746 N.am      14 UNK        -0.5000 
     80 CA         -1.0766  -27.8692  -46.4483 C.3       14 UNK         0.1400 
     81 CB          0.4184  -27.5210  -46.5128 C.3       14 UNK        -0.1800 
     82 C          -1.6026  -28.2758  -47.8369 C.2       14 UNK         0.5000 
     83 O          -1.7686  -29.4678  -48.1016 O.2       14 UNK        -0.5000 
     84 N          -1.8573  -27.2789  -48.6923 N.am      15 UNK        -0.5000 
     85 CA         -2.4710  -27.4402  -50.0083 C.3       15 UNK         0.1400 
     86 CB         -2.0733  -26.2317  -50.8733 C.3       15 UNK        -0.1800 
     87 C          -4.0048  -27.5575  -49.9079 C.2       15 UNK         0.5000 
     88 O          -4.5822  -27.4052  -48.8298 O.2       15 UNK        -0.5000 
     89 N          -4.6596  -27.7746  -51.0550 N.am      16 UNK        -0.5000 
     90 CA         -6.1160  -27.7236  -51.2051 C.3       16 UNK         0.1400 
     91 CB         -6.5176  -28.5644  -52.4305 C.3       16 UNK        -0.1800 
     92 C          -6.5883  -26.2572  -51.3059 C.2       16 UNK         0.5000 
     93 O          -7.0082  -25.8163  -52.3761 O.2       16 UNK        -0.5000 
     94 N          -6.4237  -25.5101  -50.2036 N.am      17 UNK        -0.5000 
     95 CA         -6.6634  -24.0687  -50.0218 C.3       17 UNK         0.1400 
     96 CB         -8.1122  -23.6829  -50.3849 C.3       17 UNK        -0.1800 
     97 C          -5.6388  -23.1542  -50.7294 C.2       17 UNK         0.5000 
     98 O          -5.7047  -21.9372  -50.5539 O.2       17 UNK        -0.5000 
     99 N          -4.7166  -23.7426  -51.5062 N.am      18 UNK        -0.5000 
    100 CA        -3.7020  -23.1356  -52.3763 C.3       18 UNK         0.1400 
    101 CB        -2.7063  -22.2645  -51.5881 C.3       18 UNK        -0.1800 
    102 C         -4.3093  -22.3781  -53.5716 C.2       18 UNK         0.5000 
    103 O         -4.0430  -22.7486  -54.7155 O.2       18 UNK        -0.5000 
    104 N         -5.1264  -21.3577  -53.2802 N.am      19 UNK        -0.5000 
    105 CA        -5.9242  -20.5062  -54.1694 C.3       19 UNK         0.1400 
    106 CB        -6.9995  -21.3293  -54.9034 C.3       19 UNK        -0.1800 
    107 C         -5.1071  -19.6462  -55.1522 C.2       19 UNK         0.5000 
    108 O         -5.2317  -18.4222  -55.1310 O.2       19 UNK        -0.5000 
    109 N         -4.2844  -20.2878  -55.9901 N.am      20 UNK        -0.5000 
    110 CA        -3.4467  -19.6510  -57.0085 C.3       20 UNK         0.1400 
    111 CB        -2.8701  -20.7308  -57.9360 C.3       20 UNK        -0.1800 
    112 C         -2.3203  -18.7958  -56.4025 C.2       20 UNK         0.5000 
    113 O         -2.0023  -17.7339  -56.9394 O.2       20 UNK        -0.5000 
    114 N         -1.7676  -19.2549  -55.2709 N.am      21 UNK        -0.5000 
    115 CA        -0.7562  -18.5414  -54.4871 C.3       21 UNK         0.1400 
    116 CB        -0.1676  -19.5017  -53.4433 C.3       21 UNK        -0.1800 
    117 C         -1.3085  -17.2782  -53.7976 C.2       21 UNK         0.5000 
    118 O         -0.5397  -16.3612  -53.5080 O.2       21 UNK        -0.5000 
    119 N         -2.6261  -17.2538  -53.5613 N.am      22 UNK        -0.5000 
    120 CA        -3.3504  -16.1577  -52.9056 C.3       22 UNK         0.1400 
    121 C         -3.6313  -14.9318  -53.8243 C.2       22 UNK         0.5000 
    122 N         -3.3382  -14.9820  -55.1189 N.am      22 UNK        -0.7600 
    123 O         -4.1188  -13.9092  -53.3509 O.2       22 UNK        -0.5000 
    124 C124       -4.6530  -16.6421  -52.2100 C.3       23 UNK        -0.0398 
    125 S125       -4.5183  -18.2166  -51.2854 S.3       23 UNK        -0.2404 
    126 C126       -3.7272  -17.7033  -49.7275 C.3       23 UNK        -0.0205 
    127 H127       -3.0990  -15.4125  -47.6569 H         1 UNK         0.0600 
    128 H128       -4.0004  -14.0115  -47.0742 H         1 UNK         0.0600 
    129 H129       -2.6474  -14.6332  -46.1340 H         1 UNK         0.0600 
    130 H130       -0.4276  -14.4195  -47.0794 H         1 UNK         0.3000 
    131 H131        0.0355  -12.6767  -49.3306 H         1 UNK         0.0600 
    132 H132        2.3777  -12.9858  -48.9239 H         1 UNK         0.0800 
    133 H133        2.1419  -13.3997  -47.2523 H         1 UNK         0.0800 
    134 H134        0.2239  -14.6705  -50.3689 H         1 UNK         0.0800 
    135 H135        1.5214  -15.6498  -50.9941 H         1 UNK         0.0800 
    136 H136       -1.8752  -15.6979  -49.9548 H         1 UNK         0.1150 
    137 H137       -2.2184  -19.9532  -49.6310 H         1 UNK         0.1150 
    138 H138        1.6395  -18.1462  -50.0816 H         1 UNK         0.1150 
    139 H139       -0.3282  -21.3569  -49.8632 H         1 UNK         0.0800 
    140 H140        1.1081  -20.7086  -50.6273 H         1 UNK         0.0800 
    141 H141        1.5155  -23.0080  -49.1341 H         1 UNK         0.0800 
    142 H142        2.6485  -22.7209  -47.8524 H         1 UNK         0.0800 
    143 H143        1.1263  -24.3191  -47.0591 H         1 UNK         0.0600 
    144 H144        1.0566  -21.8174  -45.6420 H         1 UNK         0.3000 
    145 H145       -0.1628  -23.4310  -42.6134 H         1 UNK         0.0600 
    146 H146        1.8332  -22.1953  -41.7931 H         1 UNK         0.0600 
    147 H147        2.2903  -23.6405  -42.6823 H         1 UNK         0.0600 
    148 H148        2.4499  -22.0639  -43.4376 H         1 UNK         0.0600 
    149 H149        0.3165  -20.6785  -43.2141 H         1 UNK         0.3000 
    150 H150       -3.0568  -19.8623  -44.0682 H         1 UNK         0.0600 
    151 H151       -3.0504  -20.0122  -41.5689 H         1 UNK         0.0600 
    152 H152       -2.8032  -18.3597  -42.1146 H         1 UNK         0.0600 
    153 H153       -1.4388  -19.3052  -41.5236 H         1 UNK         0.0600 
    154 H154       -0.8234  -18.1849  -43.6683 H         1 UNK         0.3000 
    155 H155        0.5804  -18.3782  -46.9681 H         1 UNK         0.0600 
    156 H156       -1.0521  -16.6622  -47.0925 H         1 UNK         0.0600 
    157 H157        0.3197  -15.8940  -46.2972 H         1 UNK         0.0600 
    158 H158       -1.0806  -16.3900  -45.3588 H         1 UNK         0.0600 
    159 H159        1.5706  -17.0109  -44.7618 H         1 UNK         0.3000 
    160 H160        3.4832  -19.5579  -43.1543 H         1 UNK         0.0600 
    161 H161        4.2205  -17.1371  -44.8833 H         1 UNK         0.0600 
    162 H162        4.8932  -18.7540  -45.0055 H         1 UNK         0.0600 
    163 H163        5.2089  -17.7854  -43.5735 H         1 UNK         0.0600 
    164 H164        2.9223  -16.7308  -42.7529 H         1 UNK         0.3000 
    165 H165        0.3160  -17.2378  -40.3756 H         1 UNK         0.0600 
    166 H166        1.8325  -15.8911  -38.9502 H         1 UNK         0.0600 
    167 H167        2.4103  -17.5466  -39.0496 H         1 UNK         0.0600 
    168 H168        3.2056  -16.2860  -39.9847 H         1 UNK         0.0600 
    169 H169        1.6667  -14.8989  -41.3474 H         1 UNK         0.3000 
    170 H170       -0.3373  -14.3705  -44.2244 H         1 UNK         0.0600 
    171 H171       -1.8546  -13.5765  -42.4098 H         1 UNK         0.0600 
    172 H172       -0.4806  -12.8949  -41.5469 H         1 UNK         0.0600 
    173 H173       -0.9501  -12.2483  -43.1186 H         1 UNK         0.0600 
    174 H174        1.5192  -12.6314  -43.0493 H         1 UNK         0.3000 
    175 H175        4.1201  -13.1979  -43.2130 H         1 UNK         0.0600 
    176 H176        4.3579  -14.0969  -46.1404 H         1 UNK         0.0600 
    177 H177        5.6331  -13.2968  -45.2231 H         1 UNK         0.0600 
    178 H178        5.0784  -14.8900  -44.7434 H         1 UNK         0.0600 
    179 H179        2.5567  -11.9273  -45.3563 H         1 UNK         0.3000 
    180 H180        3.3536   -8.7510  -44.2837 H         1 UNK         0.0600 
    181 H181        4.3708   -9.8131  -46.9765 H         1 UNK         0.0600 
    182 H182        5.3296   -8.9141  -45.8057 H         1 UNK         0.0600 
    183 H183        3.9778   -8.1332  -46.6104 H         1 UNK         0.0600 
    184 H184        1.9485   -9.7970  -46.6012 H         1 UNK         0.3000 
    185 H185       -1.1579  -10.2802  -44.9004 H         1 UNK         0.0600 
    186 H186       -1.0258   -7.9672  -45.7308 H         1 UNK         0.0600 
    187 H187       -0.1501   -8.4792  -47.1635 H         1 UNK         0.0600 
    188 H188       -1.8182   -8.9919  -46.9176 H         1 UNK         0.0600 
    189 H189       -0.8753  -12.0206  -46.1936 H         1 UNK         0.3000 
    190 H190       -1.4036  -21.8020  -46.7567 H         1 UNK         0.3000 
    191 H191       -3.2055  -22.9457  -48.6382 H         1 UNK         0.0600 
    192 H192       -3.7831  -21.2882  -46.1319 H         1 UNK         0.0600 
    193 H193       -4.9233  -21.6050  -47.4364 H         1 UNK         0.0600 
    194 H194       -3.4827  -20.6540  -47.7490 H         1 UNK         0.0600 
    195 H195       -2.6123  -23.7232  -45.1906 H         1 UNK         0.3000 
    196 H196       -4.7942  -25.6101  -44.9899 H         1 UNK         0.0600 
    197 H197       -3.6860  -26.2053  -42.8295 H         1 UNK         0.0600 
    198 H198       -3.9024  -24.4701  -42.9932 H         1 UNK         0.0600 
    199 H199       -2.3122  -25.1873  -43.2458 H         1 UNK         0.0600 
    200 H200       -1.3142  -25.8696  -45.7716 H         1 UNK         0.3000 
    201 H201       -1.1936  -28.7264  -45.7819 H         1 UNK         0.0600 
    202 H202        0.8109  -27.2797  -45.5248 H         1 UNK         0.0600 
    203 H203        0.6049  -26.6680  -47.1652 H         1 UNK         0.0600 
    204 H204        0.9979  -28.3610  -46.8975 H         1 UNK         0.0600 
    205 H205       -1.6863  -26.3223  -48.3951 H         1 UNK         0.3000 
    206 H206       -2.0866  -28.3489  -50.4759 H         1 UNK         0.0600 
    207 H207       -0.9899  -26.1188  -50.9178 H         1 UNK         0.0600 
    208 H208       -2.4271  -26.3368  -51.8991 H         1 UNK         0.0600 
    209 H209       -2.4855  -25.3051  -50.4728 H         1 UNK         0.0600 
    210 H210       -4.1298  -27.8858  -51.9075 H         1 UNK         0.3000 
    211 H211       -6.5914  -28.1674  -50.3276 H         1 UNK         0.0600 
    212 H212       -6.0607  -28.1901  -53.3475 H         1 UNK         0.0600 
    213 H213       -7.5989  -28.5538  -52.5732 H         1 UNK         0.0600 
    214 H214       -6.2176  -29.6053  -52.3081 H         1 UNK         0.0600 
    215 H215       -5.9883  -25.9661  -49.4059 H         1 UNK         0.3000 
    216 H216       -6.5469  -23.8797  -48.9551 H         1 UNK         0.0600 
    217 H217       -8.3297  -22.6601  -50.0750 H         1 UNK         0.0600 
    218 H218       -8.8318  -24.3318  -49.8859 H         1 UNK         0.0600 
    219 H219       -8.2944  -23.7376  -51.4583 H         1 UNK         0.0600 
    220 H220       -4.8050  -24.7433  -51.5994 H         1 UNK         0.3000 
    221 H221       -3.1359  -23.9700  -52.7929 H         1 UNK         0.0600 
    222 H222       -3.1865  -21.3941  -51.1421 H         1 UNK         0.0600 
    223 H223       -2.2285  -22.8336  -50.7913 H         1 UNK         0.0600 
    224 H224       -1.9131  -21.9012  -52.2411 H         1 UNK         0.0600 
    225 H225       -5.2729  -21.1867  -52.2882 H         1 UNK         0.3000 
    226 H226       -6.4456  -19.8103  -53.5101 H         1 UNK         0.0600 
    227 H227       -7.6408  -21.8553  -54.1958 H         1 UNK         0.0600 
    228 H228       -7.6402  -20.6839  -55.5054 H         1 UNK         0.0600 
    229 H229       -6.5631  -22.0712  -55.5726 H         1 UNK         0.0600 
    230 H230       -4.2019  -21.2954  -55.8792 H         1 UNK         0.3000 
    231 H231       -4.0811  -18.9909  -57.6037 H         1 UNK         0.0600 
    232 H232       -2.2505  -20.2863  -58.7160 H         1 UNK         0.0600 
    233 H233       -3.6646  -21.2892  -58.4315 H         1 UNK         0.0600 
    234 H234       -2.2510  -21.4431  -57.3890 H         1 UNK         0.0600 
    235 H235       -2.0935  -20.1361  -54.9029 H         1 UNK         0.3000 
    236 H236        0.0444  -18.2315  -55.1619 H         1 UNK         0.0600 
    237 H237        0.2383  -20.3997  -53.9091 H         1 UNK         0.0600 
    238 H238        0.6444  -19.0251  -52.8930 H         1 UNK         0.0600 
    239 H239       -0.9192  -19.8059  -52.7147 H         1 UNK         0.0600 
    240 H240       -3.1929  -18.0326  -53.8622 H         1 UNK         0.3000 
    241 H241       -2.6998  -15.7697  -52.1239 H         1 UNK         0.0600 
    242 H242       -3.5219  -14.1808  -55.7019 H         1 UNK         0.3800 
    243 H243       -2.9387  -15.8165  -55.5224 H         1 UNK         0.3800 
    244 H244       -5.0294  -15.8713  -51.5357 H         1 UNK         0.0800 
    245 H245       -5.4362  -16.7871  -52.9558 H         1 UNK         0.0800 
    246 H246       -4.0359  -16.6905  -49.4675 H         1 UNK         0.0800 
    247 H247       -4.0870  -18.3477  -48.9240 H         1 UNK         0.0800 
@<TRIPOS>BOND
     1    1    2 1    
     2    1  127 1    
     3    1  128 1    
     4    1  129 1    
     5    2    3 2    
     6    2    4 am   BACKBONE|DICT|INTERRES
     7    4    5 1    
     8    4  130 1    
     9    5    6 1    
    10    5   65 1    
    11    5  131 1    
    12    6    7 1    
    13    6  132 1    
    14    6  133 1    
    15    7    8 1    
    16    8    9 1    
    17    8  134 1    
    18    8  135 1    
    19    9   10 ar   
    20    9   14 ar   
    21   10   11 ar   
    22   10  136 1    
    23   11   12 ar   
    24   11  126 1    
    25   12   13 ar   
    26   12  137 1    
    27   13   14 ar   
    28   13   15 1    
    29   14  138 1    
    30   15   16 1    
    31   15  139 1    
    32   15  140 1    
    33   16   17 1    
    34   17   18 1    
    35   17  141 1    
    36   17  142 1    
    37   18   19 1    
    38   18   67 1    
    39   18  143 1    
    40   19   20 am   BACKBONE|DICT|INTERRES
    41   19  144 1    
    42   20   21 2    
    43   20   22 1    
    44   22   23 1    
    45   22   24 1    
    46   22  145 1    
    47   23  146 1    
    48   23  147 1    
    49   23  148 1    
    50   24   25 am   BACKBONE|DICT|INTERRES
    51   24  149 1    
    52   25   26 2    
    53   25   27 1    
    54   27   28 1    
    55   27   29 1    
    56   27  150 1    
    57   28  151 1    
    58   28  152 1    
    59   28  153 1    
    60   29   30 am   BACKBONE|DICT|INTERRES
    61   29  154 1    
    62   30   31 2    
    63   30   32 1    
    64   32   33 1    
    65   32   34 1    
    66   32  155 1    
    67   33  156 1    
    68   33  157 1    
    69   33  158 1    
    70   34   35 am   BACKBONE|DICT|INTERRES
    71   34  159 1    
    72   35   36 2    
    73   35   37 1    
    74   37   38 1    
    75   37   39 1    
    76   37  160 1    
    77   38  161 1    
    78   38  162 1    
    79   38  163 1    
    80   39   40 am   BACKBONE|DICT|INTERRES
    81   39  164 1    
    82   40   41 2    
    83   40   42 1    
    84   42   43 1    
    85   42   44 1    
    86   42  165 1    
    87   43  166 1    
    88   43  167 1    
    89   43  168 1    
    90   44   45 am   BACKBONE|DICT|INTERRES
    91   44  169 1    
    92   45   46 2    
    93   45   47 1    
    94   47   48 1    
    95   47   49 1    
    96   47  170 1    
    97   48  171 1    
    98   48  172 1    
    99   48  173 1    
   100   49   50 am   BACKBONE|DICT|INTERRES
   101   49  174 1    
   102   50   51 2    
   103   50   52 1    
   104   52   53 1    
   105   52   54 1    
   106   52  175 1    
   107   53  176 1    
   108   53  177 1    
   109   53  178 1    
   110   54   55 am   BACKBONE|DICT|INTERRES
   111   54  179 1    
   112   55   56 2    
   113   55   57 1    
   114   57   58 1    
   115   57   59 1    
   116   57  180 1    
   117   58  181 1    
   118   58  182 1    
   119   58  183 1    
   120   59   60 am   BACKBONE|DICT|INTERRES
   121   59  184 1    
   122   60   61 2    
   123   60   62 1    
   124   62   63 1    
   125   62   64 1    
   126   62  185 1    
   127   63  186 1    
   128   63  187 1    
   129   63  188 1    
   130   64   65 am   BACKBONE|DICT|INTERRES
   131   64  189 1    
   132   65   66 2    
   133   67   68 2    
   134   67   69 am   BACKBONE|DICT|INTERRES
   135   69   70 1    
   136   69  190 1    
   137   70   71 1    
   138   70   72 1    
   139   70  191 1    
   140   71  192 1    
   141   71  193 1    
   142   71  194 1    
   143   72   73 2    
   144   72   74 am   BACKBONE|DICT|INTERRES
   145   74   75 1    
   146   74  195 1    
   147   75   76 1    
   148   75   77 1    
   149   75  196 1    
   150   76  197 1    
   151   76  198 1    
   152   76  199 1    
   153   77   78 2    
   154   77   79 am   BACKBONE|DICT|INTERRES
   155   79   80 1    
   156   79  200 1    
   157   80   81 1    
   158   80   82 1    
   159   80  201 1    
   160   81  202 1    
   161   81  203 1    
   162   81  204 1    
   163   82   83 2    
   164   82   84 am   BACKBONE|DICT|INTERRES
   165   84   85 1    
   166   84  205 1    
   167   85   86 1    
   168   85   87 1    
   169   85  206 1    
   170   86  207 1    
   171   86  208 1    
   172   86  209 1    
   173   87   88 2    
   174   87   89 am   BACKBONE|DICT|INTERRES
   175   89   90 1    
   176   89  210 1    
   177   90   91 1    
   178   90   92 1    
   179   90  211 1    
   180   91  212 1    
   181   91  213 1    
   182   91  214 1    
   183   92   93 2    
   184   92   94 am   BACKBONE|DICT|INTERRES
   185   94   95 1    
   186   94  215 1    
   187   95   96 1    
   188   95   97 1    
   189   95  216 1    
   190   96  217 1    
   191   96  218 1    
   192   96  219 1    
   193   97   98 2    
   194   97   99 am   BACKBONE|DICT|INTERRES
   195   99  100 1    
   196   99  220 1    
   197  100  101 1    
   198  100  102 1    
   199  100  221 1    
   200  101  222 1    
   201  101  223 1    
   202  101  224 1    
   203  102  103 2    
   204  102  104 am   BACKBONE|DICT|INTERRES
   205  104  105 1    
   206  104  225 1    
   207  105  106 1    
   208  105  107 1    
   209  105  226 1    
   210  106  227 1    
   211  106  228 1    
   212  106  229 1    
   213  107  108 2    
   214  107  109 am   BACKBONE|DICT|INTERRES
   215  109  110 1    
   216  109  230 1    
   217  110  111 1    
   218  110  112 1    
   219  110  231 1    
   220  111  232 1    
   221  111  233 1    
   222  111  234 1    
   223  112  113 2    
   224  112  114 am   BACKBONE|DICT|INTERRES
   225  114  115 1    
   226  114  235 1    
   227  115  116 1    
   228  115  117 1    
   229  115  236 1    
   230  116  237 1    
   231  116  238 1    
   232  116  239 1    
   233  117  118 2    
   234  117  119 am   BACKBONE|DICT|INTERRES
   235  119  120 1    
   236  119  240 1    
   237  120  121 1    
   238  120  124 1    
   239  120  241 1    
   240  121  122 am   BACKBONE|DICT|INTERRES
   241  121  123 2    
   242  122  242 1    
   243  122  243 1    
   244  124  125 1    
   245  124  244 1    
   246  124  245 1    
   247  125  126 1    
   248  126  246 1    
   249  126  247 1    
@<TRIPOS>SUBSTRUCTURE
     1 UNK         1 GROUP             0       ****    0 ROOT    
