@<TRIPOS>MOLECULE
3R540
247   249    1
SMALL
USER_CHARGES


@<TRIPOS>ATOM
      1 CA         -4.1626   -8.4305  -45.8719 C.3       0 UNK        -0.1800 
      2 C          -2.8814   -8.9923  -46.4727 C.2       0 UNK         0.5000 
      3 O          -1.9191   -8.2489  -46.6687 O.2       0 UNK        -0.5000 
      4 N          -2.8704  -10.2958  -46.7738 N.am      1 UNK        -0.5000 
      5 CA         -1.7098  -11.0325  -47.2823 C.3       1 UNK         0.1400 
      6 C6         -2.1410  -12.3028  -48.0614 C.3       23 UNK        -0.0398 
      7 S7         -3.0815  -13.5265  -47.0817 S.3       23 UNK        -0.2404 
      8 C8         -3.7340  -14.6099  -48.3931 C.3       23 UNK        -0.0205 
      9 C9         -2.6221  -15.3053  -49.1644 C.ar      23 UNK        -0.0193 
     10 C10        -2.1958  -14.7980  -50.3950 C.ar      23 UNK        -0.1150 
     11 C11        -1.1677  -15.4233  -51.1054 C.ar      23 UNK        -0.0193 
     12 C12        -0.5640  -16.5664  -50.5714 C.ar      23 UNK        -0.1150 
     13 C13        -0.9732  -17.0770  -49.3349 C.ar      23 UNK        -0.0193 
     14 C14        -2.0086  -16.4466  -48.6427 C.ar      23 UNK        -0.1150 
     15 C15        -0.2561  -18.2696  -48.7198 C.3       23 UNK        -0.0205 
     16 S16        -0.6974  -19.8375  -49.5225 S.3       23 UNK        -0.2404 
     17 C17        -2.2729  -20.3005  -48.7251 C.3       23 UNK        -0.0398 
     18 CA         -2.0341  -21.4134  -47.6816 C.3       11 UNK         0.1400 
     19 N          -1.4363  -20.9073  -46.4446 N.am      11 UNK        -0.5000 
     20 C          -0.7044  -21.6655  -45.6192 C.2       10 UNK         0.5000 
     21 O          -0.4710  -22.8582  -45.8126 O.2       10 UNK        -0.5000 
     22 CA         -0.1833  -20.9836  -44.3454 C.3       10 UNK         0.1400 
     23 CB          1.0292  -20.0952  -44.6597 C.3       10 UNK        -0.1800 
     24 N          -1.2226  -20.1968  -43.6807 N.am      10 UNK        -0.5000 
     25 C          -2.2894  -20.7361  -43.0717 C.2       9 UNK         0.5000 
     26 O          -2.4989  -21.9475  -43.0098 O.2       9 UNK        -0.5000 
     27 CA         -3.3166  -19.7664  -42.4598 C.3       9 UNK         0.1400 
     28 CB         -2.9565  -19.4489  -41.0012 C.3       9 UNK        -0.1800 
     29 N          -3.4609  -18.5217  -43.2158 N.am      9 UNK        -0.5000 
     30 C          -3.9335  -18.4495  -44.4690 C.2       8 UNK         0.5000 
     31 O          -4.2700  -19.4304  -45.1290 O.2       8 UNK        -0.5000 
     32 CA         -3.9986  -17.0579  -45.1205 C.3       8 UNK         0.1400 
     33 CB         -5.3508  -16.3891  -44.8361 C.3       8 UNK        -0.1800 
     34 N          -2.9217  -16.1582  -44.7078 N.am      8 UNK        -0.5000 
     35 C          -1.6098  -16.4018  -44.8267 C.2       7 UNK         0.5000 
     36 O          -1.1524  -17.4467  -45.2953 O.2       7 UNK        -0.5000 
     37 CA         -0.6427  -15.3096  -44.3258 C.3       7 UNK         0.1400 
     38 CB         -1.3336  -14.1541  -43.5649 C.3       7 UNK        -0.1800 
     39 N           0.4371  -15.8755  -43.5123 N.am      7 UNK        -0.5000 
     40 C           0.2976  -16.5786  -42.3776 C.2       6 UNK         0.5000 
     41 O          -0.7980  -16.8277  -41.8717 O.2       6 UNK        -0.5000 
     42 CA          1.5820  -17.1013  -41.6944 C.3       6 UNK         0.1400 
     43 CB          1.3167  -18.3761  -40.8708 C.3       6 UNK        -0.1800 
     44 N           2.6712  -17.3707  -42.6373 N.am      6 UNK        -0.5000 
     45 C           3.5456  -16.4700  -43.1007 C.2       5 UNK         0.5000 
     46 O           3.5299  -15.2822  -42.7701 O.2       5 UNK        -0.5000 
     47 CA          4.6019  -16.9805  -44.0983 C.3       5 UNK         0.1400 
     48 CB          4.0862  -18.1132  -45.0105 C.3       5 UNK        -0.1800 
     49 N           5.0552  -15.8722  -44.9299 N.am      5 UNK        -0.5000 
     50 C           6.3000  -15.6935  -45.3877 C.2       4 UNK         0.5000 
     51 O           7.2376  -16.4463  -45.1162 O.2       4 UNK        -0.5000 
     52 CA          6.5319  -14.4680  -46.3031 C.3       4 UNK         0.1400 
     53 CB          7.7544  -14.6317  -47.2307 C.3       4 UNK        -0.1800 
     54 N           5.3400  -14.0852  -47.0716 N.am      4 UNK        -0.5000 
     55 C           4.6656  -14.8359  -47.9582 C.2       3 UNK         0.5000 
     56 O           5.0392  -15.9455  -48.3414 O.2       3 UNK        -0.5000 
     57 CA          3.3387  -14.2464  -48.4898 C.3       3 UNK         0.1400 
     58 CB          2.3178  -15.3405  -48.8653 C.3       3 UNK        -0.1800 
     59 N           2.7103  -13.2616  -47.5948 N.am      3 UNK        -0.5000 
     60 C           2.2976  -13.4648  -46.3319 C.2       2 UNK         0.5000 
     61 O           2.4634  -14.5134  -45.7088 O.2       2 UNK        -0.5000 
     62 CA          1.5488  -12.3030  -45.6704 C.3       2 UNK         0.1400 
     63 CB          2.4986  -11.1510  -45.3014 C.3       2 UNK        -0.1800 
     64 N           0.4900  -11.8355  -46.5637 N.am      2 UNK        -0.5000 
     65 C          -0.6861  -11.3405  -46.1629 C.2       1 UNK         0.5000 
     66 O          -0.9741  -11.1471  -44.9787 O.2       1 UNK        -0.5000 
     67 C          -3.2869  -22.2721  -47.4103 C.2       11 UNK         0.5000 
     68 O          -3.5386  -23.2051  -48.1716 O.2       11 UNK        -0.5000 
     69 N          -4.0117  -22.0143  -46.3107 N.am      12 UNK        -0.5000 
     70 CA         -5.0938  -22.8744  -45.8235 C.3       12 UNK         0.1400 
     71 CB         -5.8667  -22.1745  -44.6971 C.3       12 UNK        -0.1800 
     72 C          -4.5817  -24.2498  -45.3577 C.2       12 UNK         0.5000 
     73 O          -5.1961  -25.2636  -45.6881 O.2       12 UNK        -0.5000 
     74 N          -3.4373  -24.2755  -44.6566 N.am      13 UNK        -0.5000 
     75 CA         -2.7325  -25.5033  -44.2691 C.3       13 UNK         0.1400 
     76 CB         -1.6047  -25.1620  -43.2842 C.3       13 UNK        -0.1800 
     77 C          -2.1862  -26.2887  -45.4796 C.2       13 UNK         0.5000 
     78 O          -2.1262  -27.5173  -45.4337 O.2       13 UNK        -0.5000 
     79 N          -1.8520  -25.5674  -46.5577 N.am      14 UNK        -0.5000 
     80 CA         -1.4721  -26.1027  -47.8669 C.3       14 UNK         0.1400 
     81 CB         -0.6053  -25.0534  -48.5805 C.3       14 UNK        -0.1800 
     82 C          -2.6864  -26.4980  -48.7405 C.2       14 UNK         0.5000 
     83 O          -2.4978  -26.8508  -49.9085 O.2       14 UNK        -0.5000 
     84 N          -3.9062  -26.3945  -48.1858 N.am      15 UNK        -0.5000 
     85 CA         -5.2121  -26.7067  -48.7809 C.3       15 UNK         0.1400 
     86 CB         -5.3219  -28.2208  -49.0556 C.3       15 UNK        -0.1800 
     87 C          -5.5563  -25.8606  -50.0249 C.2       15 UNK         0.5000 
     88 O          -6.3860  -26.2789  -50.8338 O.2       15 UNK        -0.5000 
     89 N          -4.8832  -24.7091  -50.1776 N.am      16 UNK        -0.5000 
     90 CA         -4.8425  -23.8416  -51.3595 C.3       16 UNK         0.1400 
     91 CB         -6.2037  -23.1497  -51.5755 C.3       16 UNK        -0.1800 
     92 C          -4.3260  -24.5564  -52.6334 C.2       16 UNK         0.5000 
     93 O          -4.5837  -24.0798  -53.7403 O.2       16 UNK        -0.5000 
     94 N          -3.6294  -25.6898  -52.4606 N.am      17 UNK        -0.5000 
     95 CA         -3.2353  -26.6093  -53.5246 C.3       17 UNK         0.1400 
     96 CB         -3.9019  -27.9730  -53.2793 C.3       17 UNK        -0.1800 
     97 C          -1.7108  -26.7533  -53.5947 C.2       17 UNK         0.5000 
     98 O          -1.1421  -26.6028  -54.6767 O.2       17 UNK        -0.5000 
     99 N          -1.0669  -27.0201  -52.4480 N.am      18 UNK        -0.5000 
    100 CA         0.3940  -27.1154  -52.3422 C.3       18 UNK         0.1400 
    101 CB         0.7689  -27.9352  -51.0975 C.3       18 UNK        -0.1800 
    102 C          1.0755  -25.7312  -52.3498 C.2       18 UNK         0.5000 
    103 O          2.2488  -25.6279  -52.7093 O.2       18 UNK        -0.5000 
    104 N          0.3106  -24.6947  -51.9962 N.am      19 UNK        -0.5000 
    105 CA         0.6244  -23.2840  -52.1534 C.3       19 UNK         0.1400 
    106 CB         1.3159  -22.7428  -50.8912 C.3       19 UNK        -0.1800 
    107 C         -0.7214  -22.5979  -52.4063 C.2       19 UNK         0.5000 
    108 O         -1.6583  -22.8263  -51.6386 O.2       19 UNK        -0.5000 
    109 N         -0.8198  -21.8272  -53.4947 N.am      20 UNK        -0.5000 
    110 CA        -2.0462  -21.1402  -53.8967 C.3       20 UNK         0.1400 
    111 CB        -1.9200  -20.6921  -55.3610 C.3       20 UNK        -0.1800 
    112 C         -2.3342  -19.9377  -52.9831 C.2       20 UNK         0.5000 
    113 O         -1.4317  -19.1389  -52.7357 O.2       20 UNK        -0.5000 
    114 N         -3.5918  -19.8145  -52.5395 N.am      21 UNK        -0.5000 
    115 CA        -4.0666  -18.7695  -51.6248 C.3       21 UNK         0.1400 
    116 CB        -5.3287  -19.2858  -50.9119 C.3       21 UNK        -0.1800 
    117 C         -4.3253  -17.4038  -52.2975 C.2       21 UNK         0.5000 
    118 O         -4.7742  -16.4782  -51.6214 O.2       21 UNK        -0.5000 
    119 N         -4.0589  -17.3030  -53.6066 N.am      22 UNK        -0.5000 
    120 CA        -4.0951  -16.0715  -54.4169 C.3       22 UNK         0.1400 
    121 C         -5.5150  -15.4655  -54.6432 C.2       22 UNK         0.5000 
    122 N         -6.5947  -16.1945  -54.3886 N.am      22 UNK        -0.7600 
    123 O         -5.6463  -14.3296  -55.0919 O.2       22 UNK        -0.5000 
    124 C124       -3.0600  -15.0074  -53.9490 C.3       23 UNK        -0.0398 
    125 S125       -1.3531  -15.6606  -53.8854 S.3       23 UNK        -0.2404 
    126 C126       -0.6686  -14.8293  -52.4162 C.3       23 UNK        -0.0205 
    127 H127       -3.9623   -8.0137  -44.8849 H         1 UNK         0.0600 
    128 H128       -4.9314   -9.1966  -45.7676 H         1 UNK         0.0600 
    129 H129       -4.5579   -7.6362  -46.5052 H         1 UNK         0.0600 
    130 H130       -3.6765  -10.8643  -46.5566 H         1 UNK         0.3000 
    131 H131       -1.1967  -10.3836  -47.9956 H         1 UNK         0.0600 
    132 H132       -1.2717  -12.8006  -48.4933 H         1 UNK         0.0800 
    133 H133       -2.7561  -12.0038  -48.9113 H         1 UNK         0.0800 
    134 H134       -4.3875  -15.3582  -47.9429 H         1 UNK         0.0800 
    135 H135       -4.3623  -14.0277  -49.0690 H         1 UNK         0.0800 
    136 H136       -2.6604  -13.9081  -50.7946 H         1 UNK         0.1150 
    137 H137        0.2384  -17.0506  -51.1102 H         1 UNK         0.1150 
    138 H138       -2.3182  -16.8315  -47.6848 H         1 UNK         0.1150 
    139 H139        0.8199  -18.1227  -48.8211 H         1 UNK         0.0800 
    140 H140       -0.4486  -18.3382  -47.6494 H         1 UNK         0.0800 
    141 H141       -2.9244  -20.6614  -49.5224 H         1 UNK         0.0800 
    142 H142       -2.7643  -19.4306  -48.2867 H         1 UNK         0.0800 
    143 H143       -1.3163  -22.1053  -48.1264 H         1 UNK         0.0600 
    144 H144       -1.6018  -19.9396  -46.2059 H         1 UNK         0.3000 
    145 H145        0.1423  -21.7676  -43.6581 H         1 UNK         0.0600 
    146 H146        1.4544  -19.6810  -43.7484 H         1 UNK         0.0600 
    147 H147        1.8153  -20.6697  -45.1515 H         1 UNK         0.0600 
    148 H148        0.7708  -19.2662  -45.3188 H         1 UNK         0.0600 
    149 H149       -1.1577  -19.1896  -43.7537 H         1 UNK         0.3000 
    150 H150       -4.2867  -20.2663  -42.4621 H         1 UNK         0.0600 
    151 H151       -2.9270  -20.3599  -40.4021 H         1 UNK         0.0600 
    152 H152       -3.6915  -18.7848  -40.5464 H         1 UNK         0.0600 
    153 H153       -1.9782  -18.9753  -40.9197 H         1 UNK         0.0600 
    154 H154       -3.1456  -17.6743  -42.7637 H         1 UNK         0.3000 
    155 H155       -3.9193  -17.2046  -46.1976 H         1 UNK         0.0600 
    156 H156       -5.4832  -16.1844  -43.7731 H         1 UNK         0.0600 
    157 H157       -6.1767  -17.0270  -45.1538 H         1 UNK         0.0600 
    158 H158       -5.4448  -15.4458  -45.3750 H         1 UNK         0.0600 
    159 H159       -3.2061  -15.2754  -44.3095 H         1 UNK         0.3000 
    160 H160       -0.1801  -14.8921  -45.2197 H         1 UNK         0.0600 
    161 H161       -1.8853  -14.5049  -42.6921 H         1 UNK         0.0600 
    162 H162       -2.0324  -13.6168  -44.2061 H         1 UNK         0.0600 
    163 H163       -0.6034  -13.4249  -43.2151 H         1 UNK         0.0600 
    164 H164        1.3717  -15.7260  -43.8698 H         1 UNK         0.3000 
    165 H165        1.9039  -16.3235  -40.9990 H         1 UNK         0.0600 
    166 H166        0.6026  -18.1833  -40.0691 H         1 UNK         0.0600 
    167 H167        0.9070  -19.1786  -41.4845 H         1 UNK         0.0600 
    168 H168        2.2305  -18.7425  -40.4027 H         1 UNK         0.0600 
    169 H169        2.7423  -18.3197  -42.9717 H         1 UNK         0.3000 
    170 H170        5.4359  -17.3574  -43.5032 H         1 UNK         0.0600 
    171 H171        3.8753  -19.0201  -44.4438 H         1 UNK         0.0600 
    172 H172        3.1755  -17.8215  -45.5362 H         1 UNK         0.0600 
    173 H173        4.8284  -18.3799  -45.7634 H         1 UNK         0.0600 
    174 H174        4.3320  -15.2014  -45.1705 H         1 UNK         0.3000 
    175 H175        6.7403  -13.6327  -45.6333 H         1 UNK         0.0600 
    176 H176        7.6549  -15.4986  -47.8843 H         1 UNK         0.0600 
    177 H177        7.8936  -13.7519  -47.8587 H         1 UNK         0.0600 
    178 H178        8.6697  -14.7632  -46.6524 H         1 UNK         0.0600 
    179 H179        4.9434  -13.1871  -46.8357 H         1 UNK         0.3000 
    180 H180        3.5959  -13.7092  -49.4037 H         1 UNK         0.0600 
    181 H181        1.3936  -14.9008  -49.2396 H         1 UNK         0.0600 
    182 H182        2.0658  -15.9690  -48.0105 H         1 UNK         0.0600 
    183 H183        2.7052  -15.9928  -49.6486 H         1 UNK         0.0600 
    184 H184        2.5945  -12.3409  -47.9936 H         1 UNK         0.3000 
    185 H185        1.1073  -12.6910  -44.7507 H         1 UNK         0.0600 
    186 H186        1.9712  -10.3698  -44.7536 H         1 UNK         0.0600 
    187 H187        3.3096  -11.5033  -44.6626 H         1 UNK         0.0600 
    188 H188        2.9465  -10.6934  -46.1840 H         1 UNK         0.0600 
    189 H189        0.6382  -12.0081  -47.5474 H         1 UNK         0.3000 
    190 H190       -3.8178  -21.1786  -45.7664 H         1 UNK         0.3000 
    191 H191       -5.7860  -23.0418  -46.6515 H         1 UNK         0.0600 
    192 H192       -6.6867  -22.7989  -44.3402 H         1 UNK         0.0600 
    193 H193       -6.3011  -21.2356  -45.0403 H         1 UNK         0.0600 
    194 H194       -5.2248  -21.9581  -43.8438 H         1 UNK         0.0600 
    195 H195       -3.0128  -23.4000  -44.3680 H         1 UNK         0.3000 
    196 H196       -3.4460  -26.1500  -43.7543 H         1 UNK         0.0600 
    197 H197       -0.8687  -24.4920  -43.7285 H         1 UNK         0.0600 
    198 H198       -1.9970  -24.6800  -42.3886 H         1 UNK         0.0600 
    199 H199       -1.0787  -26.0625  -42.9647 H         1 UNK         0.0600 
    200 H200       -1.8851  -24.5592  -46.4807 H         1 UNK         0.3000 
    201 H201       -0.8683  -26.9995  -47.7160 H         1 UNK         0.0600 
    202 H202        0.1547  -24.6387  -47.9181 H         1 UNK         0.0600 
    203 H203       -1.2039  -24.2301  -48.9678 H         1 UNK         0.0600 
    204 H204       -0.0818  -25.4890  -49.4269 H         1 UNK         0.0600 
    205 H205       -3.9584  -26.0426  -47.2377 H         1 UNK         0.3000 
    206 H206       -5.9595  -26.4517  -48.0289 H         1 UNK         0.0600 
    207 H207       -5.0804  -28.8011  -48.1650 H         1 UNK         0.0600 
    208 H208       -6.3347  -28.4945  -49.3533 H         1 UNK         0.0600 
    209 H209       -4.6501  -28.5365  -49.8544 H         1 UNK         0.0600 
    210 H210       -4.2673  -24.4163  -49.4218 H         1 UNK         0.3000 
    211 H211       -4.1217  -23.0588  -51.1270 H         1 UNK         0.0600 
    212 H212       -6.1382  -22.3888  -52.3538 H         1 UNK         0.0600 
    213 H213       -6.5401  -22.6517  -50.6660 H         1 UNK         0.0600 
    214 H214       -6.9754  -23.8585  -51.8763 H         1 UNK         0.0600 
    215 H215       -3.4294  -25.9891  -51.5126 H         1 UNK         0.3000 
    216 H216       -3.5740  -26.2413  -54.4953 H         1 UNK         0.0600 
    217 H217       -3.6178  -28.3963  -52.3150 H         1 UNK         0.0600 
    218 H218       -3.6218  -28.6909  -54.0512 H         1 UNK         0.0600 
    219 H219       -4.9884  -27.8849  -53.2944 H         1 UNK         0.0600 
    220 H220       -1.5952  -27.1181  -51.5850 H         1 UNK         0.3000 
    221 H221        0.7711  -27.6567  -53.2127 H         1 UNK         0.0600 
    222 H222        0.4299  -28.9665  -51.1969 H         1 UNK         0.0600 
    223 H223        0.3265  -27.5331  -50.1884 H         1 UNK         0.0600 
    224 H224        1.8500  -27.9627  -50.9554 H         1 UNK         0.0600 
    225 H225       -0.6510  -24.8714  -51.7363 H         1 UNK         0.3000 
    226 H226        1.2767  -23.1435  -53.0179 H         1 UNK         0.0600 
    227 H227        0.6766  -22.8270  -50.0119 H         1 UNK         0.0600 
    228 H228        2.2415  -23.2803  -50.6856 H         1 UNK         0.0600 
    229 H229        1.5679  -21.6886  -51.0108 H         1 UNK         0.0600 
    230 H230       -0.0027  -21.6598  -54.0630 H         1 UNK         0.3000 
    231 H231       -2.8751  -21.8481  -53.8286 H         1 UNK         0.0600 
    232 H232       -1.0977  -19.9884  -55.4981 H         1 UNK         0.0600 
    233 H233       -2.8328  -20.2001  -55.6989 H         1 UNK         0.0600 
    234 H234       -1.7479  -21.5431  -56.0204 H         1 UNK         0.0600 
    235 H235       -4.2775  -20.4984  -52.8237 H         1 UNK         0.3000 
    236 H236       -3.2970  -18.5955  -50.8704 H         1 UNK         0.0600 
    237 H237       -5.1419  -20.2319  -50.4040 H         1 UNK         0.0600 
    238 H238       -5.6696  -18.5775  -50.1556 H         1 UNK         0.0600 
    239 H239       -6.1505  -19.4393  -51.6122 H         1 UNK         0.0600 
    240 H240       -3.7006  -18.1217  -54.0731 H         1 UNK         0.3000 
    241 H241       -3.7860  -16.3874  -55.4137 H         1 UNK         0.0600 
    242 H242       -7.5093  -15.8018  -54.5477 H         1 UNK         0.3800 
    243 H243       -6.5050  -17.1277  -54.0206 H         1 UNK         0.3800 
    244 H244       -3.3453  -14.6107  -52.9754 H         1 UNK         0.0800 
    245 H245       -3.0524  -14.1551  -54.6302 H         1 UNK         0.0800 
    246 H246        0.4190  -14.9084  -52.4501 H         1 UNK         0.0800 
    247 H247       -0.8926  -13.7626  -52.4653 H         1 UNK         0.0800 
@<TRIPOS>BOND
     1    1    2 1    
     2    1  127 1    
     3    1  128 1    
     4    1  129 1    
     5    2    3 2    
     6    2    4 am   BACKBONE|DICT|INTERRES
     7    4    5 1    
     8    4  130 1    
     9    5    6 1    
    10    5   65 1    
    11    5  131 1    
    12    6    7 1    
    13    6  132 1    
    14    6  133 1    
    15    7    8 1    
    16    8    9 1    
    17    8  134 1    
    18    8  135 1    
    19    9   10 ar   
    20    9   14 ar   
    21   10   11 ar   
    22   10  136 1    
    23   11   12 ar   
    24   11  126 1    
    25   12   13 ar   
    26   12  137 1    
    27   13   14 ar   
    28   13   15 1    
    29   14  138 1    
    30   15   16 1    
    31   15  139 1    
    32   15  140 1    
    33   16   17 1    
    34   17   18 1    
    35   17  141 1    
    36   17  142 1    
    37   18   19 1    
    38   18   67 1    
    39   18  143 1    
    40   19   20 am   BACKBONE|DICT|INTERRES
    41   19  144 1    
    42   20   21 2    
    43   20   22 1    
    44   22   23 1    
    45   22   24 1    
    46   22  145 1    
    47   23  146 1    
    48   23  147 1    
    49   23  148 1    
    50   24   25 am   BACKBONE|DICT|INTERRES
    51   24  149 1    
    52   25   26 2    
    53   25   27 1    
    54   27   28 1    
    55   27   29 1    
    56   27  150 1    
    57   28  151 1    
    58   28  152 1    
    59   28  153 1    
    60   29   30 am   BACKBONE|DICT|INTERRES
    61   29  154 1    
    62   30   31 2    
    63   30   32 1    
    64   32   33 1    
    65   32   34 1    
    66   32  155 1    
    67   33  156 1    
    68   33  157 1    
    69   33  158 1    
    70   34   35 am   BACKBONE|DICT|INTERRES
    71   34  159 1    
    72   35   36 2    
    73   35   37 1    
    74   37   38 1    
    75   37   39 1    
    76   37  160 1    
    77   38  161 1    
    78   38  162 1    
    79   38  163 1    
    80   39   40 am   BACKBONE|DICT|INTERRES
    81   39  164 1    
    82   40   41 2    
    83   40   42 1    
    84   42   43 1    
    85   42   44 1    
    86   42  165 1    
    87   43  166 1    
    88   43  167 1    
    89   43  168 1    
    90   44   45 am   BACKBONE|DICT|INTERRES
    91   44  169 1    
    92   45   46 2    
    93   45   47 1    
    94   47   48 1    
    95   47   49 1    
    96   47  170 1    
    97   48  171 1    
    98   48  172 1    
    99   48  173 1    
   100   49   50 am   BACKBONE|DICT|INTERRES
   101   49  174 1    
   102   50   51 2    
   103   50   52 1    
   104   52   53 1    
   105   52   54 1    
   106   52  175 1    
   107   53  176 1    
   108   53  177 1    
   109   53  178 1    
   110   54   55 am   BACKBONE|DICT|INTERRES
   111   54  179 1    
   112   55   56 2    
   113   55   57 1    
   114   57   58 1    
   115   57   59 1    
   116   57  180 1    
   117   58  181 1    
   118   58  182 1    
   119   58  183 1    
   120   59   60 am   BACKBONE|DICT|INTERRES
   121   59  184 1    
   122   60   61 2    
   123   60   62 1    
   124   62   63 1    
   125   62   64 1    
   126   62  185 1    
   127   63  186 1    
   128   63  187 1    
   129   63  188 1    
   130   64   65 am   BACKBONE|DICT|INTERRES
   131   64  189 1    
   132   65   66 2    
   133   67   68 2    
   134   67   69 am   BACKBONE|DICT|INTERRES
   135   69   70 1    
   136   69  190 1    
   137   70   71 1    
   138   70   72 1    
   139   70  191 1    
   140   71  192 1    
   141   71  193 1    
   142   71  194 1    
   143   72   73 2    
   144   72   74 am   BACKBONE|DICT|INTERRES
   145   74   75 1    
   146   74  195 1    
   147   75   76 1    
   148   75   77 1    
   149   75  196 1    
   150   76  197 1    
   151   76  198 1    
   152   76  199 1    
   153   77   78 2    
   154   77   79 am   BACKBONE|DICT|INTERRES
   155   79   80 1    
   156   79  200 1    
   157   80   81 1    
   158   80   82 1    
   159   80  201 1    
   160   81  202 1    
   161   81  203 1    
   162   81  204 1    
   163   82   83 2    
   164   82   84 am   BACKBONE|DICT|INTERRES
   165   84   85 1    
   166   84  205 1    
   167   85   86 1    
   168   85   87 1    
   169   85  206 1    
   170   86  207 1    
   171   86  208 1    
   172   86  209 1    
   173   87   88 2    
   174   87   89 am   BACKBONE|DICT|INTERRES
   175   89   90 1    
   176   89  210 1    
   177   90   91 1    
   178   90   92 1    
   179   90  211 1    
   180   91  212 1    
   181   91  213 1    
   182   91  214 1    
   183   92   93 2    
   184   92   94 am   BACKBONE|DICT|INTERRES
   185   94   95 1    
   186   94  215 1    
   187   95   96 1    
   188   95   97 1    
   189   95  216 1    
   190   96  217 1    
   191   96  218 1    
   192   96  219 1    
   193   97   98 2    
   194   97   99 am   BACKBONE|DICT|INTERRES
   195   99  100 1    
   196   99  220 1    
   197  100  101 1    
   198  100  102 1    
   199  100  221 1    
   200  101  222 1    
   201  101  223 1    
   202  101  224 1    
   203  102  103 2    
   204  102  104 am   BACKBONE|DICT|INTERRES
   205  104  105 1    
   206  104  225 1    
   207  105  106 1    
   208  105  107 1    
   209  105  226 1    
   210  106  227 1    
   211  106  228 1    
   212  106  229 1    
   213  107  108 2    
   214  107  109 am   BACKBONE|DICT|INTERRES
   215  109  110 1    
   216  109  230 1    
   217  110  111 1    
   218  110  112 1    
   219  110  231 1    
   220  111  232 1    
   221  111  233 1    
   222  111  234 1    
   223  112  113 2    
   224  112  114 am   BACKBONE|DICT|INTERRES
   225  114  115 1    
   226  114  235 1    
   227  115  116 1    
   228  115  117 1    
   229  115  236 1    
   230  116  237 1    
   231  116  238 1    
   232  116  239 1    
   233  117  118 2    
   234  117  119 am   BACKBONE|DICT|INTERRES
   235  119  120 1    
   236  119  240 1    
   237  120  121 1    
   238  120  124 1    
   239  120  241 1    
   240  121  122 am   BACKBONE|DICT|INTERRES
   241  121  123 2    
   242  122  242 1    
   243  122  243 1    
   244  124  125 1    
   245  124  244 1    
   246  124  245 1    
   247  125  126 1    
   248  126  246 1    
   249  126  247 1    
@<TRIPOS>SUBSTRUCTURE
     1 UNK         1 GROUP             0       ****    0 ROOT    
