@<TRIPOS>MOLECULE
3R540
247   249    1
SMALL
USER_CHARGES


@<TRIPOS>ATOM
      1 CA          5.9359  -12.5200  -48.2108 C.3       0 UNK        -0.1800 
      2 C           5.4610  -11.4677  -47.2121 C.2       0 UNK         0.5000 
      3 O           6.1051  -10.4296  -47.0756 O.2       0 UNK        -0.5000 
      4 N           4.3526  -11.6810  -46.4930 N.am      1 UNK        -0.5000 
      5 CA          3.4829  -12.8610  -46.5225 C.3       1 UNK         0.1400 
      6 C6          2.4236  -12.7745  -47.6530 C.3       23 UNK        -0.0398 
      7 S7          1.8287  -14.4020  -48.2177 S.3       23 UNK        -0.2404 
      8 C8          3.1646  -14.8868  -49.3536 C.3       23 UNK        -0.0205 
      9 C9          2.8506  -16.1849  -50.0810 C.ar      23 UNK        -0.0193 
     10 C10         2.2659  -16.1510  -51.3505 C.ar      23 UNK        -0.1150 
     11 C11         2.0133  -17.3348  -52.0495 C.ar      23 UNK        -0.0193 
     12 C12         2.3607  -18.5571  -51.4691 C.ar      23 UNK        -0.1150 
     13 C13         2.8961  -18.6121  -50.1796 C.ar      23 UNK        -0.0193 
     14 C14         3.1563  -17.4189  -49.4968 C.ar      23 UNK        -0.1150 
     15 C15         3.1665  -19.9616  -49.5240 C.3       23 UNK        -0.0205 
     16 S16         1.6676  -21.0042  -49.4932 S.3       23 UNK        -0.2404 
     17 C17         2.2292  -22.4493  -48.5366 C.3       23 UNK        -0.0398 
     18 CA          1.1547  -23.0939  -47.6243 C.3       11 UNK         0.1400 
     19 N           0.7177  -22.2388  -46.5135 N.am      11 UNK        -0.5000 
     20 C           0.1156  -22.7297  -45.4181 C.2       10 UNK         0.5000 
     21 O          -0.1029  -23.9306  -45.2455 O.2       10 UNK        -0.5000 
     22 CA         -0.3488  -21.7256  -44.3485 C.3       10 UNK         0.1400 
     23 CB          0.8422  -21.1918  -43.5387 C.3       10 UNK        -0.1800 
     24 N          -1.1214  -20.6133  -44.9010 N.am      10 UNK        -0.5000 
     25 C          -2.3119  -20.7434  -45.5034 C.2       9 UNK         0.5000 
     26 O          -2.8858  -21.8205  -45.6515 O.2       9 UNK        -0.5000 
     27 CA         -2.9613  -19.4669  -46.0696 C.3       9 UNK         0.1400 
     28 CB         -3.7045  -18.6886  -44.9751 C.3       9 UNK        -0.1800 
     29 N          -2.0016  -18.5895  -46.7360 N.am      9 UNK        -0.5000 
     30 C          -1.3009  -18.9373  -47.8244 C.2       8 UNK         0.5000 
     31 O          -1.4396  -20.0055  -48.4145 O.2       8 UNK        -0.5000 
     32 CA         -0.2219  -17.9531  -48.2911 C.3       8 UNK         0.1400 
     33 CB         -0.8364  -16.8266  -49.1359 C.3       8 UNK        -0.1800 
     34 N           0.5438  -17.4145  -47.1640 N.am      8 UNK        -0.5000 
     35 C           1.3366  -18.1493  -46.3658 C.2       7 UNK         0.5000 
     36 O           1.5520  -19.3507  -46.5255 O.2       7 UNK        -0.5000 
     37 CA          1.9434  -17.4393  -45.1410 C.3       7 UNK         0.1400 
     38 CB          3.2588  -16.7329  -45.4956 C.3       7 UNK        -0.1800 
     39 N           1.0017  -16.4952  -44.5355 N.am      7 UNK        -0.5000 
     40 C          -0.0967  -16.8882  -43.8713 C.2       6 UNK         0.5000 
     41 O          -0.3672  -18.0669  -43.6462 O.2       6 UNK        -0.5000 
     42 CA         -1.0936  -15.8012  -43.4358 C.3       6 UNK         0.1400 
     43 CB         -0.8667  -15.3662  -41.9805 C.3       6 UNK        -0.1800 
     44 N          -1.0736  -14.6328  -44.3138 N.am      6 UNK        -0.5000 
     45 C          -1.5536  -14.6258  -45.5654 C.2       5 UNK         0.5000 
     46 O          -2.0310  -15.6258  -46.1033 O.2       5 UNK        -0.5000 
     47 CA         -1.5012  -13.2844  -46.3208 C.3       5 UNK         0.1400 
     48 CB         -2.6581  -13.1233  -47.3250 C.3       5 UNK        -0.1800 
     49 N          -1.4931  -12.1679  -45.3747 N.am      5 UNK        -0.5000 
     50 C          -0.9322  -10.9704  -45.5801 C.2       4 UNK         0.5000 
     51 O          -0.3830  -10.6279  -46.6264 O.2       4 UNK        -0.5000 
     52 CA         -0.9666  -10.0118  -44.3851 C.3       4 UNK         0.1400 
     53 CB         -2.4142   -9.5626  -44.0905 C.3       4 UNK        -0.1800 
     54 N          -0.3503  -10.6773  -43.2365 N.am      4 UNK        -0.5000 
     55 C          -0.1045  -10.1324  -42.0395 C.2       3 UNK         0.5000 
     56 O          -0.3999   -8.9765  -41.7337 O.2       3 UNK        -0.5000 
     57 CA          0.6008  -11.0281  -41.0001 C.3       3 UNK         0.1400 
     58 CB         -0.4387  -11.7380  -40.1187 C.3       3 UNK        -0.1800 
     59 N           1.5074  -12.0343  -41.5656 N.am      3 UNK        -0.5000 
     60 C           2.6168  -11.7659  -42.2681 C.2       2 UNK         0.5000 
     61 O           2.9598  -10.6268  -42.5903 O.2       2 UNK        -0.5000 
     62 CA          3.5217  -12.9498  -42.6694 C.3       2 UNK         0.1400 
     63 CB          3.0412  -14.3408  -42.2003 C.3       2 UNK        -0.1800 
     64 N           3.7926  -12.9376  -44.1074 N.am      2 UNK        -0.5000 
     65 C           2.9097  -13.0870  -45.1069 C.2       1 UNK         0.5000 
     66 O           1.7208  -13.3718  -44.9375 O.2       1 UNK        -0.5000 
     67 C          -0.0392  -23.6919  -48.4022 C.2       11 UNK         0.5000 
     68 O           0.0343  -24.8505  -48.8132 O.2       11 UNK        -0.5000 
     69 N          -1.1400  -22.9347  -48.5287 N.am      12 UNK        -0.5000 
     70 CA         -2.3967  -23.4075  -49.1060 C.3       12 UNK         0.1400 
     71 CB         -3.3745  -22.2441  -49.2738 C.3       12 UNK        -0.1800 
     72 C          -3.0476  -24.5243  -48.2776 C.2       12 UNK         0.5000 
     73 O          -3.4982  -25.5088  -48.8577 O.2       12 UNK        -0.5000 
     74 N          -3.0543  -24.3839  -46.9444 N.am      13 UNK        -0.5000 
     75 CA         -3.5571  -25.3949  -46.0126 C.3       13 UNK         0.1400 
     76 CB         -3.5727  -24.8305  -44.5844 C.3       13 UNK        -0.1800 
     77 C          -2.7575  -26.7085  -46.0738 C.2       13 UNK         0.5000 
     78 O          -3.3577  -27.7824  -46.0271 O.2       13 UNK        -0.5000 
     79 N          -1.4297  -26.6015  -46.2280 N.am      14 UNK        -0.5000 
     80 CA         -0.5289  -27.7363  -46.4391 C.3       14 UNK         0.1400 
     81 CB          0.9270  -27.2662  -46.3000 C.3       14 UNK        -0.1800 
     82 C          -0.7570  -28.4345  -47.7956 C.2       14 UNK         0.5000 
     83 O          -0.7002  -29.6628  -47.8637 O.2       14 UNK        -0.5000 
     84 N          -1.0334  -27.6443  -48.8419 N.am      15 UNK        -0.5000 
     85 CA         -1.3458  -28.1166  -50.1935 C.3       15 UNK         0.1400 
     86 CB         -1.1068  -26.9639  -51.1824 C.3       15 UNK        -0.1800 
     87 C          -2.7820  -28.6606  -50.3508 C.2       15 UNK         0.5000 
     88 O          -3.0603  -29.3242  -51.3503 O.2       15 UNK        -0.5000 
     89 N          -3.6623  -28.3513  -49.3870 N.am      16 UNK        -0.5000 
     90 CA         -5.1129  -28.5741  -49.3861 C.3       16 UNK         0.1400 
     91 CB         -5.4515  -30.0796  -49.3950 C.3       16 UNK        -0.1800 
     92 C          -5.8194  -27.7731  -50.5030 C.2       16 UNK         0.5000 
     93 O          -6.6741  -28.3055  -51.2143 O.2       16 UNK        -0.5000 
     94 N          -5.4245  -26.5032  -50.6370 N.am      17 UNK        -0.5000 
     95 CA         -5.8937  -25.5394  -51.6279 C.3       17 UNK         0.1400 
     96 CB         -4.6948  -25.1695  -52.5174 C.3       17 UNK        -0.1800 
     97 C          -6.4736  -24.2912  -50.9346 C.2       17 UNK         0.5000 
     98 O          -6.4278  -24.1815  -49.7067 O.2       17 UNK        -0.5000 
     99 N          -7.0141  -23.3648  -51.7368 N.am      18 UNK        -0.5000 
    100 CA        -7.5210  -22.0693  -51.2819 C.3       18 UNK         0.1400 
    101 CB        -8.4947  -21.5141  -52.3328 C.3       18 UNK        -0.1800 
    102 C         -6.3696  -21.0753  -51.0517 C.2       18 UNK         0.5000 
    103 O         -5.4341  -21.0332  -51.8559 O.2       18 UNK        -0.5000 
    104 N         -6.4762  -20.2688  -49.9863 N.am      19 UNK        -0.5000 
    105 CA        -5.4844  -19.2651  -49.5814 C.3       19 UNK         0.1400 
    106 CB        -5.9080  -18.6409  -48.2430 C.3       19 UNK        -0.1800 
    107 C         -5.2557  -18.1705  -50.6366 C.2       19 UNK         0.5000 
    108 O         -4.1123  -17.7908  -50.8845 O.2       19 UNK        -0.5000 
    109 N         -6.3465  -17.7240  -51.2745 N.am      20 UNK        -0.5000 
    110 CA        -6.3392  -16.7221  -52.3440 C.3       20 UNK         0.1400 
    111 CB        -7.7851  -16.2817  -52.6199 C.3       20 UNK        -0.1800 
    112 C         -5.6684  -17.2117  -53.6432 C.2       20 UNK         0.5000 
    113 O         -5.2133  -16.3873  -54.4366 O.2       20 UNK        -0.5000 
    114 N         -5.6155  -18.5363  -53.8317 N.am      21 UNK        -0.5000 
    115 CA        -4.9617  -19.1999  -54.9575 C.3       21 UNK         0.1400 
    116 CB        -5.8128  -20.4168  -55.3596 C.3       21 UNK        -0.1800 
    117 C         -3.5208  -19.6365  -54.6259 C.2       21 UNK         0.5000 
    118 O         -2.8504  -20.1716  -55.5101 O.2       21 UNK        -0.5000 
    119 N         -3.0788  -19.4361  -53.3737 N.am      22 UNK        -0.5000 
    120 CA        -1.8187  -19.9536  -52.8090 C.3       22 UNK         0.1400 
    121 C         -1.7768  -21.5133  -52.7298 C.2       22 UNK         0.5000 
    122 N         -2.9124  -22.1931  -52.6253 N.am      22 UNK        -0.7600 
    123 O         -0.7120  -22.1239  -52.7621 O.2       22 UNK        -0.5000 
    124 C124       -0.5516  -19.3581  -53.4870 C.3       23 UNK        -0.0398 
    125 S125       -0.4336  -17.5401  -53.3550 S.3       23 UNK        -0.2404 
    126 C126        1.3717  -17.2881  -53.4293 C.3       23 UNK        -0.0205 
    127 H127        6.1824  -13.4543  -47.7069 H         1 UNK         0.0600 
    128 H128        6.8322  -12.1773  -48.7281 H         1 UNK         0.0600 
    129 H129        5.1743  -12.7118  -48.9648 H         1 UNK         0.0600 
    130 H130        4.0625  -10.9671  -45.8377 H         1 UNK         0.3000 
    131 H131        4.1083  -13.7355  -46.7037 H         1 UNK         0.0600 
    132 H132        1.5708  -12.1736  -47.3401 H         1 UNK         0.0800 
    133 H133        2.8292  -12.2548  -48.5213 H         1 UNK         0.0800 
    134 H134        4.0949  -14.9996  -48.7959 H         1 UNK         0.0800 
    135 H135        3.3328  -14.0889  -50.0784 H         1 UNK         0.0800 
    136 H136        2.0099  -15.2002  -51.7966 H         1 UNK         0.1150 
    137 H137        2.1904  -19.4794  -52.0027 H         1 UNK         0.1150 
    138 H138        3.5850  -17.4483  -48.5055 H         1 UNK         0.1150 
    139 H139        3.9575  -20.4765  -50.0704 H         1 UNK         0.0800 
    140 H140        3.5233  -19.8227  -48.5023 H         1 UNK         0.0800 
    141 H141        3.0832  -22.1576  -47.9241 H         1 UNK         0.0800 
    142 H142        2.6115  -23.1897  -49.2410 H         1 UNK         0.0800 
    143 H143        1.6541  -23.9503  -47.1650 H         1 UNK         0.0600 
    144 H144        0.8767  -21.2387  -46.6047 H         1 UNK         0.3000 
    145 H145       -1.0023  -22.2640  -43.6588 H         1 UNK         0.0600 
    146 H146        0.5084  -20.5503  -42.7231 H         1 UNK         0.0600 
    147 H147        1.4102  -22.0107  -43.0956 H         1 UNK         0.0600 
    148 H148        1.5286  -20.6157  -44.1583 H         1 UNK         0.0600 
    149 H149       -0.7380  -19.6834  -44.7675 H         1 UNK         0.3000 
    150 H150       -3.6906  -19.7799  -46.8174 H         1 UNK         0.0600 
    151 H151       -4.4860  -19.3026  -44.5259 H         1 UNK         0.0600 
    152 H152       -4.1824  -17.7957  -45.3789 H         1 UNK         0.0600 
    153 H153       -3.0334  -18.3776  -44.1750 H         1 UNK         0.0600 
    154 H154       -1.8609  -17.6658  -46.3411 H         1 UNK         0.3000 
    155 H155        0.4649  -18.5002  -48.9328 H         1 UNK         0.0600 
    156 H156       -1.5169  -16.2019  -48.5601 H         1 UNK         0.0600 
    157 H157       -1.4025  -17.2387  -49.9727 H         1 UNK         0.0600 
    158 H158       -0.0671  -16.1854  -49.5619 H         1 UNK         0.0600 
    159 H159        0.4147  -16.4355  -46.9581 H         1 UNK         0.3000 
    160 H160        2.1764  -18.2056  -44.3986 H         1 UNK         0.0600 
    161 H161        3.1142  -15.9639  -46.2496 H         1 UNK         0.0600 
    162 H162        3.9852  -17.4438  -45.8912 H         1 UNK         0.0600 
    163 H163        3.7062  -16.2656  -44.6189 H         1 UNK         0.0600 
    164 H164        1.1558  -15.5073  -44.6982 H         1 UNK         0.3000 
    165 H165       -2.0903  -16.2437  -43.4902 H         1 UNK         0.0600 
    166 H166       -1.6758  -14.7218  -41.6369 H         1 UNK         0.0600 
    167 H167       -0.8385  -16.2298  -41.3146 H         1 UNK         0.0600 
    168 H168        0.0666  -14.8231  -41.8526 H         1 UNK         0.0600 
    169 H169       -0.5886  -13.8147  -43.9804 H         1 UNK         0.3000 
    170 H170       -0.5621  -13.2844  -46.8746 H         1 UNK         0.0600 
    171 H171       -2.6524  -13.9247  -48.0647 H         1 UNK         0.0600 
    172 H172       -3.6265  -13.1420  -46.8242 H         1 UNK         0.0600 
    173 H173       -2.5803  -12.1830  -47.8707 H         1 UNK         0.0600 
    174 H174       -1.9698  -12.3361  -44.4996 H         1 UNK         0.3000 
    175 H175       -0.3673   -9.1350  -44.6385 H         1 UNK         0.0600 
    176 H176       -3.0204  -10.3779  -43.6947 H         1 UNK         0.0600 
    177 H177       -2.4433   -8.7466  -43.3692 H         1 UNK         0.0600 
    178 H178       -2.9020   -9.1997  -44.9962 H         1 UNK         0.0600 
    179 H179        0.0192  -11.5996  -43.4162 H         1 UNK         0.3000 
    180 H180        1.1963  -10.3731  -40.3608 H         1 UNK         0.0600 
    181 H181       -1.0555  -12.4256  -40.6982 H         1 UNK         0.0600 
    182 H182       -1.1078  -11.0174  -39.6463 H         1 UNK         0.0600 
    183 H183        0.0397  -12.3055  -39.3203 H         1 UNK         0.0600 
    184 H184        1.3129  -12.9955  -41.3299 H         1 UNK         0.3000 
    185 H185        4.4778  -12.7619  -42.1788 H         1 UNK         0.0600 
    186 H186        2.8723  -14.3654  -41.1232 H         1 UNK         0.0600 
    187 H187        2.1228  -14.6475  -42.6944 H         1 UNK         0.0600 
    188 H188        3.7933  -15.0990  -42.4171 H         1 UNK         0.0600 
    189 H189        4.7372  -12.6814  -44.3590 H         1 UNK         0.3000 
    190 H190       -1.1182  -21.9661  -48.2233 H         1 UNK         0.3000 
    191 H191       -2.1763  -23.8080  -50.0973 H         1 UNK         0.0600 
    192 H192       -3.6256  -21.7836  -48.3188 H         1 UNK         0.0600 
    193 H193       -4.3019  -22.5867  -49.7269 H         1 UNK         0.0600 
    194 H194       -2.9633  -21.4752  -49.9257 H         1 UNK         0.0600 
    195 H195       -2.7247  -23.5134  -46.5357 H         1 UNK         0.3000 
    196 H196       -4.5865  -25.6226  -46.2972 H         1 UNK         0.0600 
    197 H197       -3.9408  -25.5720  -43.8742 H         1 UNK         0.0600 
    198 H198       -4.2262  -23.9610  -44.5128 H         1 UNK         0.0600 
    199 H199       -2.5772  -24.5282  -44.2587 H         1 UNK         0.0600 
    200 H200       -1.0131  -25.6775  -46.2172 H         1 UNK         0.3000 
    201 H201       -0.7232  -28.4686  -45.6527 H         1 UNK         0.0600 
    202 H202        1.1036  -26.8130  -45.3243 H         1 UNK         0.0600 
    203 H203        1.1900  -26.5320  -47.0613 H         1 UNK         0.0600 
    204 H204        1.6179  -28.1041  -46.4005 H         1 UNK         0.0600 
    205 H205       -0.9965  -26.6384  -48.7141 H         1 UNK         0.3000 
    206 H206       -0.6592  -28.9276  -50.4447 H         1 UNK         0.0600 
    207 H207       -0.0798  -26.6024  -51.1274 H         1 UNK         0.0600 
    208 H208       -1.2845  -27.2837  -52.2099 H         1 UNK         0.0600 
    209 H209       -1.7689  -26.1211  -50.9828 H         1 UNK         0.0600 
    210 H210       -3.3245  -27.7461  -48.6498 H         1 UNK         0.3000 
    211 H211       -5.4774  -28.1640  -48.4431 H         1 UNK         0.0600 
    212 H212       -5.1766  -30.5556  -50.3363 H         1 UNK         0.0600 
    213 H213       -6.5209  -30.2374  -49.2515 H         1 UNK         0.0600 
    214 H214       -4.9354  -30.6032  -48.5902 H         1 UNK         0.0600 
    215 H215       -4.7540  -26.1338  -49.9631 H         1 UNK         0.3000 
    216 H216       -6.6811  -25.9735  -52.2470 H         1 UNK         0.0600 
    217 H217       -4.9664  -24.4407  -53.2818 H         1 UNK         0.0600 
    218 H218       -4.3062  -26.0481  -53.0330 H         1 UNK         0.0600 
    219 H219       -3.8820  -24.7491  -51.9251 H         1 UNK         0.0600 
    220 H220       -6.9866  -23.5049  -52.7359 H         1 UNK         0.3000 
    221 H221       -8.0661  -22.2099  -50.3460 H         1 UNK         0.0600 
    222 H222       -8.0074  -21.3612  -53.2963 H         1 UNK         0.0600 
    223 H223       -9.3350  -22.1912  -52.4870 H         1 UNK         0.0600 
    224 H224       -8.9062  -20.5542  -52.0177 H         1 UNK         0.0600 
    225 H225       -7.2813  -20.3650  -49.3844 H         1 UNK         0.3000 
    226 H226       -4.5304  -19.7696  -49.4304 H         1 UNK         0.0600 
    227 H227       -6.0086  -19.3993  -47.4666 H         1 UNK         0.0600 
    228 H228       -5.1666  -17.9183  -47.8984 H         1 UNK         0.0600 
    229 H229       -6.8618  -18.1183  -48.3245 H         1 UNK         0.0600 
    230 H230       -7.2455  -18.1003  -51.0116 H         1 UNK         0.3000 
    231 H231       -5.7768  -15.8548  -51.9917 H         1 UNK         0.0600 
    232 H232       -8.2476  -15.8619  -51.7265 H         1 UNK         0.0600 
    233 H233       -8.4017  -17.1151  -52.9590 H         1 UNK         0.0600 
    234 H234       -7.8188  -15.5128  -53.3930 H         1 UNK         0.0600 
    235 H235       -5.9756  -19.1447  -53.1092 H         1 UNK         0.3000 
    236 H236       -4.9116  -18.5232  -55.8130 H         1 UNK         0.0600 
    237 H237       -5.4085  -20.9000  -56.2498 H         1 UNK         0.0600 
    238 H238       -5.8434  -21.1660  -54.5679 H         1 UNK         0.0600 
    239 H239       -6.8381  -20.1252  -55.5875 H         1 UNK         0.0600 
    240 H240       -3.6861  -18.9682  -52.7139 H         1 UNK         0.3000 
    241 H241       -1.8071  -19.6284  -51.7677 H         1 UNK         0.0600 
    242 H242       -2.8739  -23.1965  -52.6091 H         1 UNK         0.3800 
    243 H243       -3.8022  -21.7122  -52.5192 H         1 UNK         0.3800 
    244 H244       -0.5049  -19.6340  -54.5406 H         1 UNK         0.0800 
    245 H245        0.3367  -19.7912  -53.0339 H         1 UNK         0.0800 
    246 H246        1.8283  -18.0313  -54.0848 H         1 UNK         0.0800 
    247 H247        1.5662  -16.3202  -53.8936 H         1 UNK         0.0800 
@<TRIPOS>BOND
     1    1    2 1    
     2    1  127 1    
     3    1  128 1    
     4    1  129 1    
     5    2    3 2    
     6    2    4 am   BACKBONE|DICT|INTERRES
     7    4    5 1    
     8    4  130 1    
     9    5    6 1    
    10    5   65 1    
    11    5  131 1    
    12    6    7 1    
    13    6  132 1    
    14    6  133 1    
    15    7    8 1    
    16    8    9 1    
    17    8  134 1    
    18    8  135 1    
    19    9   10 ar   
    20    9   14 ar   
    21   10   11 ar   
    22   10  136 1    
    23   11   12 ar   
    24   11  126 1    
    25   12   13 ar   
    26   12  137 1    
    27   13   14 ar   
    28   13   15 1    
    29   14  138 1    
    30   15   16 1    
    31   15  139 1    
    32   15  140 1    
    33   16   17 1    
    34   17   18 1    
    35   17  141 1    
    36   17  142 1    
    37   18   19 1    
    38   18   67 1    
    39   18  143 1    
    40   19   20 am   BACKBONE|DICT|INTERRES
    41   19  144 1    
    42   20   21 2    
    43   20   22 1    
    44   22   23 1    
    45   22   24 1    
    46   22  145 1    
    47   23  146 1    
    48   23  147 1    
    49   23  148 1    
    50   24   25 am   BACKBONE|DICT|INTERRES
    51   24  149 1    
    52   25   26 2    
    53   25   27 1    
    54   27   28 1    
    55   27   29 1    
    56   27  150 1    
    57   28  151 1    
    58   28  152 1    
    59   28  153 1    
    60   29   30 am   BACKBONE|DICT|INTERRES
    61   29  154 1    
    62   30   31 2    
    63   30   32 1    
    64   32   33 1    
    65   32   34 1    
    66   32  155 1    
    67   33  156 1    
    68   33  157 1    
    69   33  158 1    
    70   34   35 am   BACKBONE|DICT|INTERRES
    71   34  159 1    
    72   35   36 2    
    73   35   37 1    
    74   37   38 1    
    75   37   39 1    
    76   37  160 1    
    77   38  161 1    
    78   38  162 1    
    79   38  163 1    
    80   39   40 am   BACKBONE|DICT|INTERRES
    81   39  164 1    
    82   40   41 2    
    83   40   42 1    
    84   42   43 1    
    85   42   44 1    
    86   42  165 1    
    87   43  166 1    
    88   43  167 1    
    89   43  168 1    
    90   44   45 am   BACKBONE|DICT|INTERRES
    91   44  169 1    
    92   45   46 2    
    93   45   47 1    
    94   47   48 1    
    95   47   49 1    
    96   47  170 1    
    97   48  171 1    
    98   48  172 1    
    99   48  173 1    
   100   49   50 am   BACKBONE|DICT|INTERRES
   101   49  174 1    
   102   50   51 2    
   103   50   52 1    
   104   52   53 1    
   105   52   54 1    
   106   52  175 1    
   107   53  176 1    
   108   53  177 1    
   109   53  178 1    
   110   54   55 am   BACKBONE|DICT|INTERRES
   111   54  179 1    
   112   55   56 2    
   113   55   57 1    
   114   57   58 1    
   115   57   59 1    
   116   57  180 1    
   117   58  181 1    
   118   58  182 1    
   119   58  183 1    
   120   59   60 am   BACKBONE|DICT|INTERRES
   121   59  184 1    
   122   60   61 2    
   123   60   62 1    
   124   62   63 1    
   125   62   64 1    
   126   62  185 1    
   127   63  186 1    
   128   63  187 1    
   129   63  188 1    
   130   64   65 am   BACKBONE|DICT|INTERRES
   131   64  189 1    
   132   65   66 2    
   133   67   68 2    
   134   67   69 am   BACKBONE|DICT|INTERRES
   135   69   70 1    
   136   69  190 1    
   137   70   71 1    
   138   70   72 1    
   139   70  191 1    
   140   71  192 1    
   141   71  193 1    
   142   71  194 1    
   143   72   73 2    
   144   72   74 am   BACKBONE|DICT|INTERRES
   145   74   75 1    
   146   74  195 1    
   147   75   76 1    
   148   75   77 1    
   149   75  196 1    
   150   76  197 1    
   151   76  198 1    
   152   76  199 1    
   153   77   78 2    
   154   77   79 am   BACKBONE|DICT|INTERRES
   155   79   80 1    
   156   79  200 1    
   157   80   81 1    
   158   80   82 1    
   159   80  201 1    
   160   81  202 1    
   161   81  203 1    
   162   81  204 1    
   163   82   83 2    
   164   82   84 am   BACKBONE|DICT|INTERRES
   165   84   85 1    
   166   84  205 1    
   167   85   86 1    
   168   85   87 1    
   169   85  206 1    
   170   86  207 1    
   171   86  208 1    
   172   86  209 1    
   173   87   88 2    
   174   87   89 am   BACKBONE|DICT|INTERRES
   175   89   90 1    
   176   89  210 1    
   177   90   91 1    
   178   90   92 1    
   179   90  211 1    
   180   91  212 1    
   181   91  213 1    
   182   91  214 1    
   183   92   93 2    
   184   92   94 am   BACKBONE|DICT|INTERRES
   185   94   95 1    
   186   94  215 1    
   187   95   96 1    
   188   95   97 1    
   189   95  216 1    
   190   96  217 1    
   191   96  218 1    
   192   96  219 1    
   193   97   98 2    
   194   97   99 am   BACKBONE|DICT|INTERRES
   195   99  100 1    
   196   99  220 1    
   197  100  101 1    
   198  100  102 1    
   199  100  221 1    
   200  101  222 1    
   201  101  223 1    
   202  101  224 1    
   203  102  103 2    
   204  102  104 am   BACKBONE|DICT|INTERRES
   205  104  105 1    
   206  104  225 1    
   207  105  106 1    
   208  105  107 1    
   209  105  226 1    
   210  106  227 1    
   211  106  228 1    
   212  106  229 1    
   213  107  108 2    
   214  107  109 am   BACKBONE|DICT|INTERRES
   215  109  110 1    
   216  109  230 1    
   217  110  111 1    
   218  110  112 1    
   219  110  231 1    
   220  111  232 1    
   221  111  233 1    
   222  111  234 1    
   223  112  113 2    
   224  112  114 am   BACKBONE|DICT|INTERRES
   225  114  115 1    
   226  114  235 1    
   227  115  116 1    
   228  115  117 1    
   229  115  236 1    
   230  116  237 1    
   231  116  238 1    
   232  116  239 1    
   233  117  118 2    
   234  117  119 am   BACKBONE|DICT|INTERRES
   235  119  120 1    
   236  119  240 1    
   237  120  121 1    
   238  120  124 1    
   239  120  241 1    
   240  121  122 am   BACKBONE|DICT|INTERRES
   241  121  123 2    
   242  122  242 1    
   243  122  243 1    
   244  124  125 1    
   245  124  244 1    
   246  124  245 1    
   247  125  126 1    
   248  126  246 1    
   249  126  247 1    
@<TRIPOS>SUBSTRUCTURE
     1 UNK         1 GROUP             0       ****    0 ROOT    
