@<TRIPOS>MOLECULE
3R540
247   249    1
SMALL
USER_CHARGES


@<TRIPOS>ATOM
      1 CA         -0.6916  -14.6897  -47.4633 C.3       0 UNK        -0.1800 
      2 C          -2.0706  -14.1270  -47.8018 C.2       0 UNK         0.5000 
      3 O          -2.3634  -13.9169  -48.9757 O.2       0 UNK        -0.5000 
      4 N          -2.9542  -13.8774  -46.8246 N.am      1 UNK        -0.5000 
      5 CA         -2.7301  -14.0209  -45.3788 C.3       1 UNK         0.1400 
      6 C6         -4.0277  -14.3967  -44.6176 C.3       23 UNK        -0.0398 
      7 S7         -4.6090  -16.0799  -45.0268 S.3       23 UNK        -0.2404 
      8 C8         -5.9820  -15.7467  -46.1782 C.3       23 UNK        -0.0205 
      9 C9         -5.9850  -16.7162  -47.3519 C.ar      23 UNK        -0.0193 
     10 C10        -7.1032  -17.5113  -47.6294 C.ar      23 UNK        -0.1150 
     11 C11        -7.1140  -18.3532  -48.7477 C.ar      23 UNK        -0.0193 
     12 C12        -5.9959  -18.3948  -49.5856 C.ar      23 UNK        -0.1150 
     13 C13        -4.8650  -17.6258  -49.3043 C.ar      23 UNK        -0.0193 
     14 C14        -4.8713  -16.7850  -48.1923 C.ar      23 UNK        -0.1150 
     15 C15        -3.6441  -17.6836  -50.2087 C.3       23 UNK        -0.0205 
     16 S16        -2.8489  -19.3185  -50.1920 S.3       23 UNK        -0.2404 
     17 C17        -2.1863  -19.4162  -48.4959 C.3       23 UNK        -0.0398 
     18 CA         -2.0015  -20.8901  -48.0649 C.3       11 UNK         0.1400 
     19 N          -0.8592  -21.0923  -47.1759 N.am      11 UNK        -0.5000 
     20 C          -0.3147  -22.2929  -46.9305 C.2       10 UNK         0.5000 
     21 O          -0.7360  -23.3484  -47.4073 O.2       10 UNK        -0.5000 
     22 CA          0.8799  -22.3241  -45.9630 C.3       10 UNK         0.1400 
     23 CB          2.1513  -21.8100  -46.6557 C.3       10 UNK        -0.1800 
     24 N           0.6373  -21.5608  -44.7382 N.am      10 UNK        -0.5000 
     25 C          -0.3342  -21.8361  -43.8554 C.2       9 UNK         0.5000 
     26 O          -1.1216  -22.7738  -43.9716 O.2       9 UNK        -0.5000 
     27 CA         -0.4861  -20.8774  -42.6632 C.3       9 UNK         0.1400 
     28 CB          0.6004  -21.1354  -41.6085 C.3       9 UNK        -0.1800 
     29 N          -0.4639  -19.4714  -43.0608 N.am      9 UNK        -0.5000 
     30 C          -1.3362  -18.9000  -43.9040 C.2       8 UNK         0.5000 
     31 O          -2.2662  -19.4941  -44.4469 O.2       8 UNK        -0.5000 
     32 CA         -1.0907  -17.4219  -44.2388 C.3       8 UNK         0.1400 
     33 CB         -1.4306  -16.5348  -43.0283 C.3       8 UNK        -0.1800 
     34 N           0.2858  -17.1757  -44.6678 N.am      8 UNK        -0.5000 
     35 C           0.8866  -17.7699  -45.7104 C.2       7 UNK         0.5000 
     36 O           0.3241  -18.5493  -46.4782 O.2       7 UNK        -0.5000 
     37 CA          2.3858  -17.4861  -45.8935 C.3       7 UNK         0.1400 
     38 CB          2.6124  -16.1440  -46.6070 C.3       7 UNK        -0.1800 
     39 N           3.0988  -17.5020  -44.6163 N.am      7 UNK        -0.5000 
     40 C           3.2754  -18.5974  -43.8620 C.2       6 UNK         0.5000 
     41 O           2.8955  -19.7228  -44.1854 O.2       6 UNK        -0.5000 
     42 CA          3.9491  -18.3862  -42.4944 C.3       6 UNK         0.1400 
     43 CB          5.4761  -18.3180  -42.6447 C.3       6 UNK        -0.1800 
     44 N           3.4707  -17.1758  -41.8251 N.am      6 UNK        -0.5000 
     45 C           2.2222  -17.0108  -41.3646 C.2       5 UNK         0.5000 
     46 O           1.3606  -17.8883  -41.4030 O.2       5 UNK        -0.5000 
     47 CA          1.8657  -15.6163  -40.8144 C.3       5 UNK         0.1400 
     48 CB          2.2033  -15.5229  -39.3192 C.3       5 UNK        -0.1800 
     49 N           2.5378  -14.5307  -41.5355 N.am      5 UNK        -0.5000 
     50 C           2.3155  -14.2317  -42.8215 C.2       4 UNK         0.5000 
     51 O           1.5034  -14.8276  -43.5338 O.2       4 UNK        -0.5000 
     52 CA          3.1956  -13.1374  -43.4346 C.3       4 UNK         0.1400 
     53 CB          4.5452  -13.7446  -43.8722 C.3       4 UNK        -0.1800 
     54 N           2.4855  -12.5674  -44.5752 N.am      4 UNK        -0.5000 
     55 C           2.8681  -11.5117  -45.3018 C.2       3 UNK         0.5000 
     56 O           3.8883  -10.8568  -45.0842 O.2       3 UNK        -0.5000 
     57 CA          1.9457  -11.1116  -46.4679 C.3       3 UNK         0.1400 
     58 CB          2.1645  -12.0408  -47.6729 C.3       3 UNK        -0.1800 
     59 N           0.5242  -11.1025  -46.1138 N.am      3 UNK        -0.5000 
     60 C          -0.0431  -10.2624  -45.2348 C.2       2 UNK         0.5000 
     61 O           0.5848   -9.4258  -44.5849 O.2       2 UNK        -0.5000 
     62 CA         -1.5740  -10.3434  -45.0710 C.3       2 UNK         0.1400 
     63 CB         -2.2557   -9.2184  -45.8656 C.3       2 UNK        -0.1800 
     64 N          -2.1398  -11.6266  -45.4941 N.am      2 UNK        -0.5000 
     65 C          -2.0842  -12.7551  -44.7727 C.2       1 UNK         0.5000 
     66 O          -1.5352  -12.8257  -43.6741 O.2       1 UNK        -0.5000 
     67 C          -3.2930  -21.5204  -47.5148 C.2       11 UNK         0.5000 
     68 O          -4.0016  -22.1783  -48.2737 O.2       11 UNK        -0.5000 
     69 N          -3.5451  -21.3693  -46.2063 N.am      12 UNK        -0.5000 
     70 CA         -4.6751  -21.9872  -45.5118 C.3       12 UNK         0.1400 
     71 CB         -4.7713  -21.4326  -44.0829 C.3       12 UNK        -0.1800 
     72 C          -4.6024  -23.5257  -45.4916 C.2       12 UNK         0.5000 
     73 O          -5.6369  -24.1782  -45.6356 O.2       12 UNK        -0.5000 
     74 N          -3.3914  -24.0767  -45.3205 N.am      13 UNK        -0.5000 
     75 CA         -3.1321  -25.5161  -45.3338 C.3       13 UNK         0.1400 
     76 CB         -1.7279  -25.7992  -44.7786 C.3       13 UNK        -0.1800 
     77 C          -3.2944  -26.1444  -46.7286 C.2       13 UNK         0.5000 
     78 O          -3.8193  -27.2550  -46.8259 O.2       13 UNK        -0.5000 
     79 N          -2.8474  -25.4385  -47.7749 N.am      14 UNK        -0.5000 
     80 CA         -2.9211  -25.8973  -49.1569 C.3       14 UNK         0.1400 
     81 CB         -1.7696  -26.8776  -49.4615 C.3       14 UNK        -0.1800 
     82 C          -2.9468  -24.7075  -50.1226 C.2       14 UNK         0.5000 
     83 O          -4.0072  -24.3948  -50.6702 O.2       14 UNK        -0.5000 
     84 N          -1.7789  -24.0902  -50.3376 N.am      15 UNK        -0.5000 
     85 CA         -1.5378  -23.0580  -51.3383 C.3       15 UNK         0.1400 
     86 CB         -1.5059  -23.6996  -52.7376 C.3       15 UNK        -0.1800 
     87 C          -0.2031  -22.3638  -51.0433 C.2       15 UNK         0.5000 
     88 O           0.6844  -22.9679  -50.4357 O.2       15 UNK        -0.5000 
     89 N          -0.0715  -21.1167  -51.5047 N.am      16 UNK        -0.5000 
     90 CA          1.1262  -20.2934  -51.3693 C.3       16 UNK         0.1400 
     91 CB          0.7183  -18.8094  -51.3940 C.3       16 UNK        -0.1800 
     92 C           2.1188  -20.6488  -52.4887 C.2       16 UNK         0.5000 
     93 O           2.2006  -19.9360  -53.4893 O.2       16 UNK        -0.5000 
     94 N           2.8121  -21.7830  -52.3140 N.am      17 UNK        -0.5000 
     95 CA          3.7523  -22.3957  -53.2606 C.3       17 UNK         0.1400 
     96 CB          4.9966  -21.5051  -53.4643 C.3       17 UNK        -0.1800 
     97 C           3.0604  -22.7952  -54.5812 C.2       17 UNK         0.5000 
     98 O           3.5274  -22.4423  -55.6655 O.2       17 UNK        -0.5000 
     99 N           1.9411  -23.5224  -54.4413 N.am      18 UNK        -0.5000 
    100 CA         1.0765  -24.0378  -55.5114 C.3       18 UNK         0.1400 
    101 CB         1.8365  -25.0384  -56.4086 C.3       18 UNK        -0.1800 
    102 C          0.3497  -22.9358  -56.3143 C.2       18 UNK         0.5000 
    103 O          0.0366  -23.1402  -57.4887 O.2       18 UNK        -0.5000 
    104 N          0.0658  -21.8009  -55.6639 N.am      19 UNK        -0.5000 
    105 CA        -0.7085  -20.6887  -56.2056 C.3       19 UNK         0.1400 
    106 CB         0.2471  -19.5542  -56.6075 C.3       19 UNK        -0.1800 
    107 C         -1.7152  -20.2048  -55.1519 C.2       19 UNK         0.5000 
    108 O         -1.4513  -20.3252  -53.9522 O.2       19 UNK        -0.5000 
    109 N         -2.8427  -19.6578  -55.6317 N.am      20 UNK        -0.5000 
    110 CA        -3.9304  -19.0358  -54.8610 C.3       20 UNK         0.1400 
    111 CB        -3.4399  -17.7134  -54.2336 C.3       20 UNK        -0.1800 
    112 C         -4.5888  -19.9737  -53.8234 C.2       20 UNK         0.5000 
    113 O         -5.0229  -19.5049  -52.7734 O.2       20 UNK        -0.5000 
    114 N         -4.6290  -21.2768  -54.1379 N.am      21 UNK        -0.5000 
    115 CA        -4.9806  -22.3849  -53.2469 C.3       21 UNK         0.1400 
    116 CB        -5.0322  -23.6825  -54.0695 C.3       21 UNK        -0.1800 
    117 C         -6.2850  -22.2054  -52.4460 C.2       21 UNK         0.5000 
    118 O         -7.3412  -21.9798  -53.0419 O.2       21 UNK        -0.5000 
    119 N         -6.1811  -22.3521  -51.1202 N.am      22 UNK        -0.5000 
    120 CA        -7.3171  -22.4229  -50.1892 C.3       22 UNK         0.1400 
    121 C         -7.7810  -23.8860  -49.9313 C.2       22 UNK         0.5000 
    122 N         -6.9633  -24.8981  -50.2052 N.am      22 UNK        -0.7600 
    123 O         -8.9068  -24.1097  -49.4958 O.2       22 UNK        -0.5000 
    124 C124       -6.9982  -21.6837  -48.8612 C.3       23 UNK        -0.0398 
    125 S125       -8.4088  -20.7636  -48.1586 S.3       23 UNK        -0.2404 
    126 C126       -8.3425  -19.1907  -49.0797 C.3       23 UNK        -0.0205 
    127 H127       -0.0255  -14.6074  -48.3223 H         1 UNK         0.0600 
    128 H128       -0.7749  -15.7452  -47.2062 H         1 UNK         0.0600 
    129 H129       -0.2252  -14.1622  -46.6324 H         1 UNK         0.0600 
    130 H130       -3.8661  -13.5318  -47.0865 H         1 UNK         0.3000 
    131 H131       -2.0184  -14.8282  -45.2183 H         1 UNK         0.0600 
    132 H132       -3.8531  -14.3843  -43.5400 H         1 UNK         0.0800 
    133 H133       -4.8173  -13.6656  -44.7982 H         1 UNK         0.0800 
    134 H134       -5.9083  -14.7346  -46.5768 H         1 UNK         0.0800 
    135 H135       -6.9227  -15.7946  -45.6278 H         1 UNK         0.0800 
    136 H136       -7.9717  -17.4649  -46.9875 H         1 UNK         0.1150 
    137 H137       -5.9980  -19.0385  -50.4537 H         1 UNK         0.1150 
    138 H138       -4.0053  -16.1787  -47.9783 H         1 UNK         0.1150 
    139 H139       -3.9531  -17.4544  -51.2286 H         1 UNK         0.0800 
    140 H140       -2.9102  -16.9247  -49.9322 H         1 UNK         0.0800 
    141 H141       -2.8145  -18.8673  -47.7922 H         1 UNK         0.0800 
    142 H142       -1.2274  -18.8993  -48.5112 H         1 UNK         0.0800 
    143 H143       -1.7593  -21.4593  -48.9598 H         1 UNK         0.0600 
    144 H144       -0.4541  -20.2606  -46.7529 H         1 UNK         0.3000 
    145 H145        1.0464  -23.3648  -45.6775 H         1 UNK         0.0600 
    146 H146        3.0241  -21.9266  -46.0132 H         1 UNK         0.0600 
    147 H147        2.3463  -22.3636  -47.5754 H         1 UNK         0.0600 
    148 H148        2.0688  -20.7550  -46.9186 H         1 UNK         0.0600 
    149 H149        1.2631  -20.7817  -44.5563 H         1 UNK         0.3000 
    150 H150       -1.4574  -21.0728  -42.2043 H         1 UNK         0.0600 
    151 H151        0.5976  -22.1789  -41.2911 H         1 UNK         0.0600 
    152 H152        0.4389  -20.5246  -40.7202 H         1 UNK         0.0600 
    153 H153        1.5962  -20.9098  -41.9913 H         1 UNK         0.0600 
    154 H154        0.2596  -18.8947  -42.6403 H         1 UNK         0.3000 
    155 H155       -1.7447  -17.1536  -45.0699 H         1 UNK         0.0600 
    156 H156       -0.9126  -16.8554  -42.1261 H         1 UNK         0.0600 
    157 H157       -2.4984  -16.5704  -42.8118 H         1 UNK         0.0600 
    158 H158       -1.1633  -15.4935  -43.1988 H         1 UNK         0.0600 
    159 H159        0.8150  -16.4997  -44.1241 H         1 UNK         0.3000 
    160 H160        2.8006  -18.2772  -46.5218 H         1 UNK         0.0600 
    161 H161        2.2159  -15.3050  -46.0360 H         1 UNK         0.0600 
    162 H162        2.1223  -16.1356  -47.5813 H         1 UNK         0.0600 
    163 H163        3.6734  -15.9616  -46.7773 H         1 UNK         0.0600 
    164 H164        3.4032  -16.6120  -44.2544 H         1 UNK         0.3000 
    165 H165        3.7048  -19.2448  -41.8651 H         1 UNK         0.0600 
    166 H166        5.9643  -18.2420  -41.6730 H         1 UNK         0.0600 
    167 H167        5.8600  -19.2159  -43.1308 H         1 UNK         0.0600 
    168 H168        5.7865  -17.4614  -43.2445 H         1 UNK         0.0600 
    169 H169        4.1209  -16.4088  -41.7428 H         1 UNK         0.3000 
    170 H170        0.7885  -15.4803  -40.9296 H         1 UNK         0.0600 
    171 H171        1.6983  -16.3088  -38.7558 H         1 UNK         0.0600 
    172 H172        3.2741  -15.6261  -39.1393 H         1 UNK         0.0600 
    173 H173        1.8824  -14.5685  -38.9014 H         1 UNK         0.0600 
    174 H174        3.2245  -14.0017  -41.0171 H         1 UNK         0.3000 
    175 H175        3.3591  -12.3546  -42.6915 H         1 UNK         0.0600 
    176 H176        4.4164  -14.4772  -44.6695 H         1 UNK         0.0600 
    177 H177        5.2330  -12.9804  -44.2327 H         1 UNK         0.0600 
    178 H178        5.0417  -14.2465  -43.0410 H         1 UNK         0.0600 
    179 H179        1.6162  -13.0389  -44.7907 H         1 UNK         0.3000 
    180 H180        2.2171  -10.0980  -46.7709 H         1 UNK         0.0600 
    181 H181        1.9123  -13.0752  -47.4392 H         1 UNK         0.0600 
    182 H182        3.2077  -12.0247  -47.9910 H         1 UNK         0.0600 
    183 H183        1.5612  -11.7317  -48.5266 H         1 UNK         0.0600 
    184 H184       -0.0746  -11.7388  -46.6157 H         1 UNK         0.3000 
    185 H185       -1.7985  -10.1940  -44.0125 H         1 UNK         0.0600 
    186 H186       -1.8835   -8.2404  -45.5575 H         1 UNK         0.0600 
    187 H187       -2.0755   -9.3153  -46.9370 H         1 UNK         0.0600 
    188 H188       -3.3339   -9.2188  -45.7043 H         1 UNK         0.0600 
    189 H189       -2.6060  -11.6457  -46.3898 H         1 UNK         0.3000 
    190 H190       -2.9274  -20.7937  -45.6381 H         1 UNK         0.3000 
    191 H191       -5.5858  -21.7031  -46.0422 H         1 UNK         0.0600 
    192 H192       -3.8700  -21.6481  -43.5075 H         1 UNK         0.0600 
    193 H193       -5.6161  -21.8695  -43.5492 H         1 UNK         0.0600 
    194 H194       -4.9146  -20.3519  -44.0895 H         1 UNK         0.0600 
    195 H195       -2.5932  -23.4745  -45.1444 H         1 UNK         0.3000 
    196 H196       -3.8559  -25.9942  -44.6704 H         1 UNK         0.0600 
    197 H197       -1.5105  -26.8680  -44.7886 H         1 UNK         0.0600 
    198 H198       -1.6373  -25.4605  -43.7465 H         1 UNK         0.0600 
    199 H199       -0.9551  -25.3007  -45.3648 H         1 UNK         0.0600 
    200 H200       -2.4094  -24.5351  -47.6198 H         1 UNK         0.3000 
    201 H201       -3.8640  -26.4289  -49.3033 H         1 UNK         0.0600 
    202 H202       -1.8801  -27.8018  -48.8943 H         1 UNK         0.0600 
    203 H203       -0.7964  -26.4528  -49.2130 H         1 UNK         0.0600 
    204 H204       -1.7541  -27.1482  -50.5181 H         1 UNK         0.0600 
    205 H205       -0.9624  -24.3432  -49.7932 H         1 UNK         0.3000 
    206 H206       -2.3317  -22.3126  -51.2752 H         1 UNK         0.0600 
    207 H207       -1.3938  -22.9463  -53.5152 H         1 UNK         0.0600 
    208 H208       -0.6788  -24.4037  -52.8291 H         1 UNK         0.0600 
    209 H209       -2.4217  -24.2477  -52.9513 H         1 UNK         0.0600 
    210 H210       -0.8012  -20.7261  -52.0951 H         1 UNK         0.3000 
    211 H211        1.6053  -20.4917  -50.4079 H         1 UNK         0.0600 
    212 H212        0.1581  -18.5583  -52.2959 H         1 UNK         0.0600 
    213 H213        1.5950  -18.1618  -51.3581 H         1 UNK         0.0600 
    214 H214        0.0972  -18.5579  -50.5354 H         1 UNK         0.0600 
    215 H215        2.6161  -22.3210  -51.4781 H         1 UNK         0.3000 
    216 H216        4.0911  -23.3251  -52.8004 H         1 UNK         0.0600 
    217 H217        5.7439  -22.0156  -54.0728 H         1 UNK         0.0600 
    218 H218        5.4664  -21.2610  -52.5116 H         1 UNK         0.0600 
    219 H219        4.7525  -20.5691  -53.9675 H         1 UNK         0.0600 
    220 H220        1.6520  -23.7515  -53.5013 H         1 UNK         0.3000 
    221 H221        0.2873  -24.6013  -55.0135 H         1 UNK         0.0600 
    222 H222        2.5938  -24.5451  -57.0184 H         1 UNK         0.0600 
    223 H223        2.3315  -25.8056  -55.8133 H         1 UNK         0.0600 
    224 H224        1.1546  -25.5494  -57.0892 H         1 UNK         0.0600 
    225 H225        0.3389  -21.6961  -54.6967 H         1 UNK         0.3000 
    226 H226       -1.2684  -21.0112  -57.0860 H         1 UNK         0.0600 
    227 H227        0.9625  -19.8900  -57.3585 H         1 UNK         0.0600 
    228 H228       -0.2998  -18.7111  -57.0312 H         1 UNK         0.0600 
    229 H229        0.8117  -19.1833  -55.7511 H         1 UNK         0.0600 
    230 H230       -2.9609  -19.6229  -56.6349 H         1 UNK         0.3000 
    231 H231       -4.7131  -18.7883  -55.5793 H         1 UNK         0.0600 
    232 H232       -2.9919  -17.0622  -54.9839 H         1 UNK         0.0600 
    233 H233       -2.6963  -17.8895  -53.4552 H         1 UNK         0.0600 
    234 H234       -4.2651  -17.1628  -53.7805 H         1 UNK         0.0600 
    235 H235       -4.2747  -21.5403  -55.0445 H         1 UNK         0.3000 
    236 H236       -4.1608  -22.4691  -52.5373 H         1 UNK         0.0600 
    237 H237       -5.8362  -23.6577  -54.8062 H         1 UNK         0.0600 
    238 H238       -4.0978  -23.8568  -54.6027 H         1 UNK         0.0600 
    239 H239       -5.2039  -24.5448  -53.4236 H         1 UNK         0.0600 
    240 H240       -5.2794  -22.5905  -50.7233 H         1 UNK         0.3000 
    241 H241       -8.1634  -21.9174  -50.6576 H         1 UNK         0.0600 
    242 H242       -7.2753  -25.8426  -50.0459 H         1 UNK         0.3800 
    243 H243       -6.0156  -24.7265  -50.5221 H         1 UNK         0.3800 
    244 H244       -6.6369  -22.3806  -48.1032 H         1 UNK         0.0800 
    245 H245       -6.1793  -20.9812  -49.0014 H         1 UNK         0.0800 
    246 H246       -9.2418  -18.6162  -48.8530 H         1 UNK         0.0800 
    247 H247       -8.3815  -19.3987  -50.1503 H         1 UNK         0.0800 
@<TRIPOS>BOND
     1    1    2 1    
     2    1  127 1    
     3    1  128 1    
     4    1  129 1    
     5    2    3 2    
     6    2    4 am   BACKBONE|DICT|INTERRES
     7    4    5 1    
     8    4  130 1    
     9    5    6 1    
    10    5   65 1    
    11    5  131 1    
    12    6    7 1    
    13    6  132 1    
    14    6  133 1    
    15    7    8 1    
    16    8    9 1    
    17    8  134 1    
    18    8  135 1    
    19    9   10 ar   
    20    9   14 ar   
    21   10   11 ar   
    22   10  136 1    
    23   11   12 ar   
    24   11  126 1    
    25   12   13 ar   
    26   12  137 1    
    27   13   14 ar   
    28   13   15 1    
    29   14  138 1    
    30   15   16 1    
    31   15  139 1    
    32   15  140 1    
    33   16   17 1    
    34   17   18 1    
    35   17  141 1    
    36   17  142 1    
    37   18   19 1    
    38   18   67 1    
    39   18  143 1    
    40   19   20 am   BACKBONE|DICT|INTERRES
    41   19  144 1    
    42   20   21 2    
    43   20   22 1    
    44   22   23 1    
    45   22   24 1    
    46   22  145 1    
    47   23  146 1    
    48   23  147 1    
    49   23  148 1    
    50   24   25 am   BACKBONE|DICT|INTERRES
    51   24  149 1    
    52   25   26 2    
    53   25   27 1    
    54   27   28 1    
    55   27   29 1    
    56   27  150 1    
    57   28  151 1    
    58   28  152 1    
    59   28  153 1    
    60   29   30 am   BACKBONE|DICT|INTERRES
    61   29  154 1    
    62   30   31 2    
    63   30   32 1    
    64   32   33 1    
    65   32   34 1    
    66   32  155 1    
    67   33  156 1    
    68   33  157 1    
    69   33  158 1    
    70   34   35 am   BACKBONE|DICT|INTERRES
    71   34  159 1    
    72   35   36 2    
    73   35   37 1    
    74   37   38 1    
    75   37   39 1    
    76   37  160 1    
    77   38  161 1    
    78   38  162 1    
    79   38  163 1    
    80   39   40 am   BACKBONE|DICT|INTERRES
    81   39  164 1    
    82   40   41 2    
    83   40   42 1    
    84   42   43 1    
    85   42   44 1    
    86   42  165 1    
    87   43  166 1    
    88   43  167 1    
    89   43  168 1    
    90   44   45 am   BACKBONE|DICT|INTERRES
    91   44  169 1    
    92   45   46 2    
    93   45   47 1    
    94   47   48 1    
    95   47   49 1    
    96   47  170 1    
    97   48  171 1    
    98   48  172 1    
    99   48  173 1    
   100   49   50 am   BACKBONE|DICT|INTERRES
   101   49  174 1    
   102   50   51 2    
   103   50   52 1    
   104   52   53 1    
   105   52   54 1    
   106   52  175 1    
   107   53  176 1    
   108   53  177 1    
   109   53  178 1    
   110   54   55 am   BACKBONE|DICT|INTERRES
   111   54  179 1    
   112   55   56 2    
   113   55   57 1    
   114   57   58 1    
   115   57   59 1    
   116   57  180 1    
   117   58  181 1    
   118   58  182 1    
   119   58  183 1    
   120   59   60 am   BACKBONE|DICT|INTERRES
   121   59  184 1    
   122   60   61 2    
   123   60   62 1    
   124   62   63 1    
   125   62   64 1    
   126   62  185 1    
   127   63  186 1    
   128   63  187 1    
   129   63  188 1    
   130   64   65 am   BACKBONE|DICT|INTERRES
   131   64  189 1    
   132   65   66 2    
   133   67   68 2    
   134   67   69 am   BACKBONE|DICT|INTERRES
   135   69   70 1    
   136   69  190 1    
   137   70   71 1    
   138   70   72 1    
   139   70  191 1    
   140   71  192 1    
   141   71  193 1    
   142   71  194 1    
   143   72   73 2    
   144   72   74 am   BACKBONE|DICT|INTERRES
   145   74   75 1    
   146   74  195 1    
   147   75   76 1    
   148   75   77 1    
   149   75  196 1    
   150   76  197 1    
   151   76  198 1    
   152   76  199 1    
   153   77   78 2    
   154   77   79 am   BACKBONE|DICT|INTERRES
   155   79   80 1    
   156   79  200 1    
   157   80   81 1    
   158   80   82 1    
   159   80  201 1    
   160   81  202 1    
   161   81  203 1    
   162   81  204 1    
   163   82   83 2    
   164   82   84 am   BACKBONE|DICT|INTERRES
   165   84   85 1    
   166   84  205 1    
   167   85   86 1    
   168   85   87 1    
   169   85  206 1    
   170   86  207 1    
   171   86  208 1    
   172   86  209 1    
   173   87   88 2    
   174   87   89 am   BACKBONE|DICT|INTERRES
   175   89   90 1    
   176   89  210 1    
   177   90   91 1    
   178   90   92 1    
   179   90  211 1    
   180   91  212 1    
   181   91  213 1    
   182   91  214 1    
   183   92   93 2    
   184   92   94 am   BACKBONE|DICT|INTERRES
   185   94   95 1    
   186   94  215 1    
   187   95   96 1    
   188   95   97 1    
   189   95  216 1    
   190   96  217 1    
   191   96  218 1    
   192   96  219 1    
   193   97   98 2    
   194   97   99 am   BACKBONE|DICT|INTERRES
   195   99  100 1    
   196   99  220 1    
   197  100  101 1    
   198  100  102 1    
   199  100  221 1    
   200  101  222 1    
   201  101  223 1    
   202  101  224 1    
   203  102  103 2    
   204  102  104 am   BACKBONE|DICT|INTERRES
   205  104  105 1    
   206  104  225 1    
   207  105  106 1    
   208  105  107 1    
   209  105  226 1    
   210  106  227 1    
   211  106  228 1    
   212  106  229 1    
   213  107  108 2    
   214  107  109 am   BACKBONE|DICT|INTERRES
   215  109  110 1    
   216  109  230 1    
   217  110  111 1    
   218  110  112 1    
   219  110  231 1    
   220  111  232 1    
   221  111  233 1    
   222  111  234 1    
   223  112  113 2    
   224  112  114 am   BACKBONE|DICT|INTERRES
   225  114  115 1    
   226  114  235 1    
   227  115  116 1    
   228  115  117 1    
   229  115  236 1    
   230  116  237 1    
   231  116  238 1    
   232  116  239 1    
   233  117  118 2    
   234  117  119 am   BACKBONE|DICT|INTERRES
   235  119  120 1    
   236  119  240 1    
   237  120  121 1    
   238  120  124 1    
   239  120  241 1    
   240  121  122 am   BACKBONE|DICT|INTERRES
   241  121  123 2    
   242  122  242 1    
   243  122  243 1    
   244  124  125 1    
   245  124  244 1    
   246  124  245 1    
   247  125  126 1    
   248  126  246 1    
   249  126  247 1    
@<TRIPOS>SUBSTRUCTURE
     1 UNK         1 GROUP             0       ****    0 ROOT    
