@<TRIPOS>MOLECULE
3R540
247   249    1
SMALL
USER_CHARGES


@<TRIPOS>ATOM
      1 CA          1.8520  -14.8789  -49.1480 C.3       0 UNK        -0.1800 
      2 C           1.3036  -14.5979  -47.7577 C.2       0 UNK         0.5000 
      3 O           2.0777  -14.4390  -46.8157 O.2       0 UNK        -0.5000 
      4 N          -0.0266  -14.4974  -47.6279 N.am      1 UNK        -0.5000 
      5 CA         -0.7396  -14.2046  -46.3753 C.3       1 UNK         0.1400 
      6 C6         -2.2772  -14.2784  -46.5548 C.3       23 UNK        -0.0398 
      7 S7         -2.9139  -15.9779  -46.7358 S.3       23 UNK        -0.2404 
      8 C8         -3.1845  -16.1359  -48.5351 C.3       23 UNK        -0.0205 
      9 C9         -2.0086  -16.7061  -49.3323 C.ar      23 UNK        -0.0193 
     10 C10        -2.0123  -16.5610  -50.7226 C.ar      23 UNK        -0.1150 
     11 C11        -0.9846  -17.0985  -51.5024 C.ar      23 UNK        -0.0193 
     12 C12         0.0789  -17.7585  -50.8820 C.ar      23 UNK        -0.1150 
     13 C13         0.1081  -17.9009  -49.4934 C.ar      23 UNK        -0.0193 
     14 C14        -0.9475  -17.3968  -48.7300 C.ar      23 UNK        -0.1150 
     15 C15         1.3015  -18.5542  -48.8108 C.3       23 UNK        -0.0205 
     16 S16         1.3517  -20.3557  -49.0436 S.3       23 UNK        -0.2404 
     17 C17        -0.1736  -20.8910  -48.2049 C.3       23 UNK        -0.0398 
     18 CA          0.0350  -22.2173  -47.4381 C.3       11 UNK         0.1400 
     19 N           0.8037  -22.0598  -46.2026 N.am      11 UNK        -0.5000 
     20 C           1.3845  -23.0817  -45.5580 C.2       10 UNK         0.5000 
     21 O           1.4366  -24.2303  -45.9991 O.2       10 UNK        -0.5000 
     22 CA          1.9704  -22.7881  -44.1660 C.3       10 UNK         0.1400 
     23 CB          3.3946  -22.2248  -44.2823 C.3       10 UNK        -0.1800 
     24 N           1.1359  -21.8857  -43.3698 N.am      10 UNK        -0.5000 
     25 C          -0.1235  -22.1503  -42.9899 C.2       9 UNK         0.5000 
     26 O          -0.7148  -23.1965  -43.2583 O.2       9 UNK        -0.5000 
     27 CA         -0.8603  -21.0545  -42.1996 C.3       9 UNK         0.1400 
     28 CB         -0.4697  -21.1024  -40.7150 C.3       9 UNK        -0.1800 
     29 N          -0.6310  -19.7071  -42.7204 N.am      9 UNK        -0.5000 
     30 C          -0.9685  -19.2848  -43.9479 C.2       8 UNK         0.5000 
     31 O          -1.5095  -19.9900  -44.7989 O.2       8 UNK        -0.5000 
     32 CA         -0.5718  -17.8417  -44.3040 C.3       8 UNK         0.1400 
     33 CB         -1.4424  -16.8329  -43.5345 C.3       8 UNK        -0.1800 
     34 N           0.8457  -17.5827  -44.0488 N.am      8 UNK        -0.5000 
     35 C           1.8608  -18.2879  -44.5734 C.2       7 UNK         0.5000 
     36 O           1.7196  -19.2031  -45.3849 O.2       7 UNK        -0.5000 
     37 CA          3.2669  -17.9618  -44.0441 C.3       7 UNK         0.1400 
     38 CB          3.8501  -16.7219  -44.7402 C.3       7 UNK        -0.1800 
     39 N           3.2652  -17.7711  -42.5925 N.am      7 UNK        -0.5000 
     40 C           3.0406  -18.7502  -41.7027 C.2       6 UNK         0.5000 
     41 O           2.8589  -19.9268  -42.0112 O.2       6 UNK        -0.5000 
     42 CA          2.9593  -18.3374  -40.2220 C.3       6 UNK         0.1400 
     43 CB          4.3647  -18.2092  -39.6158 C.3       6 UNK        -0.1800 
     44 N           2.2340  -17.0811  -40.0363 N.am      6 UNK        -0.5000 
     45 C           0.9284  -16.9116  -40.2919 C.2       5 UNK         0.5000 
     46 O           0.1774  -17.8248  -40.6316 O.2       5 UNK        -0.5000 
     47 CA          0.3879  -15.4701  -40.2032 C.3       5 UNK         0.1400 
     48 CB         -0.1419  -15.1778  -38.7919 C.3       5 UNK        -0.1800 
     49 N           1.3978  -14.4694  -40.5622 N.am      5 UNK        -0.5000 
     50 C           1.9307  -14.3447  -41.7845 C.2       4 UNK         0.5000 
     51 O           1.5699  -15.0079  -42.7603 O.2       4 UNK        -0.5000 
     52 CA          3.1300  -13.3976  -41.9055 C.3       4 UNK         0.1400 
     53 CB          4.4053  -14.1199  -41.4191 C.3       4 UNK        -0.1800 
     54 N           3.2735  -12.9804  -43.2966 N.am      4 UNK        -0.5000 
     55 C           4.1233  -12.0510  -43.7504 C.2       3 UNK         0.5000 
     56 O           4.8896  -11.4077  -43.0318 O.2       3 UNK        -0.5000 
     57 CA          4.1026  -11.7784  -45.2633 C.3       3 UNK         0.1400 
     58 CB          4.8639  -12.8737  -46.0268 C.3       3 UNK        -0.1800 
     59 N           2.7401  -11.6565  -45.7843 N.am      3 UNK        -0.5000 
     60 C           1.9589  -10.5836  -45.5787 C.2       2 UNK         0.5000 
     61 O           2.3162   -9.6020  -44.9257 O.2       2 UNK        -0.5000 
     62 CA          0.5556  -10.5724  -46.2186 C.3       2 UNK         0.1400 
     63 CB          0.5382   -9.6599  -47.4551 C.3       2 UNK        -0.1800 
     64 N           0.0781  -11.8964  -46.6104 N.am      2 UNK        -0.5000 
     65 C          -0.3500  -12.8402  -45.7614 C.2       1 UNK         0.5000 
     66 O          -0.4345  -12.6729  -44.5447 O.2       1 UNK        -0.5000 
     67 C          -1.3068  -22.9165  -47.1563 C.2       11 UNK         0.5000 
     68 O          -1.5779  -23.9506  -47.7647 O.2       11 UNK        -0.5000 
     69 N          -2.1088  -22.3698  -46.2286 N.am      12 UNK        -0.5000 
     70 CA         -3.4814  -22.8002  -45.9288 C.3       12 UNK         0.1400 
     71 CB         -4.0928  -21.8643  -44.8767 C.3       12 UNK        -0.1800 
     72 C          -3.6354  -24.2715  -45.4975 C.2       12 UNK         0.5000 
     73 O          -4.7141  -24.8381  -45.6762 O.2       12 UNK        -0.5000 
     74 N          -2.5565  -24.8761  -44.9825 N.am      13 UNK        -0.5000 
     75 CA         -2.4382  -26.3099  -44.7115 C.3       13 UNK         0.1400 
     76 CB         -1.0891  -26.5729  -44.0253 C.3       13 UNK        -0.1800 
     77 C          -2.5863  -27.1999  -45.9666 C.2       13 UNK         0.5000 
     78 O          -2.9895  -28.3563  -45.8333 O.2       13 UNK        -0.5000 
     79 N          -2.2726  -26.6533  -47.1491 N.am      14 UNK        -0.5000 
     80 CA         -2.4602  -27.2852  -48.4514 C.3       14 UNK         0.1400 
     81 CB         -1.1351  -27.2449  -49.2333 C.3       14 UNK        -0.1800 
     82 C          -3.5925  -26.5717  -49.2080 C.2       14 UNK         0.5000 
     83 O          -4.6450  -27.1711  -49.4304 O.2       14 UNK        -0.5000 
     84 N          -3.3635  -25.3028  -49.5650 N.am      15 UNK        -0.5000 
     85 CA         -4.2733  -24.4036  -50.2687 C.3       15 UNK         0.1400 
     86 CB         -4.5690  -24.9046  -51.6950 C.3       15 UNK        -0.1800 
     87 C          -3.6288  -23.0110  -50.3151 C.2       15 UNK         0.5000 
     88 O          -2.4051  -22.9050  -50.4163 O.2       15 UNK        -0.5000 
     89 N          -4.4588  -21.9685  -50.2537 N.am      16 UNK        -0.5000 
     90 CA         -4.0497  -20.5675  -50.2390 C.3       16 UNK         0.1400 
     91 CB         -3.8615  -20.1191  -48.7777 C.3       16 UNK        -0.1800 
     92 C          -5.1222  -19.7243  -50.9426 C.2       16 UNK         0.5000 
     93 O          -6.1681  -20.2562  -51.3252 O.2       16 UNK        -0.5000 
     94 N          -4.8430  -18.4220  -51.0957 N.am      17 UNK        -0.5000 
     95 CA         -5.7524  -17.3821  -51.6031 C.3       17 UNK         0.1400 
     96 CB         -6.8780  -17.1179  -50.5817 C.3       17 UNK        -0.1800 
     97 C          -6.2913  -17.6607  -53.0238 C.2       17 UNK         0.5000 
     98 O          -7.4248  -17.2979  -53.3420 O.2       17 UNK        -0.5000 
     99 N          -5.4571  -18.3173  -53.8414 N.am      18 UNK        -0.5000 
    100 CA        -5.7059  -18.7509  -55.2178 C.3       18 UNK         0.1400 
    101 CB        -5.8890  -17.5379  -56.1532 C.3       18 UNK        -0.1800 
    102 C         -6.8260  -19.8045  -55.3697 C.2       18 UNK         0.5000 
    103 O         -7.3555  -19.9638  -56.4708 O.2       18 UNK        -0.5000 
    104 N         -7.1616  -20.5245  -54.2865 N.am      19 UNK        -0.5000 
    105 CA        -8.1770  -21.5829  -54.2885 C.3       19 UNK         0.1400 
    106 CB        -8.5228  -21.9665  -52.8416 C.3       19 UNK        -0.1800 
    107 C         -7.7376  -22.8247  -55.0877 C.2       19 UNK         0.5000 
    108 O         -8.5347  -23.3793  -55.8451 O.2       19 UNK        -0.5000 
    109 N         -6.4701  -23.2159  -54.9138 N.am      20 UNK        -0.5000 
    110 CA        -5.8033  -24.3265  -55.5954 C.3       20 UNK         0.1400 
    111 CB        -6.3312  -25.6832  -55.0816 C.3       20 UNK        -0.1800 
    112 C         -4.2798  -24.1718  -55.4314 C.2       20 UNK         0.5000 
    113 O         -3.5767  -25.1460  -55.1596 O.2       20 UNK        -0.5000 
    114 N         -3.8033  -22.9286  -55.5537 N.am      21 UNK        -0.5000 
    115 CA        -2.4272  -22.5003  -55.3257 C.3       21 UNK         0.1400 
    116 CB        -2.1498  -22.4342  -53.8079 C.3       21 UNK        -0.1800 
    117 C         -2.2256  -21.1355  -56.0058 C.2       21 UNK         0.5000 
    118 O         -3.1082  -20.6826  -56.7394 O.2       21 UNK        -0.5000 
    119 N         -1.0857  -20.4933  -55.7241 N.am      22 UNK        -0.5000 
    120 CA        -0.7573  -19.1013  -56.0916 C.3       22 UNK         0.1400 
    121 C         -0.4693  -18.8656  -57.6063 C.2       22 UNK         0.5000 
    122 N         -0.2740  -19.9016  -58.4125 N.am      22 UNK        -0.7600 
    123 O         -0.3871  -17.7257  -58.0562 O.2       22 UNK        -0.5000 
    124 C124       -1.7586  -18.0572  -55.5117 C.3       23 UNK        -0.0398 
    125 S125       -2.0781  -18.2775  -53.7251 S.3       23 UNK        -0.2404 
    126 C126       -1.0294  -16.9753  -53.0152 C.3       23 UNK        -0.0205 
    127 H127        2.5106  -15.7460  -49.1237 H         1 UNK         0.0600 
    128 H128        2.4295  -14.0244  -49.5002 H         1 UNK         0.0600 
    129 H129        1.0557  -15.0717  -49.8671 H         1 UNK         0.0600 
    130 H130       -0.6114  -14.6642  -48.4341 H         1 UNK         0.3000 
    131 H131       -0.4311  -14.9642  -45.6566 H         1 UNK         0.0600 
    132 H132       -2.7826  -13.8703  -45.6770 H         1 UNK         0.0800 
    133 H133       -2.6012  -13.6599  -47.3930 H         1 UNK         0.0800 
    134 H134       -3.4793  -15.1689  -48.9448 H         1 UNK         0.0800 
    135 H135       -4.0416  -16.7934  -48.6802 H         1 UNK         0.0800 
    136 H136       -2.8243  -16.0373  -51.2068 H         1 UNK         0.1150 
    137 H137        0.8859  -18.1618  -51.4775 H         1 UNK         0.1150 
    138 H138       -0.9187  -17.5304  -47.6602 H         1 UNK         0.1150 
    139 H139        2.2208  -18.1316  -49.2168 H         1 UNK         0.0800 
    140 H140        1.3085  -18.3214  -47.7466 H         1 UNK         0.0800 
    141 H141       -0.9277  -21.0039  -48.9857 H         1 UNK         0.0800 
    142 H142       -0.5342  -20.1107  -47.5327 H         1 UNK         0.0800 
    143 H143        0.5940  -22.8875  -48.0957 H         1 UNK         0.0600 
    144 H144        0.8404  -21.1325  -45.7934 H         1 UNK         0.3000 
    145 H145        2.0274  -23.7372  -43.6291 H         1 UNK         0.0600 
    146 H146        3.8574  -22.1170  -43.3014 H         1 UNK         0.0600 
    147 H147        4.0306  -22.8889  -44.8688 H         1 UNK         0.0600 
    148 H148        3.4037  -21.2491  -44.7677 H         1 UNK         0.0600 
    149 H149        1.5699  -21.0200  -43.0650 H         1 UNK         0.3000 
    150 H150       -1.9301  -21.2568  -42.2728 H         1 UNK         0.0600 
    151 H151       -0.6453  -22.0938  -40.2956 H         1 UNK         0.0600 
    152 H152       -1.0561  -20.3931  -40.1306 H         1 UNK         0.0600 
    153 H153        0.5844  -20.8642  -40.5686 H         1 UNK         0.0600 
    154 H154       -0.2036  -19.0446  -42.0788 H         1 UNK         0.3000 
    155 H155       -0.7388  -17.6971  -45.3716 H         1 UNK         0.0600 
    156 H156       -1.4370  -17.0184  -42.4622 H         1 UNK         0.0600 
    157 H157       -2.4808  -16.8957  -43.8606 H         1 UNK         0.0600 
    158 H158       -1.1122  -15.8068  -43.6880 H         1 UNK         0.0600 
    159 H159        1.0654  -16.8122  -43.4256 H         1 UNK         0.3000 
    160 H160        3.9149  -18.8105  -44.2722 H         1 UNK         0.0600 
    161 H161        3.2432  -15.8333  -44.5703 H         1 UNK         0.0600 
    162 H162        3.9023  -16.8723  -45.8193 H         1 UNK         0.0600 
    163 H163        4.8607  -16.5096  -44.3918 H         1 UNK         0.0600 
    164 H164        3.3517  -16.8234  -42.2606 H         1 UNK         0.3000 
    165 H165        2.4237  -19.1228  -39.6843 H         1 UNK         0.0600 
    166 H166        4.3152  -17.9888  -38.5493 H         1 UNK         0.0600 
    167 H167        4.9237  -19.1392  -39.7287 H         1 UNK         0.0600 
    168 H168        4.9426  -17.4184  -40.0959 H         1 UNK         0.0600 
    169 H169        2.7734  -16.2821  -39.7402 H         1 UNK         0.3000 
    170 H170       -0.4427  -15.3812  -40.9062 H         1 UNK         0.0600 
    171 H171       -0.9122  -15.8964  -38.5085 H         1 UNK         0.0600 
    172 H172        0.6498  -15.2328  -38.0436 H         1 UNK         0.0600 
    173 H173       -0.5892  -14.1852  -38.7364 H         1 UNK         0.0600 
    174 H174        1.7462  -13.8915  -39.8106 H         1 UNK         0.3000 
    175 H175        2.9434  -12.5150  -41.2907 H         1 UNK         0.0600 
    176 H176        4.6595  -14.9624  -42.0631 H         1 UNK         0.0600 
    177 H177        5.2647  -13.4506  -41.3965 H         1 UNK         0.0600 
    178 H178        4.2835  -14.5042  -40.4059 H         1 UNK         0.0600 
    179 H179        2.6509  -13.4526  -43.9415 H         1 UNK         0.3000 
    180 H180        4.6209  -10.8334  -45.4408 H         1 UNK         0.0600 
    181 H181        5.9097  -12.9036  -45.7193 H         1 UNK         0.0600 
    182 H182        4.8450  -12.6940  -47.1018 H         1 UNK         0.0600 
    183 H183        4.4452  -13.8635  -45.8446 H         1 UNK         0.0600 
    184 H184        2.3744  -12.4556  -46.2902 H         1 UNK         0.3000 
    185 H185       -0.1365  -10.1598  -45.4813 H         1 UNK         0.0600 
    186 H186        0.8550   -8.6478  -47.1996 H         1 UNK         0.0600 
    187 H187        1.2075  -10.0260  -48.2347 H         1 UNK         0.0600 
    188 H188       -0.4638   -9.5871  -47.8783 H         1 UNK         0.0600 
    189 H189        0.1214  -12.1215  -47.5934 H         1 UNK         0.3000 
    190 H190       -1.7950  -21.5351  -45.7358 H         1 UNK         0.3000 
    191 H191       -4.0551  -22.6865  -46.8506 H         1 UNK         0.0600 
    192 H192       -3.5336  -21.8977  -43.9418 H         1 UNK         0.0600 
    193 H193       -5.1238  -22.1419  -44.6539 H         1 UNK         0.0600 
    194 H194       -4.1048  -20.8318  -45.2265 H         1 UNK         0.0600 
    195 H195       -1.7360  -24.3103  -44.7970 H         1 UNK         0.3000 
    196 H196       -3.2363  -26.5840  -44.0189 H         1 UNK         0.0600 
    197 H197       -0.9648  -27.6318  -43.7952 H         1 UNK         0.0600 
    198 H198       -1.0112  -26.0253  -43.0858 H         1 UNK         0.0600 
    199 H199       -0.2530  -26.2718  -44.6581 H         1 UNK         0.0600 
    200 H200       -1.9835  -25.6781  -47.1737 H         1 UNK         0.3000 
    201 H201       -2.7477  -28.3323  -48.3368 H         1 UNK         0.0600 
    202 H202       -0.3705  -27.8391  -48.7329 H         1 UNK         0.0600 
    203 H203       -0.7488  -26.2301  -49.3363 H         1 UNK         0.0600 
    204 H204       -1.2607  -27.6544  -50.2364 H         1 UNK         0.0600 
    205 H205       -2.4957  -24.8558  -49.2761 H         1 UNK         0.3000 
    206 H206       -5.2041  -24.3430  -49.7015 H         1 UNK         0.0600 
    207 H207       -3.6505  -25.0898  -52.2524 H         1 UNK         0.0600 
    208 H208       -5.1436  -25.8302  -51.6846 H         1 UNK         0.0600 
    209 H209       -5.1530  -24.1731  -52.2543 H         1 UNK         0.0600 
    210 H210       -5.4611  -22.1077  -50.2714 H         1 UNK         0.3000 
    211 H211       -3.1127  -20.4438  -50.7869 H         1 UNK         0.0600 
    212 H212       -4.8039  -20.1266  -48.2287 H         1 UNK         0.0600 
    213 H213       -3.4529  -19.1122  -48.7191 H         1 UNK         0.0600 
    214 H214       -3.1693  -20.7701  -48.2495 H         1 UNK         0.0600 
    215 H215       -3.9347  -18.0949  -50.7973 H         1 UNK         0.3000 
    216 H216       -5.1627  -16.4683  -51.6834 H         1 UNK         0.0600 
    217 H217       -7.4825  -16.2591  -50.8757 H         1 UNK         0.0600 
    218 H218       -6.4721  -16.9025  -49.5934 H         1 UNK         0.0600 
    219 H219       -7.5476  -17.9737  -50.4896 H         1 UNK         0.0600 
    220 H220       -4.5443  -18.5533  -53.4752 H         1 UNK         0.3000 
    221 H221       -4.7938  -19.2567  -55.5243 H         1 UNK         0.0600 
    222 H222       -6.8274  -17.0167  -55.9624 H         1 UNK         0.0600 
    223 H223       -5.0760  -16.8218  -56.0335 H         1 UNK         0.0600 
    224 H224       -5.8937  -17.8469  -57.1990 H         1 UNK         0.0600 
    225 H225       -6.7207  -20.3185  -53.3969 H         1 UNK         0.3000 
    226 H226       -9.0800  -21.1855  -54.7568 H         1 UNK         0.0600 
    227 H227       -8.8759  -21.1023  -52.2785 H         1 UNK         0.0600 
    228 H228       -9.3130  -22.7178  -52.8154 H         1 UNK         0.0600 
    229 H229       -7.6611  -22.3785  -52.3150 H         1 UNK         0.0600 
    230 H230       -5.8921  -22.6912  -54.2729 H         1 UNK         0.3000 
    231 H231       -6.0133  -24.2550  -56.6644 H         1 UNK         0.0600 
    232 H232       -7.3992  -25.7949  -55.2673 H         1 UNK         0.0600 
    233 H233       -6.1658  -25.7985  -54.0108 H         1 UNK         0.0600 
    234 H234       -5.8337  -26.5138  -55.5836 H         1 UNK         0.0600 
    235 H235       -4.4051  -22.1919  -55.9001 H         1 UNK         0.3000 
    236 H236       -1.7454  -23.2121  -55.7950 H         1 UNK         0.0600 
    237 H237       -2.7950  -21.7069  -53.3130 H         1 UNK         0.0600 
    238 H238       -2.3124  -23.4000  -53.3313 H         1 UNK         0.0600 
    239 H239       -1.1177  -22.1553  -53.5954 H         1 UNK         0.0600 
    240 H240       -0.4112  -20.9486  -55.1268 H         1 UNK         0.3000 
    241 H241        0.2013  -18.9087  -55.6089 H         1 UNK         0.0600 
    242 H242       -0.3328  -20.8430  -58.0585 H         1 UNK         0.3800 
    243 H243       -0.0777  -19.7429  -59.3884 H         1 UNK         0.3800 
    244 H244       -1.3929  -17.0431  -55.6807 H         1 UNK         0.0800 
    245 H245       -2.7117  -18.1153  -56.0376 H         1 UNK         0.0800 
    246 H246       -1.4158  -15.9957  -53.3009 H         1 UNK         0.0800 
    247 H247       -0.0231  -17.0487  -53.4307 H         1 UNK         0.0800 
@<TRIPOS>BOND
     1    1    2 1    
     2    1  127 1    
     3    1  128 1    
     4    1  129 1    
     5    2    3 2    
     6    2    4 am   BACKBONE|DICT|INTERRES
     7    4    5 1    
     8    4  130 1    
     9    5    6 1    
    10    5   65 1    
    11    5  131 1    
    12    6    7 1    
    13    6  132 1    
    14    6  133 1    
    15    7    8 1    
    16    8    9 1    
    17    8  134 1    
    18    8  135 1    
    19    9   10 ar   
    20    9   14 ar   
    21   10   11 ar   
    22   10  136 1    
    23   11   12 ar   
    24   11  126 1    
    25   12   13 ar   
    26   12  137 1    
    27   13   14 ar   
    28   13   15 1    
    29   14  138 1    
    30   15   16 1    
    31   15  139 1    
    32   15  140 1    
    33   16   17 1    
    34   17   18 1    
    35   17  141 1    
    36   17  142 1    
    37   18   19 1    
    38   18   67 1    
    39   18  143 1    
    40   19   20 am   BACKBONE|DICT|INTERRES
    41   19  144 1    
    42   20   21 2    
    43   20   22 1    
    44   22   23 1    
    45   22   24 1    
    46   22  145 1    
    47   23  146 1    
    48   23  147 1    
    49   23  148 1    
    50   24   25 am   BACKBONE|DICT|INTERRES
    51   24  149 1    
    52   25   26 2    
    53   25   27 1    
    54   27   28 1    
    55   27   29 1    
    56   27  150 1    
    57   28  151 1    
    58   28  152 1    
    59   28  153 1    
    60   29   30 am   BACKBONE|DICT|INTERRES
    61   29  154 1    
    62   30   31 2    
    63   30   32 1    
    64   32   33 1    
    65   32   34 1    
    66   32  155 1    
    67   33  156 1    
    68   33  157 1    
    69   33  158 1    
    70   34   35 am   BACKBONE|DICT|INTERRES
    71   34  159 1    
    72   35   36 2    
    73   35   37 1    
    74   37   38 1    
    75   37   39 1    
    76   37  160 1    
    77   38  161 1    
    78   38  162 1    
    79   38  163 1    
    80   39   40 am   BACKBONE|DICT|INTERRES
    81   39  164 1    
    82   40   41 2    
    83   40   42 1    
    84   42   43 1    
    85   42   44 1    
    86   42  165 1    
    87   43  166 1    
    88   43  167 1    
    89   43  168 1    
    90   44   45 am   BACKBONE|DICT|INTERRES
    91   44  169 1    
    92   45   46 2    
    93   45   47 1    
    94   47   48 1    
    95   47   49 1    
    96   47  170 1    
    97   48  171 1    
    98   48  172 1    
    99   48  173 1    
   100   49   50 am   BACKBONE|DICT|INTERRES
   101   49  174 1    
   102   50   51 2    
   103   50   52 1    
   104   52   53 1    
   105   52   54 1    
   106   52  175 1    
   107   53  176 1    
   108   53  177 1    
   109   53  178 1    
   110   54   55 am   BACKBONE|DICT|INTERRES
   111   54  179 1    
   112   55   56 2    
   113   55   57 1    
   114   57   58 1    
   115   57   59 1    
   116   57  180 1    
   117   58  181 1    
   118   58  182 1    
   119   58  183 1    
   120   59   60 am   BACKBONE|DICT|INTERRES
   121   59  184 1    
   122   60   61 2    
   123   60   62 1    
   124   62   63 1    
   125   62   64 1    
   126   62  185 1    
   127   63  186 1    
   128   63  187 1    
   129   63  188 1    
   130   64   65 am   BACKBONE|DICT|INTERRES
   131   64  189 1    
   132   65   66 2    
   133   67   68 2    
   134   67   69 am   BACKBONE|DICT|INTERRES
   135   69   70 1    
   136   69  190 1    
   137   70   71 1    
   138   70   72 1    
   139   70  191 1    
   140   71  192 1    
   141   71  193 1    
   142   71  194 1    
   143   72   73 2    
   144   72   74 am   BACKBONE|DICT|INTERRES
   145   74   75 1    
   146   74  195 1    
   147   75   76 1    
   148   75   77 1    
   149   75  196 1    
   150   76  197 1    
   151   76  198 1    
   152   76  199 1    
   153   77   78 2    
   154   77   79 am   BACKBONE|DICT|INTERRES
   155   79   80 1    
   156   79  200 1    
   157   80   81 1    
   158   80   82 1    
   159   80  201 1    
   160   81  202 1    
   161   81  203 1    
   162   81  204 1    
   163   82   83 2    
   164   82   84 am   BACKBONE|DICT|INTERRES
   165   84   85 1    
   166   84  205 1    
   167   85   86 1    
   168   85   87 1    
   169   85  206 1    
   170   86  207 1    
   171   86  208 1    
   172   86  209 1    
   173   87   88 2    
   174   87   89 am   BACKBONE|DICT|INTERRES
   175   89   90 1    
   176   89  210 1    
   177   90   91 1    
   178   90   92 1    
   179   90  211 1    
   180   91  212 1    
   181   91  213 1    
   182   91  214 1    
   183   92   93 2    
   184   92   94 am   BACKBONE|DICT|INTERRES
   185   94   95 1    
   186   94  215 1    
   187   95   96 1    
   188   95   97 1    
   189   95  216 1    
   190   96  217 1    
   191   96  218 1    
   192   96  219 1    
   193   97   98 2    
   194   97   99 am   BACKBONE|DICT|INTERRES
   195   99  100 1    
   196   99  220 1    
   197  100  101 1    
   198  100  102 1    
   199  100  221 1    
   200  101  222 1    
   201  101  223 1    
   202  101  224 1    
   203  102  103 2    
   204  102  104 am   BACKBONE|DICT|INTERRES
   205  104  105 1    
   206  104  225 1    
   207  105  106 1    
   208  105  107 1    
   209  105  226 1    
   210  106  227 1    
   211  106  228 1    
   212  106  229 1    
   213  107  108 2    
   214  107  109 am   BACKBONE|DICT|INTERRES
   215  109  110 1    
   216  109  230 1    
   217  110  111 1    
   218  110  112 1    
   219  110  231 1    
   220  111  232 1    
   221  111  233 1    
   222  111  234 1    
   223  112  113 2    
   224  112  114 am   BACKBONE|DICT|INTERRES
   225  114  115 1    
   226  114  235 1    
   227  115  116 1    
   228  115  117 1    
   229  115  236 1    
   230  116  237 1    
   231  116  238 1    
   232  116  239 1    
   233  117  118 2    
   234  117  119 am   BACKBONE|DICT|INTERRES
   235  119  120 1    
   236  119  240 1    
   237  120  121 1    
   238  120  124 1    
   239  120  241 1    
   240  121  122 am   BACKBONE|DICT|INTERRES
   241  121  123 2    
   242  122  242 1    
   243  122  243 1    
   244  124  125 1    
   245  124  244 1    
   246  124  245 1    
   247  125  126 1    
   248  126  246 1    
   249  126  247 1    
@<TRIPOS>SUBSTRUCTURE
     1 UNK         1 GROUP             0       ****    0 ROOT    
