@<TRIPOS>MOLECULE
3R540
247   249    1
SMALL
USER_CHARGES


@<TRIPOS>ATOM
      1 CA         -4.4969  -14.1503  -43.4139 C.3       0 UNK        -0.1800 
      2 C          -3.4902  -13.1685  -43.9954 C.2       0 UNK         0.5000 
      3 O          -3.3252  -12.0686  -43.4683 O.2       0 UNK        -0.5000 
      4 N          -2.7940  -13.5695  -45.0655 N.am      1 UNK        -0.5000 
      5 CA         -1.7998  -12.7815  -45.8118 C.3       1 UNK         0.1400 
      6 C6         -1.6508  -13.2799  -47.2761 C.3       23 UNK        -0.0398 
      7 S7         -3.2309  -13.4274  -48.1843 S.3       23 UNK        -0.2404 
      8 C8         -3.6172  -15.2033  -48.0159 C.3       23 UNK        -0.0205 
      9 C9         -2.7748  -16.0796  -48.9326 C.ar      23 UNK        -0.0193 
     10 C10        -3.2120  -16.3603  -50.2303 C.ar      23 UNK        -0.1150 
     11 C11        -2.4652  -17.1965  -51.0649 C.ar      23 UNK        -0.0193 
     12 C12        -1.2587  -17.7311  -50.6039 C.ar      23 UNK        -0.1150 
     13 C13        -0.8110  -17.4608  -49.3077 C.ar      23 UNK        -0.0193 
     14 C14        -1.5806  -16.6448  -48.4742 C.ar      23 UNK        -0.1150 
     15 C15         0.4893  -18.0688  -48.7951 C.3       23 UNK        -0.0205 
     16 S16         0.4514  -19.8904  -48.7761 S.3       23 UNK        -0.2404 
     17 C17        -1.1181  -20.1949  -47.9041 C.3       23 UNK        -0.0398 
     18 CA         -1.2156  -21.6367  -47.3654 C.3       11 UNK         0.1400 
     19 N          -0.3400  -21.8673  -46.2147 N.am      11 UNK        -0.5000 
     20 C          -0.1414  -23.0564  -45.6298 C.2       10 UNK         0.5000 
     21 O          -0.6436  -24.1076  -46.0259 O.2       10 UNK        -0.5000 
     22 CA          0.7067  -23.0595  -44.3470 C.3       10 UNK         0.1400 
     23 CB          2.2071  -22.9937  -44.6699 C.3       10 UNK        -0.1800 
     24 N           0.3395  -21.9604  -43.4540 N.am      10 UNK        -0.5000 
     25 C          -0.8393  -21.8630  -42.8226 C.2       9 UNK         0.5000 
     26 O          -1.7244  -22.7161  -42.8893 O.2       9 UNK        -0.5000 
     27 CA         -1.0864  -20.5733  -42.0214 C.3       9 UNK         0.1400 
     28 CB         -0.4605  -20.6713  -40.6224 C.3       9 UNK        -0.1800 
     29 N          -0.5702  -19.3905  -42.7119 N.am      9 UNK        -0.5000 
     30 C          -1.1144  -18.8811  -43.8273 C.2       8 UNK         0.5000 
     31 O          -2.1150  -19.3460  -44.3711 O.2       8 UNK        -0.5000 
     32 CA         -0.4016  -17.6804  -44.4775 C.3       8 UNK         0.1400 
     33 CB         -0.9035  -16.3646  -43.8700 C.3       8 UNK        -0.1800 
     34 N           1.0559  -17.7344  -44.3702 N.am      8 UNK        -0.5000 
     35 C           1.8222  -18.7276  -44.8407 C.2       7 UNK         0.5000 
     36 O           1.3792  -19.6829  -45.4759 O.2       7 UNK        -0.5000 
     37 CA          3.3246  -18.6792  -44.5050 C.3       7 UNK         0.1400 
     38 CB          4.1085  -18.0708  -45.6772 C.3       7 UNK        -0.1800 
     39 N           3.6660  -17.9528  -43.2761 N.am      7 UNK        -0.5000 
     40 C           3.1759  -18.1781  -42.0467 C.2       6 UNK         0.5000 
     41 O           2.2906  -19.0012  -41.8097 O.2       6 UNK        -0.5000 
     42 CA          3.7682  -17.3532  -40.8850 C.3       6 UNK         0.1400 
     43 CB          4.4148  -18.2796  -39.8423 C.3       6 UNK        -0.1800 
     44 N           4.7670  -16.3708  -41.3202 N.am      6 UNK        -0.5000 
     45 C           4.4890  -15.1360  -41.7536 C.2       5 UNK         0.5000 
     46 O           3.3481  -14.6772  -41.8478 O.2       5 UNK        -0.5000 
     47 CA          5.6887  -14.2858  -42.1884 C.3       5 UNK         0.1400 
     48 CB          6.0217  -14.5289  -43.6711 C.3       5 UNK        -0.1800 
     49 N           5.3682  -12.8795  -41.9794 N.am      5 UNK        -0.5000 
     50 C           6.2538  -11.9038  -41.7469 C.2       4 UNK         0.5000 
     51 O           7.4711  -12.0903  -41.6936 O.2       4 UNK        -0.5000 
     52 CA          5.6728  -10.4889  -41.5302 C.3       4 UNK         0.1400 
     53 CB          6.7210   -9.3691  -41.7032 C.3       4 UNK        -0.1800 
     54 N           4.4827  -10.2249  -42.3479 N.am      4 UNK        -0.5000 
     55 C           4.3978  -10.1942  -43.6855 C.2       3 UNK         0.5000 
     56 O           5.3540  -10.3718  -44.4423 O.2       3 UNK        -0.5000 
     57 CA          2.9851   -9.9593  -44.2599 C.3       3 UNK         0.1400 
     58 CB          2.9985   -9.6684  -45.7712 C.3       3 UNK        -0.1800 
     59 N           2.1106  -11.1061  -44.0162 N.am      3 UNK        -0.5000 
     60 C           1.5558  -11.4482  -42.8484 C.2       2 UNK         0.5000 
     61 O           1.6970  -10.7915  -41.8142 O.2       2 UNK        -0.5000 
     62 CA          0.6994  -12.7300  -42.8539 C.3       2 UNK         0.1400 
     63 CB          0.1904  -13.1141  -41.4533 C.3       2 UNK        -0.1800 
     64 N          -0.4488  -12.6249  -43.7533 N.am      2 UNK        -0.5000 
     65 C          -0.4297  -12.7495  -45.0859 C.2       1 UNK         0.5000 
     66 O           0.6155  -12.8849  -45.7258 O.2       1 UNK        -0.5000 
     67 C          -2.6834  -21.9891  -47.0633 C.2       11 UNK         0.5000 
     68 O          -3.3288  -22.6079  -47.9087 O.2       11 UNK        -0.5000 
     69 N          -3.1781  -21.6190  -45.8732 N.am      12 UNK        -0.5000 
     70 CA         -4.5241  -21.9495  -45.4035 C.3       12 UNK         0.1400 
     71 CB         -4.8329  -21.1738  -44.1144 C.3       12 UNK        -0.1800 
     72 C          -4.7241  -23.4609  -45.1944 C.2       12 UNK         0.5000 
     73 O          -5.7630  -23.9902  -45.5890 O.2       12 UNK        -0.5000 
     74 N          -3.7183  -24.1310  -44.6134 N.am      13 UNK        -0.5000 
     75 CA         -3.6984  -25.5804  -44.4059 C.3       13 UNK         0.1400 
     76 CB         -2.5184  -25.9528  -43.4953 C.3       13 UNK        -0.1800 
     77 C          -3.6430  -26.3720  -45.7264 C.2       13 UNK         0.5000 
     78 O          -4.3452  -27.3743  -45.8645 O.2       13 UNK        -0.5000 
     79 N          -2.8278  -25.8971  -46.6776 N.am      14 UNK        -0.5000 
     80 CA         -2.6905  -26.4686  -48.0188 C.3       14 UNK         0.1400 
     81 CB         -1.3890  -25.9445  -48.6466 C.3       14 UNK        -0.1800 
     82 C          -3.8803  -26.1563  -48.9475 C.2       14 UNK         0.5000 
     83 O          -4.0604  -26.8581  -49.9427 O.2       14 UNK        -0.5000 
     84 N          -4.6355  -25.0946  -48.6266 N.am      15 UNK        -0.5000 
     85 CA         -5.6730  -24.4516  -49.4397 C.3       15 UNK         0.1400 
     86 CB         -6.8789  -25.3885  -49.6572 C.3       15 UNK        -0.1800 
     87 C          -5.0929  -23.8929  -50.7557 C.2       15 UNK         0.5000 
     88 O          -5.7013  -24.0416  -51.8167 O.2       15 UNK        -0.5000 
     89 N          -3.9069  -23.2716  -50.6605 N.am      16 UNK        -0.5000 
     90 CA         -3.0452  -22.8567  -51.7746 C.3       16 UNK         0.1400 
     91 CB         -1.7710  -22.2100  -51.2141 C.3       16 UNK        -0.1800 
     92 C          -3.7076  -21.9188  -52.7988 C.2       16 UNK         0.5000 
     93 O          -3.3638  -21.9737  -53.9803 O.2       16 UNK        -0.5000 
     94 N          -4.6743  -21.1122  -52.3432 N.am      17 UNK        -0.5000 
     95 CA         -5.4970  -20.2313  -53.1737 C.3       17 UNK         0.1400 
     96 CB         -6.3639  -19.3547  -52.2576 C.3       17 UNK        -0.1800 
     97 C          -6.3769  -20.9781  -54.1965 C.2       17 UNK         0.5000 
     98 O          -6.7257  -20.3918  -55.2209 O.2       17 UNK        -0.5000 
     99 N          -6.7044  -22.2455  -53.9127 N.am      18 UNK        -0.5000 
    100 CA        -7.4620  -23.1321  -54.7920 C.3       18 UNK         0.1400 
    101 CB        -8.6453  -23.7255  -54.0107 C.3       18 UNK        -0.1800 
    102 C         -6.5646  -24.2507  -55.3438 C.2       18 UNK         0.5000 
    103 O         -6.5989  -24.5161  -56.5450 O.2       18 UNK        -0.5000 
    104 N         -5.7729  -24.8812  -54.4646 N.am      19 UNK        -0.5000 
    105 CA        -4.9514  -26.0560  -54.7629 C.3       19 UNK         0.1400 
    106 CB        -4.4496  -26.6667  -53.4453 C.3       19 UNK        -0.1800 
    107 C         -3.7695  -25.7673  -55.7040 C.2       19 UNK         0.5000 
    108 O         -3.4332  -26.6198  -56.5269 O.2       19 UNK        -0.5000 
    109 N         -3.1707  -24.5777  -55.5712 N.am      20 UNK        -0.5000 
    110 CA        -2.0565  -24.1037  -56.3953 C.3       20 UNK         0.1400 
    111 CB        -0.8469  -23.8401  -55.4806 C.3       20 UNK        -0.1800 
    112 C         -2.4363  -22.8397  -57.1889 C.2       20 UNK         0.5000 
    113 O         -1.5665  -22.2503  -57.8320 O.2       20 UNK        -0.5000 
    114 N         -3.7077  -22.4149  -57.0986 N.am      21 UNK        -0.5000 
    115 CA        -4.2860  -21.1926  -57.6740 C.3       21 UNK         0.1400 
    116 CB        -4.3715  -21.3157  -59.2091 C.3       21 UNK        -0.1800 
    117 C         -3.5711  -19.8962  -57.2225 C.2       21 UNK         0.5000 
    118 O         -3.5834  -18.9024  -57.9508 O.2       21 UNK        -0.5000 
    119 N         -2.9346  -19.9400  -56.0429 N.am      22 UNK        -0.5000 
    120 CA        -2.0111  -18.9218  -55.5186 C.3       22 UNK         0.1400 
    121 C         -0.6794  -18.7708  -56.3244 C.2       22 UNK         0.5000 
    122 N         -0.2970  -19.7224  -57.1686 N.am      22 UNK        -0.7600 
    123 O          0.0417  -17.7892  -56.1704 O.2       22 UNK        -0.5000 
    124 C124       -2.7243  -17.5687  -55.2264 C.3       23 UNK        -0.0398 
    125 S125       -2.0501  -16.7177  -53.7596 S.3       23 UNK        -0.2404 
    126 C126       -2.9780  -17.5625  -52.4466 C.3       23 UNK        -0.0205 
    127 H127       -4.2258  -14.4013  -42.3884 H         1 UNK         0.0600 
    128 H128       -5.4922  -13.7061  -43.4062 H         1 UNK         0.0600 
    129 H129       -4.5417  -15.0749  -43.9900 H         1 UNK         0.0600 
    130 H130       -2.9671  -14.4918  -45.4329 H         1 UNK         0.3000 
    131 H131       -2.1518  -11.7487  -45.8536 H         1 UNK         0.0600 
    132 H132       -1.1231  -14.2309  -47.3046 H         1 UNK         0.0800 
    133 H133       -1.0251  -12.5847  -47.8387 H         1 UNK         0.0800 
    134 H134       -4.6732  -15.3480  -48.2490 H         1 UNK         0.0800 
    135 H135       -3.4983  -15.5196  -46.9797 H         1 UNK         0.0800 
    136 H136       -4.1442  -15.9413  -50.5830 H         1 UNK         0.1150 
    137 H137       -0.6776  -18.3772  -51.2473 H         1 UNK         0.1150 
    138 H138       -1.2501  -16.4535  -47.4645 H         1 UNK         0.1150 
    139 H139        1.3133  -17.7378  -49.4283 H         1 UNK         0.0800 
    140 H140        0.7147  -17.7147  -47.7880 H         1 UNK         0.0800 
    141 H141       -1.2311  -19.4756  -47.0921 H         1 UNK         0.0800 
    142 H142       -1.9231  -19.9858  -48.6115 H         1 UNK         0.0800 
    143 H143       -0.8910  -22.3180  -48.1545 H         1 UNK         0.0600 
    144 H144        0.1663  -21.0583  -45.8619 H         1 UNK         0.3000 
    145 H145        0.5150  -23.9982  -43.8229 H         1 UNK         0.0600 
    146 H146        2.4707  -22.0815  -45.2050 H         1 UNK         0.0600 
    147 H147        2.8081  -23.0352  -43.7615 H         1 UNK         0.0600 
    148 H148        2.5053  -23.8358  -45.2956 H         1 UNK         0.0600 
    149 H149        0.9924  -21.1940  -43.3779 H         1 UNK         0.3000 
    150 H150       -2.1655  -20.4554  -41.9012 H         1 UNK         0.0600 
    151 H151       -0.6574  -19.7723  -40.0381 H         1 UNK         0.0600 
    152 H152        0.6201  -20.8097  -40.6706 H         1 UNK         0.0600 
    153 H153       -0.8741  -21.5160  -40.0701 H         1 UNK         0.0600 
    154 H154        0.2976  -19.0009  -42.3593 H         1 UNK         0.3000 
    155 H155       -0.6533  -17.6863  -45.5386 H         1 UNK         0.0600 
    156 H156       -1.9872  -16.2799  -43.9569 H         1 UNK         0.0600 
    157 H157       -0.4647  -15.5119  -44.3838 H         1 UNK         0.0600 
    158 H158       -0.6505  -16.2855  -42.8120 H         1 UNK         0.0600 
    159 H159        1.5034  -16.9962  -43.8475 H         1 UNK         0.3000 
    160 H160        3.6541  -19.7115  -44.3717 H         1 UNK         0.0600 
    161 H161        3.8536  -17.0211  -45.8291 H         1 UNK         0.0600 
    162 H162        3.8938  -18.5986  -46.6078 H         1 UNK         0.0600 
    163 H163        5.1838  -18.1352  -45.5102 H         1 UNK         0.0600 
    164 H164        4.3855  -17.2517  -43.3627 H         1 UNK         0.3000 
    165 H165        2.9372  -16.8322  -40.4047 H         1 UNK         0.0600 
    166 H166        5.2457  -18.8451  -40.2658 H         1 UNK         0.0600 
    167 H167        4.7931  -17.7121  -38.9918 H         1 UNK         0.0600 
    168 H168        3.6927  -18.9989  -39.4534 H         1 UNK         0.0600 
    169 H169        5.7310  -16.6715  -41.2815 H         1 UNK         0.3000 
    170 H170        6.5473  -14.5584  -41.5708 H         1 UNK         0.0600 
    171 H171        6.2662  -15.5758  -43.8544 H         1 UNK         0.0600 
    172 H172        5.1836  -14.2664  -44.3183 H         1 UNK         0.0600 
    173 H173        6.8817  -13.9368  -43.9848 H         1 UNK         0.0600 
    174 H174        4.3785  -12.6712  -41.9678 H         1 UNK         0.3000 
    175 H175        5.3368  -10.4614  -40.4928 H         1 UNK         0.0600 
    176 H176        6.2800   -8.3867  -41.5344 H         1 UNK         0.0600 
    177 H177        7.5368   -9.4836  -40.9886 H         1 UNK         0.0600 
    178 H178        7.1596   -9.3735  -42.7014 H         1 UNK         0.0600 
    179 H179        3.6089  -10.1401  -41.8370 H         1 UNK         0.3000 
    180 H180        2.5661   -9.0851  -43.7571 H         1 UNK         0.0600 
    181 H181        1.9974   -9.4380  -46.1362 H         1 UNK         0.0600 
    182 H182        3.6322   -8.8104  -45.9990 H         1 UNK         0.0600 
    183 H183        3.3746  -10.5181  -46.3427 H         1 UNK         0.0600 
    184 H184        1.9111  -11.7019  -44.8140 H         1 UNK         0.3000 
    185 H185        1.3381  -13.5423  -43.2062 H         1 UNK         0.0600 
    186 H186       -0.3566  -14.0566  -41.4782 H         1 UNK         0.0600 
    187 H187        1.0211  -13.2422  -40.7580 H         1 UNK         0.0600 
    188 H188       -0.4723  -12.3520  -41.0417 H         1 UNK         0.0600 
    189 H189       -1.3504  -12.4565  -43.3202 H         1 UNK         0.3000 
    190 H190       -2.6105  -21.0493  -45.2536 H         1 UNK         0.3000 
    191 H191       -5.2326  -21.6254  -46.1688 H         1 UNK         0.0600 
    192 H192       -5.8349  -21.4036  -43.7500 H         1 UNK         0.0600 
    193 H193       -4.7881  -20.0977  -44.2826 H         1 UNK         0.0600 
    194 H194       -4.1295  -21.4174  -43.3180 H         1 UNK         0.0600 
    195 H195       -2.9154  -23.6120  -44.2724 H         1 UNK         0.3000 
    196 H196       -4.6213  -25.8572  -43.8922 H         1 UNK         0.0600 
    197 H197       -2.4920  -27.0271  -43.3090 H         1 UNK         0.0600 
    198 H198       -2.5961  -25.4564  -42.5279 H         1 UNK         0.0600 
    199 H199       -1.5624  -25.6720  -43.9380 H         1 UNK         0.0600 
    200 H200       -2.2258  -25.1077  -46.4570 H         1 UNK         0.3000 
    201 H201       -2.6155  -27.5543  -47.9290 H         1 UNK         0.0600 
    202 H202       -0.5233  -26.2111  -48.0401 H         1 UNK         0.0600 
    203 H203       -1.4034  -24.8587  -48.7496 H         1 UNK         0.0600 
    204 H204       -1.2331  -26.3671  -49.6400 H         1 UNK         0.0600 
    205 H205       -4.3552  -24.5687  -47.8085 H         1 UNK         0.3000 
    206 H206       -6.0206  -23.5909  -48.8667 H         1 UNK         0.0600 
    207 H207       -7.2556  -25.7710  -48.7087 H         1 UNK         0.0600 
    208 H208       -7.6991  -24.8594  -50.1437 H         1 UNK         0.0600 
    209 H209       -6.6249  -26.2415  -50.2872 H         1 UNK         0.0600 
    210 H210       -3.5316  -23.1409  -49.7247 H         1 UNK         0.3000 
    211 H211       -2.7570  -23.7623  -52.3113 H         1 UNK         0.0600 
    212 H212       -1.0898  -21.9242  -52.0169 H         1 UNK         0.0600 
    213 H213       -1.2318  -22.8981  -50.5632 H         1 UNK         0.0600 
    214 H214       -1.9974  -21.3102  -50.6419 H         1 UNK         0.0600 
    215 H215       -4.8978  -21.1492  -51.3596 H         1 UNK         0.3000 
    216 H216       -4.8272  -19.5827  -53.7399 H         1 UNK         0.0600 
    217 H217       -6.9440  -18.6369  -52.8390 H         1 UNK         0.0600 
    218 H218       -5.7536  -18.7863  -51.5558 H         1 UNK         0.0600 
    219 H219       -7.0678  -19.9540  -51.6787 H         1 UNK         0.0600 
    220 H220       -6.3517  -22.6608  -53.0565 H         1 UNK         0.3000 
    221 H221       -7.8651  -22.5807  -55.6440 H         1 UNK         0.0600 
    222 H222       -8.3141  -24.2840  -53.1340 H         1 UNK         0.0600 
    223 H223       -9.3214  -22.9413  -53.6697 H         1 UNK         0.0600 
    224 H224       -9.2251  -24.4060  -54.6356 H         1 UNK         0.0600 
    225 H225       -5.8026  -24.5986  -53.4863 H         1 UNK         0.3000 
    226 H226       -5.5910  -26.7923  -55.2542 H         1 UNK         0.0600 
    227 H227       -3.8753  -27.5757  -53.6277 H         1 UNK         0.0600 
    228 H228       -3.8059  -25.9767  -52.8989 H         1 UNK         0.0600 
    229 H229       -5.2798  -26.9331  -52.7906 H         1 UNK         0.0600 
    230 H230       -3.5058  -23.9282  -54.8701 H         1 UNK         0.3000 
    231 H231       -1.7684  -24.8569  -57.1309 H         1 UNK         0.0600 
    232 H232        0.0279  -23.5446  -56.0610 H         1 UNK         0.0600 
    233 H233       -0.5751  -24.7351  -54.9209 H         1 UNK         0.0600 
    234 H234       -1.0463  -23.0444  -54.7625 H         1 UNK         0.0600 
    235 H235       -4.3425  -22.9808  -56.5552 H         1 UNK         0.3000 
    236 H236       -5.3056  -21.1286  -57.2955 H         1 UNK         0.0600 
    237 H237       -3.3833  -21.3217  -59.6701 H         1 UNK         0.0600 
    238 H238       -4.8843  -22.2317  -59.5026 H         1 UNK         0.0600 
    239 H239       -4.9285  -20.4827  -59.6396 H         1 UNK         0.0600 
    240 H240       -3.0019  -20.7910  -55.4921 H         1 UNK         0.3000 
    241 H241       -1.6926  -19.3423  -54.5645 H         1 UNK         0.0600 
    242 H242        0.5683  -19.6094  -57.6718 H         1 UNK         0.3800 
    243 H243       -0.8583  -20.5542  -57.3298 H         1 UNK         0.3800 
    244 H244       -2.6612  -16.9013  -56.0875 H         1 UNK         0.0800 
    245 H245       -3.7911  -17.7233  -55.0594 H         1 UNK         0.0800 
    246 H246       -4.0359  -17.3148  -52.5429 H         1 UNK         0.0800 
    247 H247       -2.8961  -18.6424  -52.5745 H         1 UNK         0.0800 
@<TRIPOS>BOND
     1    1    2 1    
     2    1  127 1    
     3    1  128 1    
     4    1  129 1    
     5    2    3 2    
     6    2    4 am   BACKBONE|DICT|INTERRES
     7    4    5 1    
     8    4  130 1    
     9    5    6 1    
    10    5   65 1    
    11    5  131 1    
    12    6    7 1    
    13    6  132 1    
    14    6  133 1    
    15    7    8 1    
    16    8    9 1    
    17    8  134 1    
    18    8  135 1    
    19    9   10 ar   
    20    9   14 ar   
    21   10   11 ar   
    22   10  136 1    
    23   11   12 ar   
    24   11  126 1    
    25   12   13 ar   
    26   12  137 1    
    27   13   14 ar   
    28   13   15 1    
    29   14  138 1    
    30   15   16 1    
    31   15  139 1    
    32   15  140 1    
    33   16   17 1    
    34   17   18 1    
    35   17  141 1    
    36   17  142 1    
    37   18   19 1    
    38   18   67 1    
    39   18  143 1    
    40   19   20 am   BACKBONE|DICT|INTERRES
    41   19  144 1    
    42   20   21 2    
    43   20   22 1    
    44   22   23 1    
    45   22   24 1    
    46   22  145 1    
    47   23  146 1    
    48   23  147 1    
    49   23  148 1    
    50   24   25 am   BACKBONE|DICT|INTERRES
    51   24  149 1    
    52   25   26 2    
    53   25   27 1    
    54   27   28 1    
    55   27   29 1    
    56   27  150 1    
    57   28  151 1    
    58   28  152 1    
    59   28  153 1    
    60   29   30 am   BACKBONE|DICT|INTERRES
    61   29  154 1    
    62   30   31 2    
    63   30   32 1    
    64   32   33 1    
    65   32   34 1    
    66   32  155 1    
    67   33  156 1    
    68   33  157 1    
    69   33  158 1    
    70   34   35 am   BACKBONE|DICT|INTERRES
    71   34  159 1    
    72   35   36 2    
    73   35   37 1    
    74   37   38 1    
    75   37   39 1    
    76   37  160 1    
    77   38  161 1    
    78   38  162 1    
    79   38  163 1    
    80   39   40 am   BACKBONE|DICT|INTERRES
    81   39  164 1    
    82   40   41 2    
    83   40   42 1    
    84   42   43 1    
    85   42   44 1    
    86   42  165 1    
    87   43  166 1    
    88   43  167 1    
    89   43  168 1    
    90   44   45 am   BACKBONE|DICT|INTERRES
    91   44  169 1    
    92   45   46 2    
    93   45   47 1    
    94   47   48 1    
    95   47   49 1    
    96   47  170 1    
    97   48  171 1    
    98   48  172 1    
    99   48  173 1    
   100   49   50 am   BACKBONE|DICT|INTERRES
   101   49  174 1    
   102   50   51 2    
   103   50   52 1    
   104   52   53 1    
   105   52   54 1    
   106   52  175 1    
   107   53  176 1    
   108   53  177 1    
   109   53  178 1    
   110   54   55 am   BACKBONE|DICT|INTERRES
   111   54  179 1    
   112   55   56 2    
   113   55   57 1    
   114   57   58 1    
   115   57   59 1    
   116   57  180 1    
   117   58  181 1    
   118   58  182 1    
   119   58  183 1    
   120   59   60 am   BACKBONE|DICT|INTERRES
   121   59  184 1    
   122   60   61 2    
   123   60   62 1    
   124   62   63 1    
   125   62   64 1    
   126   62  185 1    
   127   63  186 1    
   128   63  187 1    
   129   63  188 1    
   130   64   65 am   BACKBONE|DICT|INTERRES
   131   64  189 1    
   132   65   66 2    
   133   67   68 2    
   134   67   69 am   BACKBONE|DICT|INTERRES
   135   69   70 1    
   136   69  190 1    
   137   70   71 1    
   138   70   72 1    
   139   70  191 1    
   140   71  192 1    
   141   71  193 1    
   142   71  194 1    
   143   72   73 2    
   144   72   74 am   BACKBONE|DICT|INTERRES
   145   74   75 1    
   146   74  195 1    
   147   75   76 1    
   148   75   77 1    
   149   75  196 1    
   150   76  197 1    
   151   76  198 1    
   152   76  199 1    
   153   77   78 2    
   154   77   79 am   BACKBONE|DICT|INTERRES
   155   79   80 1    
   156   79  200 1    
   157   80   81 1    
   158   80   82 1    
   159   80  201 1    
   160   81  202 1    
   161   81  203 1    
   162   81  204 1    
   163   82   83 2    
   164   82   84 am   BACKBONE|DICT|INTERRES
   165   84   85 1    
   166   84  205 1    
   167   85   86 1    
   168   85   87 1    
   169   85  206 1    
   170   86  207 1    
   171   86  208 1    
   172   86  209 1    
   173   87   88 2    
   174   87   89 am   BACKBONE|DICT|INTERRES
   175   89   90 1    
   176   89  210 1    
   177   90   91 1    
   178   90   92 1    
   179   90  211 1    
   180   91  212 1    
   181   91  213 1    
   182   91  214 1    
   183   92   93 2    
   184   92   94 am   BACKBONE|DICT|INTERRES
   185   94   95 1    
   186   94  215 1    
   187   95   96 1    
   188   95   97 1    
   189   95  216 1    
   190   96  217 1    
   191   96  218 1    
   192   96  219 1    
   193   97   98 2    
   194   97   99 am   BACKBONE|DICT|INTERRES
   195   99  100 1    
   196   99  220 1    
   197  100  101 1    
   198  100  102 1    
   199  100  221 1    
   200  101  222 1    
   201  101  223 1    
   202  101  224 1    
   203  102  103 2    
   204  102  104 am   BACKBONE|DICT|INTERRES
   205  104  105 1    
   206  104  225 1    
   207  105  106 1    
   208  105  107 1    
   209  105  226 1    
   210  106  227 1    
   211  106  228 1    
   212  106  229 1    
   213  107  108 2    
   214  107  109 am   BACKBONE|DICT|INTERRES
   215  109  110 1    
   216  109  230 1    
   217  110  111 1    
   218  110  112 1    
   219  110  231 1    
   220  111  232 1    
   221  111  233 1    
   222  111  234 1    
   223  112  113 2    
   224  112  114 am   BACKBONE|DICT|INTERRES
   225  114  115 1    
   226  114  235 1    
   227  115  116 1    
   228  115  117 1    
   229  115  236 1    
   230  116  237 1    
   231  116  238 1    
   232  116  239 1    
   233  117  118 2    
   234  117  119 am   BACKBONE|DICT|INTERRES
   235  119  120 1    
   236  119  240 1    
   237  120  121 1    
   238  120  124 1    
   239  120  241 1    
   240  121  122 am   BACKBONE|DICT|INTERRES
   241  121  123 2    
   242  122  242 1    
   243  122  243 1    
   244  124  125 1    
   245  124  244 1    
   246  124  245 1    
   247  125  126 1    
   248  126  246 1    
   249  126  247 1    
@<TRIPOS>SUBSTRUCTURE
     1 UNK         1 GROUP             0       ****    0 ROOT    
