@<TRIPOS>MOLECULE
3R540
247   249    1
SMALL
USER_CHARGES


@<TRIPOS>ATOM
      1 CA         -2.3250  -12.1817  -51.2675 C.3       0 UNK        -0.1800 
      2 C          -1.4270  -12.3830  -50.0567 C.2       0 UNK         0.5000 
      3 O          -1.7094  -11.8478  -48.9842 O.2       0 UNK        -0.5000 
      4 N          -0.3409  -13.1492  -50.2243 N.am      1 UNK        -0.5000 
      5 CA          0.6733  -13.3926  -49.1912 C.3       1 UNK         0.1400 
      6 C6          1.9942  -13.9707  -49.7649 C.3       23 UNK        -0.0398 
      7 S7          1.7936  -15.5045  -50.7363 S.3       23 UNK        -0.2404 
      8 C8          2.1576  -16.7822  -49.4813 C.3       23 UNK        -0.0205 
      9 C9          1.5274  -18.1303  -49.8102 C.ar      23 UNK        -0.0193 
     10 C10         0.2018  -18.2040  -50.2470 C.ar      23 UNK        -0.1150 
     11 C11        -0.3924  -19.4245  -50.5698 C.ar      23 UNK        -0.0193 
     12 C12         0.3602  -20.5957  -50.4075 C.ar      23 UNK        -0.1150 
     13 C13         1.6735  -20.5522  -49.9226 C.ar      23 UNK        -0.0193 
     14 C14         2.2577  -19.3107  -49.6478 C.ar      23 UNK        -0.1150 
     15 C15         2.4481  -21.8583  -49.7462 C.3       23 UNK        -0.0205 
     16 S16         3.5117  -21.9714  -48.2574 S.3       23 UNK        -0.2404 
     17 C17         2.4335  -21.4653  -46.8723 C.3       23 UNK        -0.0398 
     18 CA          1.5192  -22.5870  -46.3106 C.3       11 UNK         0.1400 
     19 N           1.1629  -22.3626  -44.9032 N.am      11 UNK        -0.5000 
     20 C           0.3922  -23.1710  -44.1569 C.2       10 UNK         0.5000 
     21 O          -0.0170  -24.2696  -44.5332 O.2       10 UNK        -0.5000 
     22 CA         -0.0513  -22.6365  -42.7820 C.3       10 UNK         0.1400 
     23 CB          1.0361  -22.8679  -41.7226 C.3       10 UNK        -0.1800 
     24 N          -0.4157  -21.2185  -42.8213 N.am      10 UNK        -0.5000 
     25 C          -1.4494  -20.7162  -43.5135 C.2       9 UNK         0.5000 
     26 O          -2.2510  -21.4104  -44.1374 O.2       9 UNK        -0.5000 
     27 CA         -1.5780  -19.1813  -43.5646 C.3       9 UNK         0.1400 
     28 CB         -2.2780  -18.6396  -42.3102 C.3       9 UNK        -0.1800 
     29 N          -0.2811  -18.5259  -43.7323 N.am      9 UNK        -0.5000 
     30 C           0.4846  -18.6464  -44.8252 C.2       8 UNK         0.5000 
     31 O           0.1396  -19.2622  -45.8323 O.2       8 UNK        -0.5000 
     32 CA          1.8953  -18.0360  -44.7604 C.3       8 UNK         0.1400 
     33 CB          1.8833  -16.5560  -45.1599 C.3       8 UNK        -0.1800 
     34 N           2.4899  -18.1832  -43.4331 N.am      8 UNK        -0.5000 
     35 C           2.9306  -19.3460  -42.9335 C.2       7 UNK         0.5000 
     36 O           2.9188  -20.4039  -43.5616 O.2       7 UNK        -0.5000 
     37 CA          3.4260  -19.3309  -41.4753 C.3       7 UNK         0.1400 
     38 CB          4.8993  -18.9025  -41.4097 C.3       7 UNK        -0.1800 
     39 N           2.6268  -18.4494  -40.6228 N.am      7 UNK        -0.5000 
     40 C           1.3403  -18.6603  -40.3092 C.2       6 UNK         0.5000 
     41 O           0.7124  -19.6606  -40.6524 O.2       6 UNK        -0.5000 
     42 CA          0.6219  -17.5409  -39.5305 C.3       6 UNK         0.1400 
     43 CB          0.7600  -17.7625  -38.0172 C.3       6 UNK        -0.1800 
     44 N           1.1101  -16.2014  -39.8734 N.am      6 UNK        -0.5000 
     45 C           1.0090  -15.6449  -41.0875 C.2       5 UNK         0.5000 
     46 O           0.4584  -16.1895  -42.0470 O.2       5 UNK        -0.5000 
     47 CA          1.7105  -14.2956  -41.2741 C.3       5 UNK         0.1400 
     48 CB          3.2323  -14.5057  -41.4120 C.3       5 UNK        -0.1800 
     49 N           1.1913  -13.6289  -42.4651 N.am      5 UNK        -0.5000 
     50 C           1.3477  -12.3288  -42.7401 C.2       4 UNK         0.5000 
     51 O           1.9145  -11.5379  -41.9840 O.2       4 UNK        -0.5000 
     52 CA          0.8026  -11.8113  -44.0839 C.3       4 UNK         0.1400 
     53 CB          1.9238  -11.7894  -45.1343 C.3       4 UNK        -0.1800 
     54 N          -0.3428  -12.5626  -44.6062 N.am      4 UNK        -0.5000 
     55 C          -1.5810  -12.4898  -44.0928 C.2       3 UNK         0.5000 
     56 O          -1.8422  -11.8790  -43.0554 O.2       3 UNK        -0.5000 
     57 CA         -2.7373  -13.1567  -44.8675 C.3       3 UNK         0.1400 
     58 CB         -3.7047  -12.0913  -45.4091 C.3       3 UNK        -0.1800 
     59 N          -2.2920  -13.9761  -45.9923 N.am      3 UNK        -0.5000 
     60 C          -1.9391  -15.2643  -45.9058 C.2       2 UNK         0.5000 
     61 O          -1.9689  -15.9090  -44.8593 O.2       2 UNK        -0.5000 
     62 CA         -1.4713  -15.9473  -47.2078 C.3       2 UNK         0.1400 
     63 CB         -2.6446  -16.7045  -47.8416 C.3       2 UNK        -0.1800 
     64 N          -0.8929  -15.0397  -48.2077 N.am      2 UNK        -0.5000 
     65 C           0.1567  -14.2283  -48.0024 C.2       1 UNK         0.5000 
     66 O           0.7149  -14.1098  -46.9138 O.2       1 UNK        -0.5000 
     67 C           0.2544  -22.7368  -47.1749 C.2       11 UNK         0.5000 
     68 O           0.1185  -23.7252  -47.8956 O.2       11 UNK        -0.5000 
     69 N          -0.6621  -21.7685  -47.0478 N.am      12 UNK        -0.5000 
     70 CA         -1.9118  -21.7154  -47.7943 C.3       12 UNK         0.1400 
     71 CB         -2.5967  -20.3624  -47.5634 C.3       12 UNK        -0.1800 
     72 C          -2.8582  -22.8882  -47.5040 C.2       12 UNK         0.5000 
     73 O          -3.4285  -23.4479  -48.4402 O.2       12 UNK        -0.5000 
     74 N          -2.9708  -23.2675  -46.2248 N.am      13 UNK        -0.5000 
     75 CA         -3.7400  -24.4239  -45.7674 C.3       13 UNK         0.1400 
     76 CB         -3.7773  -24.4326  -44.2318 C.3       13 UNK        -0.1800 
     77 C          -3.1970  -25.7617  -46.3053 C.2       13 UNK         0.5000 
     78 O          -3.9884  -26.6522  -46.6179 O.2       13 UNK        -0.5000 
     79 N          -1.8662  -25.8777  -46.4074 N.am      14 UNK        -0.5000 
     80 CA         -1.1834  -27.0517  -46.9440 C.3       14 UNK         0.1400 
     81 CB          0.2805  -27.0504  -46.4752 C.3       14 UNK        -0.1800 
     82 C          -1.2685  -27.1344  -48.4788 C.2       14 UNK         0.5000 
     83 O          -1.5835  -28.2004  -49.0097 O.2       14 UNK        -0.5000 
     84 N          -0.9584  -26.0248  -49.1623 N.am      15 UNK        -0.5000 
     85 CA         -0.8525  -25.9602  -50.6194 C.3       15 UNK         0.1400 
     86 CB         -0.0194  -24.7332  -51.0172 C.3       15 UNK        -0.1800 
     87 C          -2.2137  -25.9406  -51.3326 C.2       15 UNK         0.5000 
     88 O          -2.4071  -26.7084  -52.2771 O.2       15 UNK        -0.5000 
     89 N          -3.1162  -25.0583  -50.8784 N.am      16 UNK        -0.5000 
     90 CA         -4.4127  -24.7377  -51.4834 C.3       16 UNK         0.1400 
     91 CB         -5.4037  -25.9025  -51.2638 C.3       16 UNK        -0.1800 
     92 C          -4.2917  -24.2786  -52.9596 C.2       16 UNK         0.5000 
     93 O          -3.2972  -23.6474  -53.3244 O.2       16 UNK        -0.5000 
     94 N          -5.3100  -24.5849  -53.7758 N.am      17 UNK        -0.5000 
     95 CA         -5.4456  -24.2327  -55.1937 C.3       17 UNK         0.1400 
     96 CB         -4.3221  -24.8812  -56.0357 C.3       17 UNK        -0.1800 
     97 C          -5.6017  -22.7123  -55.4308 C.2       17 UNK         0.5000 
     98 O          -6.0384  -21.9875  -54.5349 O.2       17 UNK        -0.5000 
     99 N          -5.2942  -22.2636  -56.6542 N.am      18 UNK        -0.5000 
    100 CA        -5.5443  -20.9100  -57.1603 C.3       18 UNK         0.1400 
    101 CB        -5.8454  -21.0109  -58.6667 C.3       18 UNK        -0.1800 
    102 C         -4.4052  -19.9054  -56.8789 C.2       18 UNK         0.5000 
    103 O         -4.3713  -18.8435  -57.5043 O.2       18 UNK        -0.5000 
    104 N         -3.4832  -20.2455  -55.9688 N.am      19 UNK        -0.5000 
    105 CA        -2.3840  -19.3832  -55.5269 C.3       19 UNK         0.1400 
    106 CB        -1.3824  -20.2372  -54.7326 C.3       19 UNK        -0.1800 
    107 C         -2.8642  -18.1512  -54.7241 C.2       19 UNK         0.5000 
    108 O         -4.0272  -18.0893  -54.3169 O.2       19 UNK        -0.5000 
    109 N         -1.9492  -17.1922  -54.5224 N.am      20 UNK        -0.5000 
    110 CA        -2.1501  -15.8758  -53.9044 C.3       20 UNK         0.1400 
    111 CB        -0.7856  -15.1707  -53.8145 C.3       20 UNK        -0.1800 
    112 C         -2.8529  -15.9096  -52.5300 C.2       20 UNK         0.5000 
    113 O         -2.1942  -16.0820  -51.5045 O.2       20 UNK        -0.5000 
    114 N         -4.1814  -15.7354  -52.5488 N.am      21 UNK        -0.5000 
    115 CA        -5.1018  -15.7871  -51.4073 C.3       21 UNK         0.1400 
    116 CB        -4.8177  -14.6515  -50.4007 C.3       21 UNK        -0.1800 
    117 C         -5.2161  -17.1833  -50.7535 C.2       21 UNK         0.5000 
    118 O         -5.5836  -17.2818  -49.5821 O.2       21 UNK        -0.5000 
    119 N         -4.9496  -18.2425  -51.5308 N.am      22 UNK        -0.5000 
    120 CA        -5.1733  -19.6443  -51.1345 C.3       22 UNK         0.1400 
    121 C         -6.6697  -20.0812  -51.1791 C.2       22 UNK         0.5000 
    122 N         -7.5768  -19.3159  -51.7754 N.am      22 UNK        -0.7600 
    123 O         -7.0169  -21.1318  -50.6469 O.2       22 UNK        -0.5000 
    124 C124       -4.2835  -20.6163  -51.9566 C.3       23 UNK        -0.0398 
    125 S125       -2.6823  -21.0102  -51.1817 S.3       23 UNK        -0.2404 
    126 C126       -1.8267  -19.4012  -51.1116 C.3       23 UNK        -0.0205 
    127 H127       -1.8930  -11.4383  -51.9372 H         1 UNK         0.0600 
    128 H128       -3.3098  -11.8301  -50.9600 H         1 UNK         0.0600 
    129 H129       -2.4550  -13.1109  -51.8188 H         1 UNK         0.0600 
    130 H130       -0.1700  -13.5958  -51.1143 H         1 UNK         0.3000 
    131 H131        0.9242  -12.4163  -48.7700 H         1 UNK         0.0600 
    132 H132        2.7272  -14.1306  -48.9716 H         1 UNK         0.0800 
    133 H133        2.4459  -13.2293  -50.4250 H         1 UNK         0.0800 
    134 H134        1.7835  -16.4714  -48.5083 H         1 UNK         0.0800 
    135 H135        3.2402  -16.8741  -49.3828 H         1 UNK         0.0800 
    136 H136       -0.3679  -17.2941  -50.3559 H         1 UNK         0.1150 
    137 H137       -0.0704  -21.5522  -50.6584 H         1 UNK         0.1150 
    138 H138        3.2792  -19.2652  -49.2979 H         1 UNK         0.1150 
    139 H139        1.7605  -22.7026  -49.7324 H         1 UNK         0.0800 
    140 H140        3.0764  -22.0010  -50.6260 H         1 UNK         0.0800 
    141 H141        1.8710  -20.5755  -47.1520 H         1 UNK         0.0800 
    142 H142        3.1145  -21.1339  -46.0884 H         1 UNK         0.0800 
    143 H143        2.0640  -23.5327  -46.3460 H         1 UNK         0.0600 
    144 H144        1.5088  -21.5073  -44.4815 H         1 UNK         0.3000 
    145 H145       -0.9385  -23.1970  -42.4806 H         1 UNK         0.0600 
    146 H146        0.6995  -22.5475  -40.7364 H         1 UNK         0.0600 
    147 H147        1.9514  -22.3248  -41.9556 H         1 UNK         0.0600 
    148 H148        1.2915  -23.9258  -41.6518 H         1 UNK         0.0600 
    149 H149        0.1527  -20.5856  -42.2666 H         1 UNK         0.3000 
    150 H150       -2.1924  -18.9238  -44.4299 H         1 UNK         0.0600 
    151 H151       -3.2840  -19.0509  -42.2205 H         1 UNK         0.0600 
    152 H152       -2.3711  -17.5538  -42.3505 H         1 UNK         0.0600 
    153 H153       -1.7377  -18.8972  -41.4002 H         1 UNK         0.0600 
    154 H154        0.0369  -17.9273  -42.9779 H         1 UNK         0.3000 
    155 H155        2.5246  -18.5689  -45.4765 H         1 UNK         0.0600 
    156 H156        1.5902  -16.4555  -46.2026 H         1 UNK         0.0600 
    157 H157        2.8693  -16.1032  -45.0570 H         1 UNK         0.0600 
    158 H158        1.1790  -15.9728  -44.5670 H         1 UNK         0.0600 
    159 H159        2.4749  -17.3697  -42.8371 H         1 UNK         0.3000 
    160 H160        3.3467  -20.3476  -41.0847 H         1 UNK         0.0600 
    161 H161        5.0398  -17.8809  -41.7653 H         1 UNK         0.0600 
    162 H162        5.5221  -19.5532  -42.0250 H         1 UNK         0.0600 
    163 H163        5.2810  -18.9588  -40.3901 H         1 UNK         0.0600 
    164 H164        3.0726  -17.6085  -40.2884 H         1 UNK         0.3000 
    165 H165       -0.4383  -17.5867  -39.7869 H         1 UNK         0.0600 
    166 H166        0.1897  -17.0218  -37.4564 H         1 UNK         0.0600 
    167 H167        0.3830  -18.7454  -37.7312 H         1 UNK         0.0600 
    168 H168        1.7998  -17.7026  -37.6934 H         1 UNK         0.0600 
    169 H169        1.5814  -15.6939  -39.1382 H         1 UNK         0.3000 
    170 H170        1.4996  -13.6785  -40.3981 H         1 UNK         0.0600 
    171 H171        3.4765  -15.0969  -42.2957 H         1 UNK         0.0600 
    172 H172        3.7611  -13.5561  -41.4926 H         1 UNK         0.0600 
    173 H173        3.6430  -15.0238  -40.5448 H         1 UNK         0.0600 
    174 H174        0.6699  -14.2234  -43.0972 H         1 UNK         0.3000 
    175 H175        0.4786  -10.7802  -43.9263 H         1 UNK         0.0600 
    176 H176        2.3384  -12.7846  -45.2995 H         1 UNK         0.0600 
    177 H177        1.5653  -11.4095  -46.0911 H         1 UNK         0.0600 
    178 H178        2.7438  -11.1450  -44.8150 H         1 UNK         0.0600 
    179 H179       -0.1774  -13.1146  -45.4421 H         1 UNK         0.3000 
    180 H180       -3.2852  -13.7815  -44.1589 H         1 UNK         0.0600 
    181 H181       -4.5576  -12.5511  -45.9089 H         1 UNK         0.0600 
    182 H182       -3.2136  -11.4299  -46.1244 H         1 UNK         0.0600 
    183 H183       -4.0991  -11.4705  -44.6036 H         1 UNK         0.0600 
    184 H184       -2.2194  -13.5153  -46.8892 H         1 UNK         0.3000 
    185 H185       -0.7019  -16.6742  -46.9432 H         1 UNK         0.0600 
    186 H186       -3.4696  -16.0354  -48.0838 H         1 UNK         0.0600 
    187 H187       -2.3438  -17.2121  -48.7563 H         1 UNK         0.0600 
    188 H188       -3.0342  -17.4602  -47.1589 H         1 UNK         0.0600 
    189 H189       -1.2890  -15.0788  -49.1373 H         1 UNK         0.3000 
    190 H190       -0.4552  -20.9686  -46.4555 H         1 UNK         0.3000 
    191 H191       -1.6322  -21.7932  -48.8401 H         1 UNK         0.0600 
    192 H192       -2.8551  -20.2119  -46.5156 H         1 UNK         0.0600 
    193 H193       -3.5148  -20.2827  -48.1454 H         1 UNK         0.0600 
    194 H194       -1.9432  -19.5459  -47.8695 H         1 UNK         0.0600 
    195 H195       -2.5093  -22.7113  -45.5092 H         1 UNK         0.3000 
    196 H196       -4.7621  -24.3094  -46.1338 H         1 UNK         0.0600 
    197 H197       -4.2310  -23.5207  -43.8433 H         1 UNK         0.0600 
    198 H198       -2.7764  -24.5150  -43.8067 H         1 UNK         0.0600 
    199 H199       -4.3640  -25.2731  -43.8591 H         1 UNK         0.0600 
    200 H200       -1.2809  -25.1095  -46.0991 H         1 UNK         0.3000 
    201 H201       -1.6606  -27.9450  -46.5353 H         1 UNK         0.0600 
    202 H202        0.3441  -27.0778  -45.3873 H         1 UNK         0.0600 
    203 H203        0.8151  -26.1633  -46.8163 H         1 UNK         0.0600 
    204 H204        0.8137  -27.9227  -46.8551 H         1 UNK         0.0600 
    205 H205       -0.6831  -25.1897  -48.6483 H         1 UNK         0.3000 
    206 H206       -0.3140  -26.8470  -50.9610 H         1 UNK         0.0600 
    207 H207       -0.4744  -23.8111  -50.6557 H         1 UNK         0.0600 
    208 H208        0.9891  -24.7965  -50.6091 H         1 UNK         0.0600 
    209 H209        0.0704  -24.6525  -52.1012 H         1 UNK         0.0600 
    210 H210       -2.8773  -24.4882  -50.0733 H         1 UNK         0.3000 
    211 H211       -4.7903  -23.8755  -50.9319 H         1 UNK         0.0600 
    212 H212       -5.1447  -26.7751  -51.8647 H         1 UNK         0.0600 
    213 H213       -6.4240  -25.6120  -51.5156 H         1 UNK         0.0600 
    214 H214       -5.4135  -26.2124  -50.2184 H         1 UNK         0.0600 
    215 H215       -6.0977  -25.0759  -53.3780 H         1 UNK         0.3000 
    216 H216       -6.3880  -24.6783  -55.5147 H         1 UNK         0.0600 
    217 H217       -4.5501  -24.8451  -57.1013 H         1 UNK         0.0600 
    218 H218       -4.1958  -25.9325  -55.7763 H         1 UNK         0.0600 
    219 H219       -3.3619  -24.3863  -55.8858 H         1 UNK         0.0600 
    220 H220       -4.9129  -22.9187  -57.3214 H         1 UNK         0.3000 
    221 H221       -6.4359  -20.5113  -56.6718 H         1 UNK         0.0600 
    222 H222       -4.9792  -21.3661  -59.2262 H         1 UNK         0.0600 
    223 H223       -6.6729  -21.6942  -58.8589 H         1 UNK         0.0600 
    224 H224       -6.1296  -20.0424  -59.0802 H         1 UNK         0.0600 
    225 H225       -3.6002  -21.1207  -55.4799 H         1 UNK         0.3000 
    226 H226       -1.8752  -19.0069  -56.4168 H         1 UNK         0.0600 
    227 H227       -0.9119  -20.9812  -55.3755 H         1 UNK         0.0600 
    228 H228       -0.5825  -19.6334  -54.3025 H         1 UNK         0.0600 
    229 H229       -1.8667  -20.7732  -53.9185 H         1 UNK         0.0600 
    230 H230       -1.0167  -17.3565  -54.8720 H         1 UNK         0.3000 
    231 H231       -2.7746  -15.2933  -54.5844 H         1 UNK         0.0600 
    232 H232       -0.8817  -14.1800  -53.3699 H         1 UNK         0.0600 
    233 H233       -0.3428  -15.0379  -54.8017 H         1 UNK         0.0600 
    234 H234       -0.0805  -15.7379  -53.2053 H         1 UNK         0.0600 
    235 H235       -4.6271  -15.6500  -53.4520 H         1 UNK         0.3000 
    236 H236       -6.0917  -15.5946  -51.8228 H         1 UNK         0.0600 
    237 H237       -3.8193  -14.7204  -49.9714 H         1 UNK         0.0600 
    238 H238       -4.9074  -13.6787  -50.8824 H         1 UNK         0.0600 
    239 H239       -5.5302  -14.6628  -49.5753 H         1 UNK         0.0600 
    240 H240       -4.6602  -18.0876  -52.4930 H         1 UNK         0.3000 
    241 H241       -4.8910  -19.7400  -50.0847 H         1 UNK         0.0600 
    242 H242       -8.5400  -19.6120  -51.7911 H         1 UNK         0.3800 
    243 H243       -7.3087  -18.4583  -52.2291 H         1 UNK         0.3800 
    244 H244       -4.1241  -20.2572  -52.9710 H         1 UNK         0.0800 
    245 H245       -4.7770  -21.5794  -52.0843 H         1 UNK         0.0800 
    246 H246       -2.4218  -18.7327  -50.4909 H         1 UNK         0.0800 
    247 H247       -1.8098  -18.9628  -52.1076 H         1 UNK         0.0800 
@<TRIPOS>BOND
     1    1    2 1    
     2    1  127 1    
     3    1  128 1    
     4    1  129 1    
     5    2    3 2    
     6    2    4 am   BACKBONE|DICT|INTERRES
     7    4    5 1    
     8    4  130 1    
     9    5    6 1    
    10    5   65 1    
    11    5  131 1    
    12    6    7 1    
    13    6  132 1    
    14    6  133 1    
    15    7    8 1    
    16    8    9 1    
    17    8  134 1    
    18    8  135 1    
    19    9   10 ar   
    20    9   14 ar   
    21   10   11 ar   
    22   10  136 1    
    23   11   12 ar   
    24   11  126 1    
    25   12   13 ar   
    26   12  137 1    
    27   13   14 ar   
    28   13   15 1    
    29   14  138 1    
    30   15   16 1    
    31   15  139 1    
    32   15  140 1    
    33   16   17 1    
    34   17   18 1    
    35   17  141 1    
    36   17  142 1    
    37   18   19 1    
    38   18   67 1    
    39   18  143 1    
    40   19   20 am   BACKBONE|DICT|INTERRES
    41   19  144 1    
    42   20   21 2    
    43   20   22 1    
    44   22   23 1    
    45   22   24 1    
    46   22  145 1    
    47   23  146 1    
    48   23  147 1    
    49   23  148 1    
    50   24   25 am   BACKBONE|DICT|INTERRES
    51   24  149 1    
    52   25   26 2    
    53   25   27 1    
    54   27   28 1    
    55   27   29 1    
    56   27  150 1    
    57   28  151 1    
    58   28  152 1    
    59   28  153 1    
    60   29   30 am   BACKBONE|DICT|INTERRES
    61   29  154 1    
    62   30   31 2    
    63   30   32 1    
    64   32   33 1    
    65   32   34 1    
    66   32  155 1    
    67   33  156 1    
    68   33  157 1    
    69   33  158 1    
    70   34   35 am   BACKBONE|DICT|INTERRES
    71   34  159 1    
    72   35   36 2    
    73   35   37 1    
    74   37   38 1    
    75   37   39 1    
    76   37  160 1    
    77   38  161 1    
    78   38  162 1    
    79   38  163 1    
    80   39   40 am   BACKBONE|DICT|INTERRES
    81   39  164 1    
    82   40   41 2    
    83   40   42 1    
    84   42   43 1    
    85   42   44 1    
    86   42  165 1    
    87   43  166 1    
    88   43  167 1    
    89   43  168 1    
    90   44   45 am   BACKBONE|DICT|INTERRES
    91   44  169 1    
    92   45   46 2    
    93   45   47 1    
    94   47   48 1    
    95   47   49 1    
    96   47  170 1    
    97   48  171 1    
    98   48  172 1    
    99   48  173 1    
   100   49   50 am   BACKBONE|DICT|INTERRES
   101   49  174 1    
   102   50   51 2    
   103   50   52 1    
   104   52   53 1    
   105   52   54 1    
   106   52  175 1    
   107   53  176 1    
   108   53  177 1    
   109   53  178 1    
   110   54   55 am   BACKBONE|DICT|INTERRES
   111   54  179 1    
   112   55   56 2    
   113   55   57 1    
   114   57   58 1    
   115   57   59 1    
   116   57  180 1    
   117   58  181 1    
   118   58  182 1    
   119   58  183 1    
   120   59   60 am   BACKBONE|DICT|INTERRES
   121   59  184 1    
   122   60   61 2    
   123   60   62 1    
   124   62   63 1    
   125   62   64 1    
   126   62  185 1    
   127   63  186 1    
   128   63  187 1    
   129   63  188 1    
   130   64   65 am   BACKBONE|DICT|INTERRES
   131   64  189 1    
   132   65   66 2    
   133   67   68 2    
   134   67   69 am   BACKBONE|DICT|INTERRES
   135   69   70 1    
   136   69  190 1    
   137   70   71 1    
   138   70   72 1    
   139   70  191 1    
   140   71  192 1    
   141   71  193 1    
   142   71  194 1    
   143   72   73 2    
   144   72   74 am   BACKBONE|DICT|INTERRES
   145   74   75 1    
   146   74  195 1    
   147   75   76 1    
   148   75   77 1    
   149   75  196 1    
   150   76  197 1    
   151   76  198 1    
   152   76  199 1    
   153   77   78 2    
   154   77   79 am   BACKBONE|DICT|INTERRES
   155   79   80 1    
   156   79  200 1    
   157   80   81 1    
   158   80   82 1    
   159   80  201 1    
   160   81  202 1    
   161   81  203 1    
   162   81  204 1    
   163   82   83 2    
   164   82   84 am   BACKBONE|DICT|INTERRES
   165   84   85 1    
   166   84  205 1    
   167   85   86 1    
   168   85   87 1    
   169   85  206 1    
   170   86  207 1    
   171   86  208 1    
   172   86  209 1    
   173   87   88 2    
   174   87   89 am   BACKBONE|DICT|INTERRES
   175   89   90 1    
   176   89  210 1    
   177   90   91 1    
   178   90   92 1    
   179   90  211 1    
   180   91  212 1    
   181   91  213 1    
   182   91  214 1    
   183   92   93 2    
   184   92   94 am   BACKBONE|DICT|INTERRES
   185   94   95 1    
   186   94  215 1    
   187   95   96 1    
   188   95   97 1    
   189   95  216 1    
   190   96  217 1    
   191   96  218 1    
   192   96  219 1    
   193   97   98 2    
   194   97   99 am   BACKBONE|DICT|INTERRES
   195   99  100 1    
   196   99  220 1    
   197  100  101 1    
   198  100  102 1    
   199  100  221 1    
   200  101  222 1    
   201  101  223 1    
   202  101  224 1    
   203  102  103 2    
   204  102  104 am   BACKBONE|DICT|INTERRES
   205  104  105 1    
   206  104  225 1    
   207  105  106 1    
   208  105  107 1    
   209  105  226 1    
   210  106  227 1    
   211  106  228 1    
   212  106  229 1    
   213  107  108 2    
   214  107  109 am   BACKBONE|DICT|INTERRES
   215  109  110 1    
   216  109  230 1    
   217  110  111 1    
   218  110  112 1    
   219  110  231 1    
   220  111  232 1    
   221  111  233 1    
   222  111  234 1    
   223  112  113 2    
   224  112  114 am   BACKBONE|DICT|INTERRES
   225  114  115 1    
   226  114  235 1    
   227  115  116 1    
   228  115  117 1    
   229  115  236 1    
   230  116  237 1    
   231  116  238 1    
   232  116  239 1    
   233  117  118 2    
   234  117  119 am   BACKBONE|DICT|INTERRES
   235  119  120 1    
   236  119  240 1    
   237  120  121 1    
   238  120  124 1    
   239  120  241 1    
   240  121  122 am   BACKBONE|DICT|INTERRES
   241  121  123 2    
   242  122  242 1    
   243  122  243 1    
   244  124  125 1    
   245  124  244 1    
   246  124  245 1    
   247  125  126 1    
   248  126  246 1    
   249  126  247 1    
@<TRIPOS>SUBSTRUCTURE
     1 UNK         1 GROUP             0       ****    0 ROOT    
