@<TRIPOS>MOLECULE
3R540
247   249    1
SMALL
USER_CHARGES


@<TRIPOS>ATOM
      1 CA          5.7372  -14.9151  -44.1362 C.3       0 UNK        -0.1800 
      2 C           4.5653  -14.3491  -44.9234 C.2       0 UNK         0.5000 
      3 O           3.4243  -14.7523  -44.7000 O.2       0 UNK        -0.5000 
      4 N           4.8433  -13.4175  -45.8383 N.am      1 UNK        -0.5000 
      5 CA          3.8467  -12.6996  -46.6287 C.3       1 UNK         0.1400 
      6 C6          3.3020  -13.5231  -47.8264 C.3       23 UNK        -0.0398 
      7 S7          1.5832  -13.0513  -48.2228 S.3       23 UNK        -0.2404 
      8 C8          0.6820  -14.6003  -47.8961 C.3       23 UNK        -0.0205 
      9 C9          0.9062  -15.6209  -49.0024 C.ar      23 UNK        -0.0193 
     10 C10         0.3134  -15.4344  -50.2553 C.ar      23 UNK        -0.1150 
     11 C11         0.5403  -16.3425  -51.2937 C.ar      23 UNK        -0.0193 
     12 C12         1.3504  -17.4576  -51.0612 C.ar      23 UNK        -0.1150 
     13 C13         1.9340  -17.6676  -49.8088 C.ar      23 UNK        -0.0193 
     14 C14         1.7139  -16.7407  -48.7841 C.ar      23 UNK        -0.1150 
     15 C15         2.8295  -18.8790  -49.5845 C.3       23 UNK        -0.0205 
     16 S16         2.3019  -19.8983  -48.1730 S.3       23 UNK        -0.2404 
     17 C17         0.6149  -20.3989  -48.6611 C.3       23 UNK        -0.0398 
     18 CA          0.2812  -21.8374  -48.2025 C.3       11 UNK         0.1400 
     19 N           0.4085  -22.0156  -46.7524 N.am      11 UNK        -0.5000 
     20 C           0.3579  -23.1964  -46.1215 C.2       10 UNK         0.5000 
     21 O           0.2259  -24.2758  -46.6975 O.2       10 UNK        -0.5000 
     22 CA          0.4128  -23.1611  -44.5864 C.3       10 UNK         0.1400 
     23 CB          1.8619  -23.0521  -44.0881 C.3       10 UNK        -0.1800 
     24 N          -0.3823  -22.0590  -44.0471 N.am      10 UNK        -0.5000 
     25 C          -1.7220  -22.0369  -44.0261 C.2       9 UNK         0.5000 
     26 O          -2.4262  -22.9628  -44.4303 O.2       9 UNK        -0.5000 
     27 CA         -2.3837  -20.7477  -43.5014 C.3       9 UNK         0.1400 
     28 CB         -2.4287  -20.7459  -41.9663 C.3       9 UNK        -0.1800 
     29 N          -1.7109  -19.5338  -43.9683 N.am      9 UNK        -0.5000 
     30 C          -1.6618  -19.1483  -45.2509 C.2       8 UNK         0.5000 
     31 O          -2.2139  -19.7574  -46.1634 O.2       8 UNK        -0.5000 
     32 CA         -0.8209  -17.9033  -45.5851 C.3       8 UNK         0.1400 
     33 CB         -1.6945  -16.6434  -45.5286 C.3       8 UNK        -0.1800 
     34 N           0.3711  -17.7240  -44.7484 N.am      8 UNK        -0.5000 
     35 C           1.3529  -18.6300  -44.6098 C.2       7 UNK         0.5000 
     36 O           1.2807  -19.7775  -45.0477 O.2       7 UNK        -0.5000 
     37 CA          2.6344  -18.2074  -43.8723 C.3       7 UNK         0.1400 
     38 CB          3.7901  -18.0581  -44.8734 C.3       7 UNK        -0.1800 
     39 N           2.4840  -16.9652  -43.1128 N.am      7 UNK        -0.5000 
     40 C           1.9561  -16.9024  -41.8828 C.2       6 UNK         0.5000 
     41 O           1.5448  -17.8882  -41.2693 O.2       6 UNK        -0.5000 
     42 CA          1.8587  -15.5132  -41.2210 C.3       6 UNK         0.1400 
     43 CB          3.1052  -15.2372  -40.3664 C.3       6 UNK        -0.1800 
     44 N           1.6723  -14.4009  -42.1543 N.am      6 UNK        -0.5000 
     45 C           0.6337  -14.2447  -42.9852 C.2       5 UNK         0.5000 
     46 O          -0.2727  -15.0697  -43.0990 O.2       5 UNK        -0.5000 
     47 CA          0.6034  -12.9341  -43.7922 C.3       5 UNK         0.1400 
     48 CB         -0.7443  -12.6927  -44.4951 C.3       5 UNK        -0.1800 
     49 N           0.8889  -11.7988  -42.9129 N.am      5 UNK        -0.5000 
     50 C           2.0132  -11.0767  -42.9204 C.2       4 UNK         0.5000 
     51 O           2.9671  -11.2870  -43.6740 O.2       4 UNK        -0.5000 
     52 CA          2.1032   -9.9388  -41.8911 C.3       4 UNK         0.1400 
     53 CB          2.9935  -10.3528  -40.7096 C.3       4 UNK        -0.1800 
     54 N           2.6794   -8.7655  -42.5369 N.am      4 UNK        -0.5000 
     55 C           1.9892   -7.8740  -43.2556 C.2       3 UNK         0.5000 
     56 O           0.7590   -7.8180  -43.2777 O.2       3 UNK        -0.5000 
     57 CA          2.8090   -6.9229  -44.1490 C.3       3 UNK         0.1400 
     58 CB          3.5918   -5.8816  -43.3243 C.3       3 UNK        -0.1800 
     59 N           3.6667   -7.6460  -45.1005 N.am      3 UNK        -0.5000 
     60 C           4.7515   -8.3920  -44.8480 C.2       2 UNK         0.5000 
     61 O           5.2576   -8.5265  -43.7317 O.2       2 UNK        -0.5000 
     62 CA          5.2973   -9.2012  -46.0287 C.3       2 UNK         0.1400 
     63 CB          6.8316   -9.3365  -45.9963 C.3       2 UNK        -0.1800 
     64 N           4.6785  -10.5190  -45.9586 N.am      2 UNK        -0.5000 
     65 C           4.4486  -11.3321  -46.9936 C.2       1 UNK         0.5000 
     66 O           4.7508  -11.0615  -48.1571 O.2       1 UNK        -0.5000 
     67 C          -1.1082  -22.2718  -48.7118 C.2       11 UNK         0.5000 
     68 O          -1.1944  -22.8760  -49.7817 O.2       11 UNK        -0.5000 
     69 N          -2.1644  -21.9922  -47.9344 N.am      12 UNK        -0.5000 
     70 CA         -3.5277  -22.4437  -48.1991 C.3       12 UNK         0.1400 
     71 CB         -4.5164  -21.7216  -47.2729 C.3       12 UNK        -0.1800 
     72 C          -3.6628  -23.9654  -48.0514 C.2       12 UNK         0.5000 
     73 O          -4.2508  -24.6002  -48.9257 O.2       12 UNK        -0.5000 
     74 N          -3.0954  -24.5322  -46.9763 N.am      13 UNK        -0.5000 
     75 CA         -3.0735  -25.9741  -46.7150 C.3       13 UNK         0.1400 
     76 CB         -2.4636  -26.2452  -45.3322 C.3       13 UNK        -0.1800 
     77 C          -2.3351  -26.7672  -47.8093 C.2       13 UNK         0.5000 
     78 O          -2.8444  -27.7927  -48.2631 O.2       13 UNK        -0.5000 
     79 N          -1.1870  -26.2416  -48.2606 N.am      14 UNK        -0.5000 
     80 CA         -0.4040  -26.7648  -49.3838 C.3       14 UNK         0.1400 
     81 CB          0.9198  -25.9916  -49.4785 C.3       14 UNK        -0.1800 
     82 C          -1.1554  -26.7133  -50.7296 C.2       14 UNK         0.5000 
     83 O          -0.9259  -27.5667  -51.5867 O.2       14 UNK        -0.5000 
     84 N          -2.0653  -25.7421  -50.8720 N.am      15 UNK        -0.5000 
     85 CA         -2.9648  -25.5662  -52.0106 C.3       15 UNK         0.1400 
     86 CB         -3.1376  -24.0615  -52.2734 C.3       15 UNK        -0.1800 
     87 C          -4.3212  -26.2743  -51.8101 C.2       15 UNK         0.5000 
     88 O          -5.3053  -25.8653  -52.4251 O.2       15 UNK        -0.5000 
     89 N          -4.3623  -27.3115  -50.9590 N.am      16 UNK        -0.5000 
     90 CA         -5.5131  -28.1755  -50.6705 C.3       16 UNK         0.1400 
     91 CB         -5.8797  -29.0198  -51.9096 C.3       16 UNK        -0.1800 
     92 C          -6.7143  -27.4025  -50.0876 C.2       16 UNK         0.5000 
     93 O          -7.8454  -27.5714  -50.5460 O.2       16 UNK        -0.5000 
     94 N          -6.4240  -26.5595  -49.0872 N.am      17 UNK        -0.5000 
     95 CA         -7.3325  -25.6215  -48.4198 C.3       17 UNK         0.1400 
     96 CB         -8.5018  -26.3502  -47.7235 C.3       17 UNK        -0.1800 
     97 C          -7.7778  -24.4910  -49.3691 C.2       17 UNK         0.5000 
     98 O          -8.9658  -24.1741  -49.4506 O.2       17 UNK        -0.5000 
     99 N          -6.7863  -23.9052  -50.0562 N.am      18 UNK        -0.5000 
    100 CA        -6.8810  -22.7888  -50.9996 C.3       18 UNK         0.1400 
    101 CB        -7.2432  -21.4858  -50.2558 C.3       18 UNK        -0.1800 
    102 C         -7.8135  -23.0852  -52.1924 C.2       18 UNK         0.5000 
    103 O         -8.7244  -22.3058  -52.4841 O.2       18 UNK        -0.5000 
    104 N         -7.5777  -24.2203  -52.8629 N.am      19 UNK        -0.5000 
    105 CA        -8.3247  -24.6836  -54.0313 C.3       19 UNK         0.1400 
    106 CB        -8.0889  -26.1940  -54.2094 C.3       19 UNK        -0.1800 
    107 C         -7.9518  -23.8738  -55.2902 C.2       19 UNK         0.5000 
    108 O         -7.1836  -24.3478  -56.1291 O.2       19 UNK        -0.5000 
    109 N         -8.4952  -22.6513  -55.3746 N.am      20 UNK        -0.5000 
    110 CA        -8.3095  -21.6577  -56.4401 C.3       20 UNK         0.1400 
    111 CB        -8.8679  -22.1739  -57.7834 C.3       20 UNK        -0.1800 
    112 C         -6.8596  -21.1354  -56.5457 C.2       20 UNK         0.5000 
    113 O         -6.3961  -20.8048  -57.6390 O.2       20 UNK        -0.5000 
    114 N         -6.1762  -21.0500  -55.4000 N.am      21 UNK        -0.5000 
    115 CA        -4.8219  -20.5340  -55.2394 C.3       21 UNK         0.1400 
    116 CB        -3.7968  -21.6133  -55.6312 C.3       21 UNK        -0.1800 
    117 C         -4.6416  -20.0972  -53.7792 C.2       21 UNK         0.5000 
    118 O         -5.3992  -20.5404  -52.9138 O.2       21 UNK        -0.5000 
    119 N         -3.6424  -19.2448  -53.5308 N.am      22 UNK        -0.5000 
    120 CA        -3.2902  -18.7210  -52.1982 C.3       22 UNK         0.1400 
    121 C         -2.5799  -19.7299  -51.2473 C.2       22 UNK         0.5000 
    122 N         -2.1767  -20.9068  -51.7092 N.am      22 UNK        -0.7600 
    123 O         -2.4110  -19.4417  -50.0671 O.2       22 UNK        -0.5000 
    124 C124       -2.5204  -17.3783  -52.3003 C.3       23 UNK        -0.0398 
    125 S125       -1.0127  -17.4803  -53.3271 S.3       23 UNK        -0.2404 
    126 C126       -0.0388  -16.0839  -52.6798 C.3       23 UNK        -0.0205 
    127 H127        5.4302  -15.1554  -43.1184 H         1 UNK         0.0600 
    128 H128        6.5605  -14.2026  -44.0810 H         1 UNK         0.0600 
    129 H129        6.1022  -15.8260  -44.6091 H         1 UNK         0.0600 
    130 H130        5.7979  -13.1126  -45.9732 H         1 UNK         0.3000 
    131 H131        3.0090  -12.4829  -45.9670 H         1 UNK         0.0600 
    132 H132        3.9253  -13.4233  -48.7161 H         1 UNK         0.0800 
    133 H133        3.3190  -14.5859  -47.5843 H         1 UNK         0.0800 
    134 H134        0.9784  -14.9995  -46.9243 H         1 UNK         0.0800 
    135 H135       -0.3838  -14.3788  -47.8258 H         1 UNK         0.0800 
    136 H136       -0.3009  -14.5615  -50.4270 H         1 UNK         0.1150 
    137 H137        1.5334  -18.1573  -51.8646 H         1 UNK         0.1150 
    138 H138        2.1754  -16.8927  -47.8183 H         1 UNK         0.1150 
    139 H139        2.8697  -19.5072  -50.4758 H         1 UNK         0.0800 
    140 H140        3.8482  -18.5331  -49.4056 H         1 UNK         0.0800 
    141 H141        0.5229  -20.3203  -49.7462 H         1 UNK         0.0800 
    142 H142       -0.0962  -19.6843  -48.2447 H         1 UNK         0.0800 
    143 H143        1.0077  -22.5064  -48.6689 H         1 UNK         0.0600 
    144 H144        0.5788  -21.1771  -46.2038 H         1 UNK         0.3000 
    145 H145       -0.0015  -24.1000  -44.2131 H         1 UNK         0.0600 
    146 H146        1.9059  -23.0601  -42.9990 H         1 UNK         0.0600 
    147 H147        2.4579  -23.8933  -44.4440 H         1 UNK         0.0600 
    148 H148        2.3457  -22.1393  -44.4368 H         1 UNK         0.0600 
    149 H149        0.1232  -21.2199  -43.7964 H         1 UNK         0.3000 
    150 H150       -3.4107  -20.7285  -43.8724 H         1 UNK         0.0600 
    151 H151       -2.9363  -21.6351  -41.5899 H         1 UNK         0.0600 
    152 H152       -2.9715  -19.8789  -41.5891 H         1 UNK         0.0600 
    153 H153       -1.4279  -20.7302  -41.5328 H         1 UNK         0.0600 
    154 H154       -1.2181  -18.9831  -43.2804 H         1 UNK         0.3000 
    155 H155       -0.4688  -18.0161  -46.6119 H         1 UNK         0.0600 
    156 H156       -2.5457  -16.7282  -46.2054 H         1 UNK         0.0600 
    157 H157       -1.1320  -15.7604  -45.8255 H         1 UNK         0.0600 
    158 H158       -2.0880  -16.4714  -44.5262 H         1 UNK         0.0600 
    159 H159        0.4740  -16.8244  -44.2959 H         1 UNK         0.3000 
    160 H160        2.8944  -19.0158  -43.1855 H         1 UNK         0.0600 
    161 H161        4.7209  -17.8090  -44.3651 H         1 UNK         0.0600 
    162 H162        3.5865  -17.2842  -45.6139 H         1 UNK         0.0600 
    163 H163        3.9583  -18.9892  -45.4166 H         1 UNK         0.0600 
    164 H164        2.7816  -16.1081  -43.5750 H         1 UNK         0.3000 
    165 H165        0.9902  -15.5318  -40.5594 H         1 UNK         0.0600 
    166 H166        3.0055  -14.3040  -39.8115 H         1 UNK         0.0600 
    167 H167        3.2636  -16.0323  -39.6365 H         1 UNK         0.0600 
    168 H168        4.0048  -15.1698  -40.9791 H         1 UNK         0.0600 
    169 H169        2.3891  -13.6904  -42.1586 H         1 UNK         0.3000 
    170 H170        1.3635  -13.0261  -44.5665 H         1 UNK         0.0600 
    171 H171       -0.9630  -13.4871  -45.2082 H         1 UNK         0.0600 
    172 H172       -1.5695  -12.6497  -43.7834 H         1 UNK         0.0600 
    173 H173       -0.7327  -11.7563  -45.0531 H         1 UNK         0.0600 
    174 H174        0.1741  -11.5816  -42.2322 H         1 UNK         0.3000 
    175 H175        1.1063   -9.7021  -41.5129 H         1 UNK         0.0600 
    176 H176        4.0049  -10.6017  -41.0345 H         1 UNK         0.0600 
    177 H177        3.0666   -9.5523  -39.9732 H         1 UNK         0.0600 
    178 H178        2.5865  -11.2276  -40.2010 H         1 UNK         0.0600 
    179 H179        3.6874   -8.7753  -42.6675 H         1 UNK         0.3000 
    180 H180        2.0923   -6.3722  -44.7608 H         1 UNK         0.0600 
    181 H181        4.3079   -6.3426  -42.6438 H         1 UNK         0.0600 
    182 H182        2.9123   -5.2815  -42.7177 H         1 UNK         0.0600 
    183 H183        4.1387   -5.1972  -43.9727 H         1 UNK         0.0600 
    184 H184        3.3164   -7.6519  -46.0489 H         1 UNK         0.3000 
    185 H185        5.0097   -8.7022  -46.9571 H         1 UNK         0.0600 
    186 H186        7.3085   -8.3558  -45.9861 H         1 UNK         0.0600 
    187 H187        7.1716   -9.8785  -45.1127 H         1 UNK         0.0600 
    188 H188        7.1991   -9.8675  -46.8746 H         1 UNK         0.0600 
    189 H189        4.3458  -10.8004  -45.0384 H         1 UNK         0.3000 
    190 H190       -2.0373  -21.3926  -47.1240 H         1 UNK         0.3000 
    191 H191       -3.7786  -22.1828  -49.2296 H         1 UNK         0.0600 
    192 H192       -4.2665  -21.8673  -46.2217 H         1 UNK         0.0600 
    193 H193       -5.5334  -22.0862  -47.4216 H         1 UNK         0.0600 
    194 H194       -4.5223  -20.6493  -47.4696 H         1 UNK         0.0600 
    195 H195       -2.6580  -23.9379  -46.2805 H         1 UNK         0.3000 
    196 H196       -4.1089  -26.3203  -46.6991 H         1 UNK         0.0600 
    197 H197       -2.4672  -27.3122  -45.1065 H         1 UNK         0.0600 
    198 H198       -3.0306  -25.7450  -44.5469 H         1 UNK         0.0600 
    199 H199       -1.4316  -25.9003  -45.2704 H         1 UNK         0.0600 
    200 H200       -0.8123  -25.4191  -47.7932 H         1 UNK         0.3000 
    201 H201       -0.1762  -27.8115  -49.1726 H         1 UNK         0.0600 
    202 H202        1.4963  -26.0822  -48.5578 H         1 UNK         0.0600 
    203 H203        0.7512  -24.9303  -49.6643 H         1 UNK         0.0600 
    204 H204        1.5400  -26.3738  -50.2902 H         1 UNK         0.0600 
    205 H205       -2.1872  -25.0855  -50.1119 H         1 UNK         0.3000 
    206 H206       -2.5139  -26.0062  -52.9020 H         1 UNK         0.0600 
    207 H207       -2.1774  -23.5996  -52.5006 H         1 UNK         0.0600 
    208 H208       -3.7939  -23.8759  -53.1234 H         1 UNK         0.0600 
    209 H209       -3.5625  -23.5486  -51.4107 H         1 UNK         0.0600 
    210 H210       -3.5198  -27.5294  -50.4428 H         1 UNK         0.3000 
    211 H211       -5.1882  -28.8646  -49.8896 H         1 UNK         0.0600 
    212 H212       -6.2531  -28.4017  -52.7266 H         1 UNK         0.0600 
    213 H213       -6.6557  -29.7477  -51.6703 H         1 UNK         0.0600 
    214 H214       -5.0170  -29.5753  -52.2770 H         1 UNK         0.0600 
    215 H215       -5.4448  -26.4329  -48.8624 H         1 UNK         0.3000 
    216 H216       -6.7449  -25.1414  -47.6359 H         1 UNK         0.0600 
    217 H217       -9.0773  -25.6573  -47.1089 H         1 UNK         0.0600 
    218 H218       -8.1388  -27.1411  -47.0674 H         1 UNK         0.0600 
    219 H219       -9.1926  -26.7967  -48.4388 H         1 UNK         0.0600 
    220 H220       -5.8480  -24.2600  -49.8933 H         1 UNK         0.3000 
    221 H221       -5.8824  -22.6622  -51.4181 H         1 UNK         0.0600 
    222 H222       -8.2231  -21.5458  -49.7818 H         1 UNK         0.0600 
    223 H223       -6.5085  -21.2552  -49.4858 H         1 UNK         0.0600 
    224 H224       -7.2645  -20.6372  -50.9402 H         1 UNK         0.0600 
    225 H225       -6.7874  -24.8021  -52.5881 H         1 UNK         0.3000 
    226 H226       -9.3908  -24.5399  -53.8428 H         1 UNK         0.0600 
    227 H227       -8.3873  -26.7468  -53.3182 H         1 UNK         0.0600 
    228 H228       -8.6704  -26.5834  -55.0456 H         1 UNK         0.0600 
    229 H229       -7.0404  -26.4210  -54.4051 H         1 UNK         0.0600 
    230 H230       -9.0356  -22.3390  -54.5746 H         1 UNK         0.3000 
    231 H231       -8.9121  -20.7957  -56.1506 H         1 UNK         0.0600 
    232 H232       -9.8941  -22.5247  -57.6755 H         1 UNK         0.0600 
    233 H233       -8.2721  -22.9949  -58.1829 H         1 UNK         0.0600 
    234 H234       -8.8750  -21.3823  -58.5336 H         1 UNK         0.0600 
    235 H235       -6.6281  -21.2959  -54.5279 H         1 UNK         0.3000 
    236 H236       -4.6934  -19.6561  -55.8761 H         1 UNK         0.0600 
    237 H237       -2.7751  -21.2666  -55.4726 H         1 UNK         0.0600 
    238 H238       -3.9329  -22.5239  -55.0481 H         1 UNK         0.0600 
    239 H239       -3.8868  -21.8789  -56.6845 H         1 UNK         0.0600 
    240 H240       -3.0461  -18.9395  -54.2866 H         1 UNK         0.3000 
    241 H241       -4.2324  -18.4931  -51.6959 H         1 UNK         0.0600 
    242 H242       -1.7585  -21.5792  -51.0756 H         1 UNK         0.3800 
    243 H243       -2.3054  -21.1414  -52.6782 H         1 UNK         0.3800 
    244 H244       -3.1705  -16.6200  -52.7384 H         1 UNK         0.0800 
    245 H245       -2.2643  -17.0068  -51.3064 H         1 UNK         0.0800 
    246 H246       -0.6586  -15.1859  -52.6848 H         1 UNK         0.0800 
    247 H247        0.7864  -15.8888  -53.3658 H         1 UNK         0.0800 
@<TRIPOS>BOND
     1    1    2 1    
     2    1  127 1    
     3    1  128 1    
     4    1  129 1    
     5    2    3 2    
     6    2    4 am   BACKBONE|DICT|INTERRES
     7    4    5 1    
     8    4  130 1    
     9    5    6 1    
    10    5   65 1    
    11    5  131 1    
    12    6    7 1    
    13    6  132 1    
    14    6  133 1    
    15    7    8 1    
    16    8    9 1    
    17    8  134 1    
    18    8  135 1    
    19    9   10 ar   
    20    9   14 ar   
    21   10   11 ar   
    22   10  136 1    
    23   11   12 ar   
    24   11  126 1    
    25   12   13 ar   
    26   12  137 1    
    27   13   14 ar   
    28   13   15 1    
    29   14  138 1    
    30   15   16 1    
    31   15  139 1    
    32   15  140 1    
    33   16   17 1    
    34   17   18 1    
    35   17  141 1    
    36   17  142 1    
    37   18   19 1    
    38   18   67 1    
    39   18  143 1    
    40   19   20 am   BACKBONE|DICT|INTERRES
    41   19  144 1    
    42   20   21 2    
    43   20   22 1    
    44   22   23 1    
    45   22   24 1    
    46   22  145 1    
    47   23  146 1    
    48   23  147 1    
    49   23  148 1    
    50   24   25 am   BACKBONE|DICT|INTERRES
    51   24  149 1    
    52   25   26 2    
    53   25   27 1    
    54   27   28 1    
    55   27   29 1    
    56   27  150 1    
    57   28  151 1    
    58   28  152 1    
    59   28  153 1    
    60   29   30 am   BACKBONE|DICT|INTERRES
    61   29  154 1    
    62   30   31 2    
    63   30   32 1    
    64   32   33 1    
    65   32   34 1    
    66   32  155 1    
    67   33  156 1    
    68   33  157 1    
    69   33  158 1    
    70   34   35 am   BACKBONE|DICT|INTERRES
    71   34  159 1    
    72   35   36 2    
    73   35   37 1    
    74   37   38 1    
    75   37   39 1    
    76   37  160 1    
    77   38  161 1    
    78   38  162 1    
    79   38  163 1    
    80   39   40 am   BACKBONE|DICT|INTERRES
    81   39  164 1    
    82   40   41 2    
    83   40   42 1    
    84   42   43 1    
    85   42   44 1    
    86   42  165 1    
    87   43  166 1    
    88   43  167 1    
    89   43  168 1    
    90   44   45 am   BACKBONE|DICT|INTERRES
    91   44  169 1    
    92   45   46 2    
    93   45   47 1    
    94   47   48 1    
    95   47   49 1    
    96   47  170 1    
    97   48  171 1    
    98   48  172 1    
    99   48  173 1    
   100   49   50 am   BACKBONE|DICT|INTERRES
   101   49  174 1    
   102   50   51 2    
   103   50   52 1    
   104   52   53 1    
   105   52   54 1    
   106   52  175 1    
   107   53  176 1    
   108   53  177 1    
   109   53  178 1    
   110   54   55 am   BACKBONE|DICT|INTERRES
   111   54  179 1    
   112   55   56 2    
   113   55   57 1    
   114   57   58 1    
   115   57   59 1    
   116   57  180 1    
   117   58  181 1    
   118   58  182 1    
   119   58  183 1    
   120   59   60 am   BACKBONE|DICT|INTERRES
   121   59  184 1    
   122   60   61 2    
   123   60   62 1    
   124   62   63 1    
   125   62   64 1    
   126   62  185 1    
   127   63  186 1    
   128   63  187 1    
   129   63  188 1    
   130   64   65 am   BACKBONE|DICT|INTERRES
   131   64  189 1    
   132   65   66 2    
   133   67   68 2    
   134   67   69 am   BACKBONE|DICT|INTERRES
   135   69   70 1    
   136   69  190 1    
   137   70   71 1    
   138   70   72 1    
   139   70  191 1    
   140   71  192 1    
   141   71  193 1    
   142   71  194 1    
   143   72   73 2    
   144   72   74 am   BACKBONE|DICT|INTERRES
   145   74   75 1    
   146   74  195 1    
   147   75   76 1    
   148   75   77 1    
   149   75  196 1    
   150   76  197 1    
   151   76  198 1    
   152   76  199 1    
   153   77   78 2    
   154   77   79 am   BACKBONE|DICT|INTERRES
   155   79   80 1    
   156   79  200 1    
   157   80   81 1    
   158   80   82 1    
   159   80  201 1    
   160   81  202 1    
   161   81  203 1    
   162   81  204 1    
   163   82   83 2    
   164   82   84 am   BACKBONE|DICT|INTERRES
   165   84   85 1    
   166   84  205 1    
   167   85   86 1    
   168   85   87 1    
   169   85  206 1    
   170   86  207 1    
   171   86  208 1    
   172   86  209 1    
   173   87   88 2    
   174   87   89 am   BACKBONE|DICT|INTERRES
   175   89   90 1    
   176   89  210 1    
   177   90   91 1    
   178   90   92 1    
   179   90  211 1    
   180   91  212 1    
   181   91  213 1    
   182   91  214 1    
   183   92   93 2    
   184   92   94 am   BACKBONE|DICT|INTERRES
   185   94   95 1    
   186   94  215 1    
   187   95   96 1    
   188   95   97 1    
   189   95  216 1    
   190   96  217 1    
   191   96  218 1    
   192   96  219 1    
   193   97   98 2    
   194   97   99 am   BACKBONE|DICT|INTERRES
   195   99  100 1    
   196   99  220 1    
   197  100  101 1    
   198  100  102 1    
   199  100  221 1    
   200  101  222 1    
   201  101  223 1    
   202  101  224 1    
   203  102  103 2    
   204  102  104 am   BACKBONE|DICT|INTERRES
   205  104  105 1    
   206  104  225 1    
   207  105  106 1    
   208  105  107 1    
   209  105  226 1    
   210  106  227 1    
   211  106  228 1    
   212  106  229 1    
   213  107  108 2    
   214  107  109 am   BACKBONE|DICT|INTERRES
   215  109  110 1    
   216  109  230 1    
   217  110  111 1    
   218  110  112 1    
   219  110  231 1    
   220  111  232 1    
   221  111  233 1    
   222  111  234 1    
   223  112  113 2    
   224  112  114 am   BACKBONE|DICT|INTERRES
   225  114  115 1    
   226  114  235 1    
   227  115  116 1    
   228  115  117 1    
   229  115  236 1    
   230  116  237 1    
   231  116  238 1    
   232  116  239 1    
   233  117  118 2    
   234  117  119 am   BACKBONE|DICT|INTERRES
   235  119  120 1    
   236  119  240 1    
   237  120  121 1    
   238  120  124 1    
   239  120  241 1    
   240  121  122 am   BACKBONE|DICT|INTERRES
   241  121  123 2    
   242  122  242 1    
   243  122  243 1    
   244  124  125 1    
   245  124  244 1    
   246  124  245 1    
   247  125  126 1    
   248  126  246 1    
   249  126  247 1    
@<TRIPOS>SUBSTRUCTURE
     1 UNK         1 GROUP             0       ****    0 ROOT    
