@<TRIPOS>MOLECULE
3R540
247   249    1
SMALL
USER_CHARGES


@<TRIPOS>ATOM
      1 CA         -2.6547  -11.3876  -52.1913 C.3       0 UNK        -0.1800 
      2 C          -2.3320  -11.6765  -50.7325 C.2       0 UNK         0.5000 
      3 O          -1.2612  -11.3031  -50.2524 O.2       0 UNK        -0.5000 
      4 N          -3.2573  -12.3264  -50.0159 N.am      1 UNK        -0.5000 
      5 CA         -3.1262  -12.7387  -48.6125 C.3       1 UNK         0.1400 
      6 C6         -3.9963  -13.9907  -48.3206 C.3       23 UNK        -0.0398 
      7 S7         -3.3145  -15.0205  -46.9752 S.3       23 UNK        -0.2404 
      8 C8         -2.7205  -16.4813  -47.8837 C.3       23 UNK        -0.0205 
      9 C9         -3.8584  -17.3889  -48.3269 C.ar      23 UNK        -0.0193 
     10 C10        -4.3236  -17.3538  -49.6449 C.ar      23 UNK        -0.1150 
     11 C11        -5.3761  -18.1796  -50.0504 C.ar      23 UNK        -0.0193 
     12 C12        -5.9507  -19.0610  -49.1293 C.ar      23 UNK        -0.1150 
     13 C13        -5.4831  -19.1186  -47.8128 C.ar      23 UNK        -0.0193 
     14 C14        -4.4416  -18.2748  -47.4167 C.ar      23 UNK        -0.1150 
     15 C15        -6.1185  -20.0773  -46.8160 C.3       23 UNK        -0.0205 
     16 S16        -5.4652  -21.7692  -46.9773 S.3       23 UNK        -0.2404 
     17 C17        -3.7978  -21.5790  -46.2645 C.3       23 UNK        -0.0398 
     18 CA         -3.0239  -22.9181  -46.1859 C.3       11 UNK         0.1400 
     19 N          -1.5769  -22.7133  -46.0757 N.am      11 UNK        -0.5000 
     20 C          -0.6509  -23.6749  -46.1837 C.2       10 UNK         0.5000 
     21 O          -0.9211  -24.8428  -46.4488 O.2       10 UNK        -0.5000 
     22 CA          0.8145  -23.2853  -45.9164 C.3       10 UNK         0.1400 
     23 CB          1.4821  -22.7528  -47.1920 C.3       10 UNK        -0.1800 
     24 N           0.9505  -22.3124  -44.8312 N.am      10 UNK        -0.5000 
     25 C           0.6099  -22.5569  -43.5569 C.2       9 UNK         0.5000 
     26 O           0.2144  -23.6517  -43.1577 O.2       9 UNK        -0.5000 
     27 CA          0.6562  -21.3686  -42.5788 C.3       9 UNK         0.1400 
     28 CB          2.0872  -21.1182  -42.0814 C.3       9 UNK        -0.1800 
     29 N           0.1111  -20.1432  -43.1650 N.am      9 UNK        -0.5000 
     30 C          -1.1620  -19.9919  -43.5583 C.2       8 UNK         0.5000 
     31 O          -2.0321  -20.8485  -43.3975 O.2       8 UNK        -0.5000 
     32 CA         -1.5044  -18.6997  -44.3230 C.3       8 UNK         0.1400 
     33 CB         -1.7479  -17.5269  -43.3637 C.3       8 UNK        -0.1800 
     34 N          -0.4699  -18.3394  -45.2927 N.am      8 UNK        -0.5000 
     35 C          -0.1518  -19.0752  -46.3665 C.2       7 UNK         0.5000 
     36 O          -0.7512  -20.0979  -46.6878 O.2       7 UNK        -0.5000 
     37 CA          1.0626  -18.6229  -47.1919 C.3       7 UNK         0.1400 
     38 CB          0.6614  -17.5621  -48.2199 C.3       7 UNK        -0.1800 
     39 N           2.1346  -18.1052  -46.3453 N.am      7 UNK        -0.5000 
     40 C           2.9007  -18.8670  -45.5539 C.2       6 UNK         0.5000 
     41 O           2.8108  -20.0930  -45.4934 O.2       6 UNK        -0.5000 
     42 CA          3.9053  -18.1281  -44.6505 C.3       6 UNK         0.1400 
     43 CB          5.2036  -17.8310  -45.4151 C.3       6 UNK        -0.1800 
     44 N           3.3624  -16.8795  -44.1094 N.am      6 UNK        -0.5000 
     45 C           2.3588  -16.8169  -43.2228 C.2       5 UNK         0.5000 
     46 O           1.8108  -17.8095  -42.7445 O.2       5 UNK        -0.5000 
     47 CA          1.8505  -15.4126  -42.8420 C.3       5 UNK         0.1400 
     48 CB          2.6812  -14.8322  -41.6882 C.3       5 UNK        -0.1800 
     49 N           1.8363  -14.4587  -43.9558 N.am      5 UNK        -0.5000 
     50 C           1.1626  -14.6177  -45.1020 C.2       4 UNK         0.5000 
     51 O           0.4959  -15.6195  -45.3623 O.2       4 UNK        -0.5000 
     52 CA          1.2391  -13.4514  -46.1053 C.3       4 UNK         0.1400 
     53 CB          0.7639  -13.8435  -47.5155 C.3       4 UNK        -0.1800 
     54 N           0.4406  -12.3179  -45.6454 N.am      4 UNK        -0.5000 
     55 C           0.8367  -11.4050  -44.7481 C.2       3 UNK         0.5000 
     56 O           1.9245  -11.4568  -44.1705 O.2       3 UNK        -0.5000 
     57 CA         -0.1300  -10.2350  -44.4817 C.3       3 UNK         0.1400 
     58 CB          0.5987   -8.9540  -44.0271 C.3       3 UNK        -0.1800 
     59 N          -0.9388   -9.9606  -45.6713 N.am      3 UNK        -0.5000 
     60 C          -2.1352   -9.3613  -45.6799 C.2       2 UNK         0.5000 
     61 O          -2.7085   -8.9512  -44.6700 O.2       2 UNK        -0.5000 
     62 CA         -2.8094   -9.2152  -47.0560 C.3       2 UNK         0.1400 
     63 CB         -2.2110   -8.0345  -47.8365 C.3       2 UNK        -0.1800 
     64 N          -2.6980  -10.4338  -47.8606 N.am      2 UNK        -0.5000 
     65 C          -3.3858  -11.5618  -47.6377 C.2       1 UNK         0.5000 
     66 O          -4.2081  -11.6739  -46.7272 O.2       1 UNK        -0.5000 
     67 C          -3.5463  -23.8288  -45.0562 C.2       11 UNK         0.5000 
     68 O          -4.2645  -24.7892  -45.3354 O.2       11 UNK        -0.5000 
     69 N          -3.1164  -23.5589  -43.8146 N.am      12 UNK        -0.5000 
     70 CA         -3.4135  -24.3748  -42.6337 C.3       12 UNK         0.1400 
     71 CB         -2.9033  -23.6554  -41.3762 C.3       12 UNK        -0.1800 
     72 C          -2.8397  -25.8043  -42.7225 C.2       12 UNK         0.5000 
     73 O          -3.4863  -26.7486  -42.2682 O.2       12 UNK        -0.5000 
     74 N          -1.6590  -25.9413  -43.3405 N.am      13 UNK        -0.5000 
     75 CA         -1.0001  -27.2163  -43.6348 C.3       13 UNK         0.1400 
     76 CB          0.4993  -26.9545  -43.8513 C.3       13 UNK        -0.1800 
     77 C          -1.5954  -27.9629  -44.8495 C.2       13 UNK         0.5000 
     78 O          -1.1969  -29.1015  -45.0988 O.2       13 UNK        -0.5000 
     79 N          -2.5115  -27.3173  -45.5882 N.am      14 UNK        -0.5000 
     80 CA         -3.1485  -27.7717  -46.8298 C.3       14 UNK         0.1400 
     81 CB         -4.0108  -29.0280  -46.5882 C.3       14 UNK        -0.1800 
     82 C          -2.1568  -27.9312  -48.0043 C.2       14 UNK         0.5000 
     83 O          -2.3681  -28.7635  -48.8876 O.2       14 UNK        -0.5000 
     84 N          -1.1072  -27.1013  -48.0167 N.am      15 UNK        -0.5000 
     85 CA         -0.0565  -27.0405  -49.0310 C.3       15 UNK         0.1400 
     86 CB          1.2958  -26.8358  -48.3243 C.3       15 UNK        -0.1800 
     87 C          -0.3640  -25.9378  -50.0647 C.2       15 UNK         0.5000 
     88 O           0.4899  -25.0966  -50.3569 O.2       15 UNK        -0.5000 
     89 N          -1.6051  -25.9458  -50.5767 N.am      16 UNK        -0.5000 
     90 CA         -2.1464  -25.0967  -51.6491 C.3       16 UNK         0.1400 
     91 CB         -1.5167  -25.5002  -52.9987 C.3       16 UNK        -0.1800 
     92 C          -2.0386  -23.5759  -51.3959 C.2       16 UNK         0.5000 
     93 O          -2.0008  -22.8015  -52.3534 O.2       16 UNK        -0.5000 
     94 N          -1.9426  -23.1755  -50.1177 N.am      17 UNK        -0.5000 
     95 CA         -1.7147  -21.8042  -49.6403 C.3       17 UNK         0.1400 
     96 CB         -2.9635  -20.9384  -49.8826 C.3       17 UNK        -0.1800 
     97 C          -0.4384  -21.1560  -50.2176 C.2       17 UNK         0.5000 
     98 O          -0.4068  -19.9440  -50.4289 O.2       17 UNK        -0.5000 
     99 N           0.5684  -21.9863  -50.5395 N.am      18 UNK        -0.5000 
    100 CA         1.8025  -21.6297  -51.2526 C.3       18 UNK         0.1400 
    101 CB         2.6998  -20.7435  -50.3623 C.3       18 UNK        -0.1800 
    102 C          1.5572  -21.0049  -52.6497 C.2       18 UNK         0.5000 
    103 O          2.4402  -20.3264  -53.1766 O.2       18 UNK        -0.5000 
    104 N          0.3585  -21.2318  -53.2127 N.am      19 UNK        -0.5000 
    105 CA        -0.1882  -20.6542  -54.4424 C.3       19 UNK         0.1400 
    106 CB         0.5946  -21.1490  -55.6762 C.3       19 UNK        -0.1800 
    107 C         -0.3415  -19.1157  -54.4043 C.2       19 UNK         0.5000 
    108 O         -0.3611  -18.4860  -55.4639 O.2       19 UNK        -0.5000 
    109 N         -0.4613  -18.5272  -53.2040 N.am      20 UNK        -0.5000 
    110 CA        -0.6217  -17.0882  -52.9895 C.3       20 UNK         0.1400 
    111 CB        -0.4122  -16.7737  -51.5010 C.3       20 UNK        -0.1800 
    112 C         -1.9970  -16.5960  -53.4740 C.2       20 UNK         0.5000 
    113 O         -2.9895  -16.7658  -52.7670 O.2       20 UNK        -0.5000 
    114 N         -2.0340  -16.0288  -54.6870 N.am      21 UNK        -0.5000 
    115 CA        -3.1945  -15.5100  -55.4259 C.3       21 UNK         0.1400 
    116 CB        -3.9208  -14.3968  -54.6450 C.3       21 UNK        -0.1800 
    117 C         -4.1768  -16.5990  -55.9038 C.2       21 UNK         0.5000 
    118 O         -4.5625  -16.5882  -57.0733 O.2       21 UNK        -0.5000 
    119 N         -4.5432  -17.5273  -55.0143 N.am      22 UNK        -0.5000 
    120 CA        -5.3820  -18.7031  -55.2941 C.3       22 UNK         0.1400 
    121 C         -4.6299  -19.9080  -55.9370 C.2       22 UNK         0.5000 
    122 N         -3.3352  -19.8216  -56.2184 N.am      22 UNK        -0.7600 
    123 O         -5.2404  -20.9358  -56.2181 O.2       22 UNK        -0.5000 
    124 C124       -6.2364  -19.1116  -54.0643 C.3       23 UNK        -0.0398 
    125 S125       -5.2840  -19.4260  -52.5346 S.3       23 UNK        -0.2404 
    126 C126       -5.9196  -18.0938  -51.4691 C.3       23 UNK        -0.0205 
    127 H127       -3.6391  -11.7637  -52.4712 H         1 UNK         0.0600 
    128 H128       -1.9142  -11.8581  -52.8383 H         1 UNK         0.0600 
    129 H129       -2.6358  -10.3132  -52.3743 H         1 UNK         0.0600 
    130 H130       -4.1355  -12.5618  -50.4560 H         1 UNK         0.3000 
    131 H131       -2.0837  -13.0277  -48.4674 H         1 UNK         0.0600 
    132 H132       -5.0275  -13.7236  -48.0834 H         1 UNK         0.0800 
    133 H133       -4.0641  -14.6058  -49.2169 H         1 UNK         0.0800 
    134 H134       -2.0583  -17.0407  -47.2256 H         1 UNK         0.0800 
    135 H135       -2.1156  -16.1674  -48.7358 H         1 UNK         0.0800 
    136 H136       -3.8728  -16.6764  -50.3553 H         1 UNK         0.1150 
    137 H137       -6.7619  -19.7049  -49.4389 H         1 UNK         0.1150 
    138 H138       -4.0851  -18.3032  -46.3978 H         1 UNK         0.1150 
    139 H139       -5.9744  -19.7235  -45.7939 H         1 UNK         0.0800 
    140 H140       -7.1971  -20.1022  -46.9775 H         1 UNK         0.0800 
    141 H141       -3.8732  -21.1031  -45.2860 H         1 UNK         0.0800 
    142 H142       -3.2579  -20.8781  -46.9008 H         1 UNK         0.0800 
    143 H143       -3.1839  -23.4490  -47.1270 H         1 UNK         0.0600 
    144 H144       -1.2629  -21.7565  -45.9386 H         1 UNK         0.3000 
    145 H145        1.3459  -24.1902  -45.6166 H         1 UNK         0.0600 
    146 H146        2.5393  -22.5453  -47.0260 H         1 UNK         0.0600 
    147 H147        1.4169  -23.4786  -48.0031 H         1 UNK         0.0600 
    148 H148        1.0141  -21.8344  -47.5406 H         1 UNK         0.0600 
    149 H149        1.3297  -21.4031  -45.0742 H         1 UNK         0.3000 
    150 H150        0.0390  -21.6266  -41.7157 H         1 UNK         0.0600 
    151 H151        2.5007  -22.0139  -41.6163 H         1 UNK         0.0600 
    152 H152        2.1110  -20.3234  -41.3357 H         1 UNK         0.0600 
    153 H153        2.7545  -20.8325  -42.8943 H         1 UNK         0.0600 
    154 H154        0.7541  -19.3646  -43.2753 H         1 UNK         0.3000 
    155 H155       -2.4280  -18.8802  -44.8748 H         1 UNK         0.0600 
    156 H156       -0.8648  -17.3038  -42.7659 H         1 UNK         0.0600 
    157 H157       -2.5627  -17.7512  -42.6744 H         1 UNK         0.0600 
    158 H158       -2.0205  -16.6229  -43.9093 H         1 UNK         0.0600 
    159 H159        0.0241  -17.4646  -45.1389 H         1 UNK         0.3000 
    160 H160        1.4394  -19.4904  -47.7368 H         1 UNK         0.0600 
    161 H161        1.4975  -17.3004  -48.8681 H         1 UNK         0.0600 
    162 H162        0.3013  -16.6536  -47.7435 H         1 UNK         0.0600 
    163 H163       -0.1446  -17.9309  -48.8514 H         1 UNK         0.0600 
    164 H164        2.2238  -17.1016  -46.2896 H         1 UNK         0.3000 
    165 H165        4.1456  -18.7865  -43.8129 H         1 UNK         0.0600 
    166 H166        5.9497  -17.3763  -44.7632 H         1 UNK         0.0600 
    167 H167        5.6387  -18.7480  -45.8150 H         1 UNK         0.0600 
    168 H168        5.0334  -17.1552  -46.2542 H         1 UNK         0.0600 
    169 H169        3.7591  -16.0170  -44.4520 H         1 UNK         0.3000 
    170 H170        0.8211  -15.5220  -42.4958 H         1 UNK         0.0600 
    171 H171        2.6909  -15.5103  -40.8337 H         1 UNK         0.0600 
    172 H172        3.7169  -14.6607  -41.9841 H         1 UNK         0.0600 
    173 H173        2.2689  -13.8834  -41.3441 H         1 UNK         0.0600 
    174 H174        2.3066  -13.5738  -43.8057 H         1 UNK         0.3000 
    175 H175        2.2843  -13.1447  -46.1845 H         1 UNK         0.0600 
    176 H176       -0.2519  -14.2396  -47.5079 H         1 UNK         0.0600 
    177 H177        0.7838  -12.9894  -48.1930 H         1 UNK         0.0600 
    178 H178        1.4155  -14.6053  -47.9435 H         1 UNK         0.0600 
    179 H179       -0.4995  -12.2600  -46.0059 H         1 UNK         0.3000 
    180 H180       -0.7902  -10.5622  -43.6759 H         1 UNK         0.0600 
    181 H181        1.2858   -8.5933  -44.7933 H         1 UNK         0.0600 
    182 H182        1.1780   -9.1301  -43.1199 H         1 UNK         0.0600 
    183 H183       -0.1051   -8.1520  -43.8047 H         1 UNK         0.0600 
    184 H184       -0.5334  -10.2419  -46.5531 H         1 UNK         0.3000 
    185 H185       -3.8685   -9.0068  -46.8891 H         1 UNK         0.0600 
    186 H186       -2.2882   -7.1092  -47.2641 H         1 UNK         0.0600 
    187 H187       -1.1565   -8.1926  -48.0657 H         1 UNK         0.0600 
    188 H188       -2.7380   -7.8785  -48.7780 H         1 UNK         0.0600 
    189 H189       -2.0549  -10.4215  -48.6461 H         1 UNK         0.3000 
    190 H190       -2.5461  -22.7311  -43.6652 H         1 UNK         0.3000 
    191 H191       -4.4994  -24.4609  -42.5576 H         1 UNK         0.0600 
    192 H192       -3.1525  -24.2187  -40.4762 H         1 UNK         0.0600 
    193 H193       -3.3531  -22.6672  -41.2775 H         1 UNK         0.0600 
    194 H194       -1.8209  -23.5285  -41.3946 H         1 UNK         0.0600 
    195 H195       -1.1590  -25.1018  -43.6140 H         1 UNK         0.3000 
    196 H196       -1.1079  -27.8699  -42.7669 H         1 UNK         0.0600 
    197 H197        1.0447  -27.8884  -43.9920 H         1 UNK         0.0600 
    198 H198        0.9409  -26.4472  -42.9934 H         1 UNK         0.0600 
    199 H199        0.6748  -26.3384  -44.7329 H         1 UNK         0.0600 
    200 H200       -2.7629  -26.3788  -45.3023 H         1 UNK         0.3000 
    201 H201       -3.8247  -26.9680  -47.1239 H         1 UNK         0.0600 
    202 H202       -4.6996  -28.8786  -45.7566 H         1 UNK         0.0600 
    203 H203       -3.4012  -29.9043  -46.3668 H         1 UNK         0.0600 
    204 H204       -4.6120  -29.2640  -47.4669 H         1 UNK         0.0600 
    205 H205       -1.0525  -26.3860  -47.2918 H         1 UNK         0.3000 
    206 H206       -0.0075  -27.9860  -49.5744 H         1 UNK         0.0600 
    207 H207        1.4966  -27.6447  -47.6217 H         1 UNK         0.0600 
    208 H208        2.1166  -26.8182  -49.0423 H         1 UNK         0.0600 
    209 H209        1.3231  -25.8992  -47.7680 H         1 UNK         0.0600 
    210 H210       -2.2280  -26.6707  -50.2464 H         1 UNK         0.3000 
    211 H211       -3.2137  -25.3153  -51.7029 H         1 UNK         0.0600 
    212 H212       -0.4550  -25.2533  -53.0369 H         1 UNK         0.0600 
    213 H213       -2.0021  -24.9885  -53.8307 H         1 UNK         0.0600 
    214 H214       -1.6185  -26.5706  -53.1776 H         1 UNK         0.0600 
    215 H215       -1.9530  -23.8945  -49.4091 H         1 UNK         0.3000 
    216 H216       -1.5563  -21.8670  -48.5675 H         1 UNK         0.0600 
    217 H217       -2.8709  -19.9774  -49.3766 H         1 UNK         0.0600 
    218 H218       -3.8649  -21.4194  -49.5055 H         1 UNK         0.0600 
    219 H219       -3.1119  -20.7341  -50.9427 H         1 UNK         0.0600 
    220 H220        0.4396  -22.9801  -50.3768 H         1 UNK         0.3000 
    221 H221        2.3306  -22.5678  -51.4287 H         1 UNK         0.0600 
    222 H222        2.2654  -19.7557  -50.2054 H         1 UNK         0.0600 
    223 H223        2.8608  -21.1982  -49.3851 H         1 UNK         0.0600 
    224 H224        3.6810  -20.5989  -50.8153 H         1 UNK         0.0600 
    225 H225       -0.3059  -21.8005  -52.6961 H         1 UNK         0.3000 
    226 H226       -1.2026  -21.0474  -54.5216 H         1 UNK         0.0600 
    227 H227        0.0959  -20.8559  -56.6007 H         1 UNK         0.0600 
    228 H228        1.6043  -20.7390  -55.7068 H         1 UNK         0.0600 
    229 H229        0.6725  -22.2362  -55.6833 H         1 UNK         0.0600 
    230 H230       -0.4604  -19.1047  -52.3695 H         1 UNK         0.3000 
    231 H231        0.1566  -16.5678  -53.5514 H         1 UNK         0.0600 
    232 H232        0.5808  -17.0808  -51.1737 H         1 UNK         0.0600 
    233 H233       -1.1463  -17.2872  -50.8789 H         1 UNK         0.0600 
    234 H234       -0.5069  -15.7047  -51.3067 H         1 UNK         0.0600 
    235 H235       -1.1691  -16.0194  -55.2110 H         1 UNK         0.3000 
    236 H236       -2.7807  -15.0517  -56.3255 H         1 UNK         0.0600 
    237 H237       -3.2308  -13.6029  -54.3602 H         1 UNK         0.0600 
    238 H238       -4.7031  -13.9440  -55.2552 H         1 UNK         0.0600 
    239 H239       -4.3955  -14.7711  -53.7378 H         1 UNK         0.0600 
    240 H240       -4.1590  -17.4615  -54.0745 H         1 UNK         0.3000 
    241 H241       -6.0983  -18.4045  -56.0618 H         1 UNK         0.0600 
    242 H242       -2.8804  -20.6019  -56.6639 H         1 UNK         0.3800 
    243 H243       -2.8199  -18.9760  -56.0316 H         1 UNK         0.3800 
    244 H244       -6.9670  -18.3250  -53.8727 H         1 UNK         0.0800 
    245 H245       -6.8316  -19.9993  -54.2842 H         1 UNK         0.0800 
    246 H246       -7.0090  -18.1428  -51.4379 H         1 UNK         0.0800 
    247 H247       -5.6663  -17.1298  -51.9135 H         1 UNK         0.0800 
@<TRIPOS>BOND
     1    1    2 1    
     2    1  127 1    
     3    1  128 1    
     4    1  129 1    
     5    2    3 2    
     6    2    4 am   BACKBONE|DICT|INTERRES
     7    4    5 1    
     8    4  130 1    
     9    5    6 1    
    10    5   65 1    
    11    5  131 1    
    12    6    7 1    
    13    6  132 1    
    14    6  133 1    
    15    7    8 1    
    16    8    9 1    
    17    8  134 1    
    18    8  135 1    
    19    9   10 ar   
    20    9   14 ar   
    21   10   11 ar   
    22   10  136 1    
    23   11   12 ar   
    24   11  126 1    
    25   12   13 ar   
    26   12  137 1    
    27   13   14 ar   
    28   13   15 1    
    29   14  138 1    
    30   15   16 1    
    31   15  139 1    
    32   15  140 1    
    33   16   17 1    
    34   17   18 1    
    35   17  141 1    
    36   17  142 1    
    37   18   19 1    
    38   18   67 1    
    39   18  143 1    
    40   19   20 am   BACKBONE|DICT|INTERRES
    41   19  144 1    
    42   20   21 2    
    43   20   22 1    
    44   22   23 1    
    45   22   24 1    
    46   22  145 1    
    47   23  146 1    
    48   23  147 1    
    49   23  148 1    
    50   24   25 am   BACKBONE|DICT|INTERRES
    51   24  149 1    
    52   25   26 2    
    53   25   27 1    
    54   27   28 1    
    55   27   29 1    
    56   27  150 1    
    57   28  151 1    
    58   28  152 1    
    59   28  153 1    
    60   29   30 am   BACKBONE|DICT|INTERRES
    61   29  154 1    
    62   30   31 2    
    63   30   32 1    
    64   32   33 1    
    65   32   34 1    
    66   32  155 1    
    67   33  156 1    
    68   33  157 1    
    69   33  158 1    
    70   34   35 am   BACKBONE|DICT|INTERRES
    71   34  159 1    
    72   35   36 2    
    73   35   37 1    
    74   37   38 1    
    75   37   39 1    
    76   37  160 1    
    77   38  161 1    
    78   38  162 1    
    79   38  163 1    
    80   39   40 am   BACKBONE|DICT|INTERRES
    81   39  164 1    
    82   40   41 2    
    83   40   42 1    
    84   42   43 1    
    85   42   44 1    
    86   42  165 1    
    87   43  166 1    
    88   43  167 1    
    89   43  168 1    
    90   44   45 am   BACKBONE|DICT|INTERRES
    91   44  169 1    
    92   45   46 2    
    93   45   47 1    
    94   47   48 1    
    95   47   49 1    
    96   47  170 1    
    97   48  171 1    
    98   48  172 1    
    99   48  173 1    
   100   49   50 am   BACKBONE|DICT|INTERRES
   101   49  174 1    
   102   50   51 2    
   103   50   52 1    
   104   52   53 1    
   105   52   54 1    
   106   52  175 1    
   107   53  176 1    
   108   53  177 1    
   109   53  178 1    
   110   54   55 am   BACKBONE|DICT|INTERRES
   111   54  179 1    
   112   55   56 2    
   113   55   57 1    
   114   57   58 1    
   115   57   59 1    
   116   57  180 1    
   117   58  181 1    
   118   58  182 1    
   119   58  183 1    
   120   59   60 am   BACKBONE|DICT|INTERRES
   121   59  184 1    
   122   60   61 2    
   123   60   62 1    
   124   62   63 1    
   125   62   64 1    
   126   62  185 1    
   127   63  186 1    
   128   63  187 1    
   129   63  188 1    
   130   64   65 am   BACKBONE|DICT|INTERRES
   131   64  189 1    
   132   65   66 2    
   133   67   68 2    
   134   67   69 am   BACKBONE|DICT|INTERRES
   135   69   70 1    
   136   69  190 1    
   137   70   71 1    
   138   70   72 1    
   139   70  191 1    
   140   71  192 1    
   141   71  193 1    
   142   71  194 1    
   143   72   73 2    
   144   72   74 am   BACKBONE|DICT|INTERRES
   145   74   75 1    
   146   74  195 1    
   147   75   76 1    
   148   75   77 1    
   149   75  196 1    
   150   76  197 1    
   151   76  198 1    
   152   76  199 1    
   153   77   78 2    
   154   77   79 am   BACKBONE|DICT|INTERRES
   155   79   80 1    
   156   79  200 1    
   157   80   81 1    
   158   80   82 1    
   159   80  201 1    
   160   81  202 1    
   161   81  203 1    
   162   81  204 1    
   163   82   83 2    
   164   82   84 am   BACKBONE|DICT|INTERRES
   165   84   85 1    
   166   84  205 1    
   167   85   86 1    
   168   85   87 1    
   169   85  206 1    
   170   86  207 1    
   171   86  208 1    
   172   86  209 1    
   173   87   88 2    
   174   87   89 am   BACKBONE|DICT|INTERRES
   175   89   90 1    
   176   89  210 1    
   177   90   91 1    
   178   90   92 1    
   179   90  211 1    
   180   91  212 1    
   181   91  213 1    
   182   91  214 1    
   183   92   93 2    
   184   92   94 am   BACKBONE|DICT|INTERRES
   185   94   95 1    
   186   94  215 1    
   187   95   96 1    
   188   95   97 1    
   189   95  216 1    
   190   96  217 1    
   191   96  218 1    
   192   96  219 1    
   193   97   98 2    
   194   97   99 am   BACKBONE|DICT|INTERRES
   195   99  100 1    
   196   99  220 1    
   197  100  101 1    
   198  100  102 1    
   199  100  221 1    
   200  101  222 1    
   201  101  223 1    
   202  101  224 1    
   203  102  103 2    
   204  102  104 am   BACKBONE|DICT|INTERRES
   205  104  105 1    
   206  104  225 1    
   207  105  106 1    
   208  105  107 1    
   209  105  226 1    
   210  106  227 1    
   211  106  228 1    
   212  106  229 1    
   213  107  108 2    
   214  107  109 am   BACKBONE|DICT|INTERRES
   215  109  110 1    
   216  109  230 1    
   217  110  111 1    
   218  110  112 1    
   219  110  231 1    
   220  111  232 1    
   221  111  233 1    
   222  111  234 1    
   223  112  113 2    
   224  112  114 am   BACKBONE|DICT|INTERRES
   225  114  115 1    
   226  114  235 1    
   227  115  116 1    
   228  115  117 1    
   229  115  236 1    
   230  116  237 1    
   231  116  238 1    
   232  116  239 1    
   233  117  118 2    
   234  117  119 am   BACKBONE|DICT|INTERRES
   235  119  120 1    
   236  119  240 1    
   237  120  121 1    
   238  120  124 1    
   239  120  241 1    
   240  121  122 am   BACKBONE|DICT|INTERRES
   241  121  123 2    
   242  122  242 1    
   243  122  243 1    
   244  124  125 1    
   245  124  244 1    
   246  124  245 1    
   247  125  126 1    
   248  126  246 1    
   249  126  247 1    
@<TRIPOS>SUBSTRUCTURE
     1 UNK         1 GROUP             0       ****    0 ROOT    
