@<TRIPOS>MOLECULE
3R540
247   249    1
SMALL
USER_CHARGES


@<TRIPOS>ATOM
      1 CA          3.6772  -16.4660  -48.6146 C.3       0 UNK        -0.1800 
      2 C           2.1923  -16.6345  -48.3344 C.2       0 UNK         0.5000 
      3 O           1.8202  -17.3885  -47.4391 O.2       0 UNK        -0.5000 
      4 N           1.3394  -15.9603  -49.1130 N.am      1 UNK        -0.5000 
      5 CA         -0.1191  -15.9476  -48.9439 C.3       1 UNK         0.1400 
      6 C6         -0.8823  -15.7023  -50.2719 C.3       23 UNK        -0.0398 
      7 S7         -0.1211  -14.4426  -51.3555 S.3       23 UNK        -0.2404 
      8 C8         -0.5345  -15.1000  -53.0083 C.3       23 UNK        -0.0205 
      9 C9          0.2785  -16.3019  -53.5009 C.ar      23 UNK        -0.0193 
     10 C10         0.1640  -16.6498  -54.8493 C.ar      23 UNK        -0.1150 
     11 C11         0.8526  -17.7455  -55.3747 C.ar      23 UNK        -0.0193 
     12 C12         1.6491  -18.5245  -54.5303 C.ar      23 UNK        -0.1150 
     13 C13         1.7717  -18.2001  -53.1754 C.ar      23 UNK        -0.0193 
     14 C14         1.1043  -17.0782  -52.6747 C.ar      23 UNK        -0.1150 
     15 C15         2.6358  -19.0532  -52.2554 C.3       23 UNK        -0.0205 
     16 S16         1.7082  -20.4454  -51.5283 S.3       23 UNK        -0.2404 
     17 C17         0.7780  -19.6217  -50.1937 C.3       23 UNK        -0.0398 
     18 CA          0.0703  -20.6323  -49.2608 C.3       11 UNK         0.1400 
     19 N           1.0046  -21.4104  -48.4420 N.am      11 UNK        -0.5000 
     20 C           0.6565  -22.5143  -47.7657 C.2       10 UNK         0.5000 
     21 O          -0.4777  -22.9901  -47.7729 O.2       10 UNK        -0.5000 
     22 CA          1.7444  -23.1764  -46.9028 C.3       10 UNK         0.1400 
     23 CB          2.6904  -24.0167  -47.7740 C.3       10 UNK        -0.1800 
     24 N           2.5260  -22.2282  -46.1047 N.am      10 UNK        -0.5000 
     25 C           2.0150  -21.3992  -45.1848 C.2       9 UNK         0.5000 
     26 O           0.8079  -21.2674  -44.9729 O.2       9 UNK        -0.5000 
     27 CA          3.0245  -20.5457  -44.3985 C.3       9 UNK         0.1400 
     28 CB          3.2651  -19.2145  -45.1189 C.3       9 UNK        -0.1800 
     29 N           2.5458  -20.2694  -43.0446 N.am      9 UNK        -0.5000 
     30 C           2.5298  -21.1646  -42.0485 C.2       8 UNK         0.5000 
     31 O           2.9894  -22.3036  -42.1467 O.2       8 UNK        -0.5000 
     32 CA          1.9150  -20.7123  -40.7096 C.3       8 UNK         0.1400 
     33 CB          3.0125  -20.2266  -39.7499 C.3       8 UNK        -0.1800 
     34 N           0.9092  -19.6563  -40.8446 N.am      8 UNK        -0.5000 
     35 C          -0.3269  -19.8385  -41.3299 C.2       7 UNK         0.5000 
     36 O          -0.7355  -20.9125  -41.7708 O.2       7 UNK        -0.5000 
     37 CA         -1.2610  -18.6112  -41.2628 C.3       7 UNK         0.1400 
     38 CB         -2.7236  -18.9394  -41.6266 C.3       7 UNK        -0.1800 
     39 N          -1.1886  -17.9178  -39.9698 N.am      7 UNK        -0.5000 
     40 C          -1.4295  -18.4335  -38.7511 C.2       6 UNK         0.5000 
     41 O          -1.7879  -19.5951  -38.5546 O.2       6 UNK        -0.5000 
     42 CA         -1.2183  -17.5086  -37.5327 C.3       6 UNK         0.1400 
     43 CB          0.1264  -17.8226  -36.8575 C.3       6 UNK        -0.1800 
     44 N          -1.2535  -16.0830  -37.8610 N.am      6 UNK        -0.5000 
     45 C          -2.3484  -15.4032  -38.2279 C.2       5 UNK         0.5000 
     46 O          -3.4810  -15.8866  -38.2301 O.2       5 UNK        -0.5000 
     47 CA         -2.1463  -13.9447  -38.6938 C.3       5 UNK         0.1400 
     48 CB         -2.5465  -12.9674  -37.5775 C.3       5 UNK        -0.1800 
     49 N          -0.7890  -13.6110  -39.1504 N.am      5 UNK        -0.5000 
     50 C          -0.1285  -14.2129  -40.1484 C.2       4 UNK         0.5000 
     51 O          -0.5541  -15.2020  -40.7538 O.2       4 UNK        -0.5000 
     52 CA          1.2543  -13.6442  -40.4995 C.3       4 UNK         0.1400 
     53 CB          2.2961  -14.0079  -39.4278 C.3       4 UNK        -0.1800 
     54 N           1.6521  -14.2233  -41.7736 N.am      4 UNK        -0.5000 
     55 C           2.3196  -13.6193  -42.7587 C.2       3 UNK         0.5000 
     56 O           2.7989  -12.4872  -42.6728 O.2       3 UNK        -0.5000 
     57 CA          2.4711  -14.4116  -44.0761 C.3       3 UNK         0.1400 
     58 CB          2.0720  -15.8989  -43.9655 C.3       3 UNK        -0.1800 
     59 N           1.7530  -13.7958  -45.1963 N.am      3 UNK        -0.5000 
     60 C           0.4635  -13.4221  -45.2408 C.2       2 UNK         0.5000 
     61 O          -0.3286  -13.5166  -44.3032 O.2       2 UNK        -0.5000 
     62 CA         -0.0286  -12.8890  -46.5963 C.3       2 UNK         0.1400 
     63 CB          0.6564  -11.5630  -46.9671 C.3       2 UNK        -0.1800 
     64 N           0.1992  -13.8744  -47.6526 N.am      2 UNK        -0.5000 
     65 C          -0.5636  -14.9601  -47.8472 C.2       1 UNK         0.5000 
     66 O          -1.5843  -15.2048  -47.2040 O.2       1 UNK        -0.5000 
     67 C          -0.9989  -19.9405  -48.3920 C.2       11 UNK         0.5000 
     68 O          -2.1719  -19.9700  -48.7601 O.2       11 UNK        -0.5000 
     69 N          -0.6010  -19.3634  -47.2482 N.am      12 UNK        -0.5000 
     70 CA         -1.5124  -18.7317  -46.2890 C.3       12 UNK         0.1400 
     71 CB         -0.7152  -18.0337  -45.1774 C.3       12 UNK        -0.1800 
     72 C          -2.5247  -19.7266  -45.6965 C.2       12 UNK         0.5000 
     73 O          -3.7166  -19.4192  -45.6490 O.2       12 UNK        -0.5000 
     74 N          -2.0358  -20.9139  -45.3102 N.am      13 UNK        -0.5000 
     75 CA         -2.8412  -22.0389  -44.8353 C.3       13 UNK         0.1400 
     76 CB         -1.9147  -23.1732  -44.3713 C.3       13 UNK        -0.1800 
     77 C          -3.8283  -22.5512  -45.9004 C.2       13 UNK         0.5000 
     78 O          -4.9873  -22.8164  -45.5808 O.2       13 UNK        -0.5000 
     79 N          -3.3708  -22.6335  -47.1563 N.am      14 UNK        -0.5000 
     80 CA         -4.1439  -23.0573  -48.3240 C.3       14 UNK         0.1400 
     81 CB         -3.1815  -23.6475  -49.3646 C.3       14 UNK        -0.1800 
     82 C          -5.0260  -21.9359  -48.9158 C.2       14 UNK         0.5000 
     83 O          -5.1018  -21.7970  -50.1395 O.2       14 UNK        -0.5000 
     84 N          -5.6982  -21.1764  -48.0397 N.am      15 UNK        -0.5000 
     85 CA         -6.6880  -20.1370  -48.3383 C.3       15 UNK         0.1400 
     86 CB         -7.9706  -20.7797  -48.9091 C.3       15 UNK        -0.1800 
     87 C          -6.1379  -19.0059  -49.2315 C.2       15 UNK         0.5000 
     88 O          -6.7892  -18.6146  -50.2003 O.2       15 UNK        -0.5000 
     89 N          -4.9338  -18.5172  -48.8993 N.am      16 UNK        -0.5000 
     90 CA         -4.1739  -17.4999  -49.6385 C.3       16 UNK         0.1400 
     91 CB         -4.8795  -16.1282  -49.5785 C.3       16 UNK        -0.1800 
     92 C          -3.8451  -17.9606  -51.0760 C.2       16 UNK         0.5000 
     93 O          -4.0928  -17.2387  -52.0417 O.2       16 UNK        -0.5000 
     94 N          -3.3112  -19.1858  -51.1609 N.am      17 UNK        -0.5000 
     95 CA         -2.9102  -19.9586  -52.3402 C.3       17 UNK         0.1400 
     96 CB         -1.9060  -19.1818  -53.2113 C.3       17 UNK        -0.1800 
     97 C          -4.0685  -20.5073  -53.1924 C.2       17 UNK         0.5000 
     98 O          -3.7955  -21.2547  -54.1329 O.2       17 UNK        -0.5000 
     99 N          -5.3229  -20.1673  -52.8661 N.am      18 UNK        -0.5000 
    100 CA        -6.5089  -20.5408  -53.6372 C.3       18 UNK         0.1400 
    101 CB        -7.7240  -19.7507  -53.1315 C.3       18 UNK        -0.1800 
    102 C         -6.8074  -22.0497  -53.6233 C.2       18 UNK         0.5000 
    103 O         -7.2393  -22.5826  -54.6461 O.2       18 UNK        -0.5000 
    104 N         -6.5641  -22.7160  -52.4856 N.am      19 UNK        -0.5000 
    105 CA        -6.7704  -24.1594  -52.3406 C.3       19 UNK         0.1400 
    106 CB        -7.0258  -24.5013  -50.8649 C.3       19 UNK        -0.1800 
    107 C         -5.5850  -24.9710  -52.8938 C.2       19 UNK         0.5000 
    108 O         -5.7802  -26.1033  -53.3368 O.2       19 UNK        -0.5000 
    109 N         -4.3828  -24.3795  -52.8658 N.am      20 UNK        -0.5000 
    110 CA        -3.1535  -24.9782  -53.3888 C.3       20 UNK         0.1400 
    111 CB        -1.9416  -24.3486  -52.6800 C.3       20 UNK        -0.1800 
    112 C         -3.0038  -24.8109  -54.9102 C.2       20 UNK         0.5000 
    113 O         -2.2278  -25.5494  -55.5176 O.2       20 UNK        -0.5000 
    114 N         -3.6792  -23.8023  -55.4828 N.am      21 UNK        -0.5000 
    115 CA        -3.5103  -23.2899  -56.8483 C.3       21 UNK         0.1400 
    116 CB        -4.0353  -24.3040  -57.8853 C.3       21 UNK        -0.1800 
    117 C         -2.0535  -22.8438  -57.1067 C.2       21 UNK         0.5000 
    118 O         -1.4854  -23.1453  -58.1576 O.2       21 UNK        -0.5000 
    119 N         -1.4690  -22.1846  -56.0955 N.am      22 UNK        -0.5000 
    120 CA        -0.0455  -21.8131  -55.9797 C.3       22 UNK         0.1400 
    121 C          0.9370  -23.0105  -55.7812 C.2       22 UNK         0.5000 
    122 N          0.4849  -24.2515  -55.6421 N.am      22 UNK        -0.7600 
    123 O          2.1464  -22.8079  -55.7178 O.2       22 UNK        -0.5000 
    124 C124        0.4423  -20.8582  -57.1050 C.3       23 UNK        -0.0398 
    125 S125       -0.5232  -19.3119  -57.2134 S.3       23 UNK        -0.2404 
    126 C126        0.7469  -18.0561  -56.8602 C.3       23 UNK        -0.0205 
    127 H127        4.1211  -17.4297  -48.8640 H         1 UNK         0.0600 
    128 H128        4.1814  -16.0756  -47.7306 H         1 UNK         0.0600 
    129 H129        3.8590  -15.7815  -49.4434 H         1 UNK         0.0600 
    130 H130        1.6925  -15.3668  -49.8513 H         1 UNK         0.3000 
    131 H131       -0.4250  -16.9334  -48.5916 H         1 UNK         0.0600 
    132 H132       -1.9170  -15.4112  -50.0887 H         1 UNK         0.0800 
    133 H133       -0.9506  -16.6426  -50.8185 H         1 UNK         0.0800 
    134 H134       -0.4100  -14.2831  -53.7208 H         1 UNK         0.0800 
    135 H135       -1.5937  -15.3624  -53.0279 H         1 UNK         0.0800 
    136 H136       -0.4654  -16.0579  -55.4994 H         1 UNK         0.1150 
    137 H137        2.1765  -19.3807  -54.9262 H         1 UNK         0.1150 
    138 H138        1.2254  -16.8357  -51.6329 H         1 UNK         0.1150 
    139 H139        3.4778  -19.4559  -52.8204 H         1 UNK         0.0800 
    140 H140        3.0713  -18.4427  -51.4629 H         1 UNK         0.0800 
    141 H141        0.0561  -18.9471  -50.6531 H         1 UNK         0.0800 
    142 H142        1.4652  -19.0003  -49.6236 H         1 UNK         0.0800 
    143 H143       -0.4681  -21.3382  -49.8978 H         1 UNK         0.0600 
    144 H144        1.9564  -21.0799  -48.3864 H         1 UNK         0.3000 
    145 H145        1.2402  -23.8492  -46.2059 H         1 UNK         0.0600 
    146 H146        3.3973  -24.5770  -47.1619 H         1 UNK         0.0600 
    147 H147        2.1326  -24.7416  -48.3686 H         1 UNK         0.0600 
    148 H148        3.2621  -23.3961  -48.4652 H         1 UNK         0.0600 
    149 H149        3.5275  -22.2597  -46.2295 H         1 UNK         0.3000 
    150 H150        3.9722  -21.0843  -44.3320 H         1 UNK         0.0600 
    151 H151        3.6634  -19.3721  -46.1219 H         1 UNK         0.0600 
    152 H152        3.9768  -18.5898  -44.5791 H         1 UNK         0.0600 
    153 H153        2.3353  -18.6576  -45.2213 H         1 UNK         0.0600 
    154 H154        2.1102  -19.3740  -42.8895 H         1 UNK         0.3000 
    155 H155        1.4340  -21.5840  -40.2606 H         1 UNK         0.0600 
    156 H156        3.5214  -19.3419  -40.1344 H         1 UNK         0.0600 
    157 H157        3.7675  -20.9989  -39.5967 H         1 UNK         0.0600 
    158 H158        2.6000  -19.9793  -38.7714 H         1 UNK         0.0600 
    159 H159        1.1542  -18.7482  -40.4791 H         1 UNK         0.3000 
    160 H160       -0.8893  -17.9058  -42.0071 H         1 UNK         0.0600 
    161 H161       -3.1591  -19.6658  -40.9401 H         1 UNK         0.0600 
    162 H162       -2.7921  -19.3575  -42.6313 H         1 UNK         0.0600 
    163 H163       -3.3439  -18.0434  -41.6056 H         1 UNK         0.0600 
    164 H164       -0.9275  -16.9373  -40.0314 H         1 UNK         0.3000 
    165 H165       -2.0184  -17.7162  -36.8190 H         1 UNK         0.0600 
    166 H166        0.9677  -17.6201  -37.5217 H         1 UNK         0.0600 
    167 H167        0.2619  -17.2303  -35.9524 H         1 UNK         0.0600 
    168 H168        0.1833  -18.8728  -36.5679 H         1 UNK         0.0600 
    169 H169       -0.3682  -15.5995  -37.8786 H         1 UNK         0.3000 
    170 H170       -2.8185  -13.7881  -39.5398 H         1 UNK         0.0600 
    171 H171       -1.8848  -13.0514  -36.7145 H         1 UNK         0.0600 
    172 H172       -2.5166  -11.9348  -37.9260 H         1 UNK         0.0600 
    173 H173       -3.5629  -13.1613  -37.2318 H         1 UNK         0.0600 
    174 H174       -0.3542  -12.8226  -38.6927 H         1 UNK         0.3000 
    175 H175        1.1699  -12.5591  -40.5890 H         1 UNK         0.0600 
    176 H176        2.3788  -15.0877  -39.2970 H         1 UNK         0.0600 
    177 H177        3.2825  -13.6282  -39.6949 H         1 UNK         0.0600 
    178 H178        2.0356  -13.5769  -38.4605 H         1 UNK         0.0600 
    179 H179        1.1988  -15.1067  -41.9695 H         1 UNK         0.3000 
    180 H180        3.5314  -14.3754  -44.3306 H         1 UNK         0.0600 
    181 H181        2.2615  -16.4063  -44.9096 H         1 UNK         0.0600 
    182 H182        1.0146  -16.0264  -43.7312 H         1 UNK         0.0600 
    183 H183        2.6543  -16.4130  -43.1998 H         1 UNK         0.0600 
    184 H184        2.3092  -13.6428  -46.0241 H         1 UNK         0.3000 
    185 H185       -1.1012  -12.6983  -46.5147 H         1 UNK         0.0600 
    186 H186        0.5130  -10.8186  -46.1828 H         1 UNK         0.0600 
    187 H187        1.7302  -11.6817  -47.1150 H         1 UNK         0.0600 
    188 H188        0.2379  -11.1504  -47.8853 H         1 UNK         0.0600 
    189 H189        1.0164  -13.7490  -48.2305 H         1 UNK         0.3000 
    190 H190        0.3805  -19.3626  -47.0073 H         1 UNK         0.3000 
    191 H191       -2.0787  -17.9672  -46.8244 H         1 UNK         0.0600 
    192 H192       -1.3846  -17.5438  -44.4695 H         1 UNK         0.0600 
    193 H193       -0.0670  -17.2615  -45.5891 H         1 UNK         0.0600 
    194 H194       -0.0964  -18.7341  -44.6167 H         1 UNK         0.0600 
    195 H195       -1.0291  -21.0613  -45.3415 H         1 UNK         0.3000 
    196 H196       -3.4197  -21.6945  -43.9758 H         1 UNK         0.0600 
    197 H197       -1.2944  -23.5465  -45.1866 H         1 UNK         0.0600 
    198 H198       -1.2487  -22.8389  -43.5762 H         1 UNK         0.0600 
    199 H199       -2.4899  -24.0141  -43.9824 H         1 UNK         0.0600 
    200 H200       -2.3954  -22.4142  -47.3294 H         1 UNK         0.3000 
    201 H201       -4.8205  -23.8572  -48.0170 H         1 UNK         0.0600 
    202 H202       -2.5174  -22.8855  -49.7742 H         1 UNK         0.0600 
    203 H203       -3.7325  -24.0914  -50.1918 H         1 UNK         0.0600 
    204 H204       -2.5645  -24.4355  -48.9327 H         1 UNK         0.0600 
    205 H205       -5.5569  -21.3800  -47.0573 H         1 UNK         0.3000 
    206 H206       -6.9458  -19.6738  -47.3850 H         1 UNK         0.0600 
    207 H207       -8.3579  -21.5477  -48.2396 H         1 UNK         0.0600 
    208 H208       -8.7580  -20.0364  -49.0382 H         1 UNK         0.0600 
    209 H209       -7.7947  -21.2420  -49.8809 H         1 UNK         0.0600 
    210 H210       -4.4524  -18.9463  -48.1192 H         1 UNK         0.3000 
    211 H211       -3.2187  -17.3970  -49.1223 H         1 UNK         0.0600 
    212 H212       -4.2784  -15.3540  -50.0554 H         1 UNK         0.0600 
    213 H213       -5.0466  -15.8182  -48.5470 H         1 UNK         0.0600 
    214 H214       -5.8445  -16.1417  -50.0854 H         1 UNK         0.0600 
    215 H215       -3.1537  -19.6642  -50.2757 H         1 UNK         0.3000 
    216 H216       -2.3922  -20.8340  -51.9463 H         1 UNK         0.0600 
    217 H217       -2.3607  -18.3152  -53.6911 H         1 UNK         0.0600 
    218 H218       -1.5030  -19.8089  -54.0055 H         1 UNK         0.0600 
    219 H219       -1.0630  -18.8328  -52.6220 H         1 UNK         0.0600 
    220 H220       -5.4713  -19.5812  -52.0554 H         1 UNK         0.3000 
    221 H221       -6.3284  -20.2507  -54.6745 H         1 UNK         0.0600 
    222 H222       -7.5330  -18.6774  -53.1437 H         1 UNK         0.0600 
    223 H223       -7.9908  -20.0330  -52.1129 H         1 UNK         0.0600 
    224 H224       -8.5966  -19.9343  -53.7596 H         1 UNK         0.0600 
    225 H225       -6.1680  -22.2218  -51.6892 H         1 UNK         0.3000 
    226 H226       -7.6614  -24.4477  -52.9028 H         1 UNK         0.0600 
    227 H227       -6.1417  -24.3380  -50.2516 H         1 UNK         0.0600 
    228 H228       -7.8376  -23.9016  -50.4529 H         1 UNK         0.0600 
    229 H229       -7.3062  -25.5494  -50.7544 H         1 UNK         0.0600 
    230 H230       -4.3189  -23.4428  -52.4951 H         1 UNK         0.3000 
    231 H231       -3.1536  -26.0492  -53.1751 H         1 UNK         0.0600 
    232 H232       -1.9456  -23.2607  -52.7556 H         1 UNK         0.0600 
    233 H233       -1.0041  -24.7020  -53.1113 H         1 UNK         0.0600 
    234 H234       -1.9174  -24.6180  -51.6258 H         1 UNK         0.0600 
    235 H235       -4.2223  -23.2034  -54.8729 H         1 UNK         0.3000 
    236 H236       -4.1250  -22.3913  -56.9197 H         1 UNK         0.0600 
    237 H237       -5.0648  -24.5892  -57.6691 H         1 UNK         0.0600 
    238 H238       -4.0205  -23.8776  -58.8889 H         1 UNK         0.0600 
    239 H239       -3.4331  -25.2126  -57.9076 H         1 UNK         0.0600 
    240 H240       -2.0467  -21.9657  -55.2931 H         1 UNK         0.3000 
    241 H241        0.0264  -21.2605  -55.0428 H         1 UNK         0.0600 
    242 H242        1.1493  -24.9965  -55.5059 H         1 UNK         0.3800 
    243 H243       -0.5000  -24.4751  -55.7142 H         1 UNK         0.3800 
    244 H244        1.4929  -20.6074  -56.9561 H         1 UNK         0.0800 
    245 H245        0.4008  -21.3540  -58.0751 H         1 UNK         0.0800 
    246 H246        1.7167  -18.3629  -57.2541 H         1 UNK         0.0800 
    247 H247        0.4862  -17.1481  -57.4062 H         1 UNK         0.0800 
@<TRIPOS>BOND
     1    1    2 1    
     2    1  127 1    
     3    1  128 1    
     4    1  129 1    
     5    2    3 2    
     6    2    4 am   BACKBONE|DICT|INTERRES
     7    4    5 1    
     8    4  130 1    
     9    5    6 1    
    10    5   65 1    
    11    5  131 1    
    12    6    7 1    
    13    6  132 1    
    14    6  133 1    
    15    7    8 1    
    16    8    9 1    
    17    8  134 1    
    18    8  135 1    
    19    9   10 ar   
    20    9   14 ar   
    21   10   11 ar   
    22   10  136 1    
    23   11   12 ar   
    24   11  126 1    
    25   12   13 ar   
    26   12  137 1    
    27   13   14 ar   
    28   13   15 1    
    29   14  138 1    
    30   15   16 1    
    31   15  139 1    
    32   15  140 1    
    33   16   17 1    
    34   17   18 1    
    35   17  141 1    
    36   17  142 1    
    37   18   19 1    
    38   18   67 1    
    39   18  143 1    
    40   19   20 am   BACKBONE|DICT|INTERRES
    41   19  144 1    
    42   20   21 2    
    43   20   22 1    
    44   22   23 1    
    45   22   24 1    
    46   22  145 1    
    47   23  146 1    
    48   23  147 1    
    49   23  148 1    
    50   24   25 am   BACKBONE|DICT|INTERRES
    51   24  149 1    
    52   25   26 2    
    53   25   27 1    
    54   27   28 1    
    55   27   29 1    
    56   27  150 1    
    57   28  151 1    
    58   28  152 1    
    59   28  153 1    
    60   29   30 am   BACKBONE|DICT|INTERRES
    61   29  154 1    
    62   30   31 2    
    63   30   32 1    
    64   32   33 1    
    65   32   34 1    
    66   32  155 1    
    67   33  156 1    
    68   33  157 1    
    69   33  158 1    
    70   34   35 am   BACKBONE|DICT|INTERRES
    71   34  159 1    
    72   35   36 2    
    73   35   37 1    
    74   37   38 1    
    75   37   39 1    
    76   37  160 1    
    77   38  161 1    
    78   38  162 1    
    79   38  163 1    
    80   39   40 am   BACKBONE|DICT|INTERRES
    81   39  164 1    
    82   40   41 2    
    83   40   42 1    
    84   42   43 1    
    85   42   44 1    
    86   42  165 1    
    87   43  166 1    
    88   43  167 1    
    89   43  168 1    
    90   44   45 am   BACKBONE|DICT|INTERRES
    91   44  169 1    
    92   45   46 2    
    93   45   47 1    
    94   47   48 1    
    95   47   49 1    
    96   47  170 1    
    97   48  171 1    
    98   48  172 1    
    99   48  173 1    
   100   49   50 am   BACKBONE|DICT|INTERRES
   101   49  174 1    
   102   50   51 2    
   103   50   52 1    
   104   52   53 1    
   105   52   54 1    
   106   52  175 1    
   107   53  176 1    
   108   53  177 1    
   109   53  178 1    
   110   54   55 am   BACKBONE|DICT|INTERRES
   111   54  179 1    
   112   55   56 2    
   113   55   57 1    
   114   57   58 1    
   115   57   59 1    
   116   57  180 1    
   117   58  181 1    
   118   58  182 1    
   119   58  183 1    
   120   59   60 am   BACKBONE|DICT|INTERRES
   121   59  184 1    
   122   60   61 2    
   123   60   62 1    
   124   62   63 1    
   125   62   64 1    
   126   62  185 1    
   127   63  186 1    
   128   63  187 1    
   129   63  188 1    
   130   64   65 am   BACKBONE|DICT|INTERRES
   131   64  189 1    
   132   65   66 2    
   133   67   68 2    
   134   67   69 am   BACKBONE|DICT|INTERRES
   135   69   70 1    
   136   69  190 1    
   137   70   71 1    
   138   70   72 1    
   139   70  191 1    
   140   71  192 1    
   141   71  193 1    
   142   71  194 1    
   143   72   73 2    
   144   72   74 am   BACKBONE|DICT|INTERRES
   145   74   75 1    
   146   74  195 1    
   147   75   76 1    
   148   75   77 1    
   149   75  196 1    
   150   76  197 1    
   151   76  198 1    
   152   76  199 1    
   153   77   78 2    
   154   77   79 am   BACKBONE|DICT|INTERRES
   155   79   80 1    
   156   79  200 1    
   157   80   81 1    
   158   80   82 1    
   159   80  201 1    
   160   81  202 1    
   161   81  203 1    
   162   81  204 1    
   163   82   83 2    
   164   82   84 am   BACKBONE|DICT|INTERRES
   165   84   85 1    
   166   84  205 1    
   167   85   86 1    
   168   85   87 1    
   169   85  206 1    
   170   86  207 1    
   171   86  208 1    
   172   86  209 1    
   173   87   88 2    
   174   87   89 am   BACKBONE|DICT|INTERRES
   175   89   90 1    
   176   89  210 1    
   177   90   91 1    
   178   90   92 1    
   179   90  211 1    
   180   91  212 1    
   181   91  213 1    
   182   91  214 1    
   183   92   93 2    
   184   92   94 am   BACKBONE|DICT|INTERRES
   185   94   95 1    
   186   94  215 1    
   187   95   96 1    
   188   95   97 1    
   189   95  216 1    
   190   96  217 1    
   191   96  218 1    
   192   96  219 1    
   193   97   98 2    
   194   97   99 am   BACKBONE|DICT|INTERRES
   195   99  100 1    
   196   99  220 1    
   197  100  101 1    
   198  100  102 1    
   199  100  221 1    
   200  101  222 1    
   201  101  223 1    
   202  101  224 1    
   203  102  103 2    
   204  102  104 am   BACKBONE|DICT|INTERRES
   205  104  105 1    
   206  104  225 1    
   207  105  106 1    
   208  105  107 1    
   209  105  226 1    
   210  106  227 1    
   211  106  228 1    
   212  106  229 1    
   213  107  108 2    
   214  107  109 am   BACKBONE|DICT|INTERRES
   215  109  110 1    
   216  109  230 1    
   217  110  111 1    
   218  110  112 1    
   219  110  231 1    
   220  111  232 1    
   221  111  233 1    
   222  111  234 1    
   223  112  113 2    
   224  112  114 am   BACKBONE|DICT|INTERRES
   225  114  115 1    
   226  114  235 1    
   227  115  116 1    
   228  115  117 1    
   229  115  236 1    
   230  116  237 1    
   231  116  238 1    
   232  116  239 1    
   233  117  118 2    
   234  117  119 am   BACKBONE|DICT|INTERRES
   235  119  120 1    
   236  119  240 1    
   237  120  121 1    
   238  120  124 1    
   239  120  241 1    
   240  121  122 am   BACKBONE|DICT|INTERRES
   241  121  123 2    
   242  122  242 1    
   243  122  243 1    
   244  124  125 1    
   245  124  244 1    
   246  124  245 1    
   247  125  126 1    
   248  126  246 1    
   249  126  247 1    
@<TRIPOS>SUBSTRUCTURE
     1 UNK         1 GROUP             0       ****    0 ROOT    
