@<TRIPOS>MOLECULE
3R540
247   249    1
SMALL
USER_CHARGES


@<TRIPOS>ATOM
      1 CA          2.7464  -12.9686  -47.4714 C.3       0 UNK        -0.1800 
      2 C           1.7120  -13.2577  -46.3950 C.2       0 UNK         0.5000 
      3 O           1.9423  -12.9533  -45.2244 O.2       0 UNK        -0.5000 
      4 N           0.5661  -13.8330  -46.7815 N.am      1 UNK        -0.5000 
      5 CA         -0.5215  -14.2305  -45.8765 C.3       1 UNK         0.1400 
      6 C6         -1.6130  -15.0706  -46.5824 C.3       23 UNK        -0.0398 
      7 S7         -0.9217  -16.5193  -47.4437 S.3       23 UNK        -0.2404 
      8 C8         -2.3203  -17.0048  -48.4968 C.3       23 UNK        -0.0205 
      9 C9         -1.8488  -17.8922  -49.6361 C.ar      23 UNK        -0.0193 
     10 C10        -1.6926  -17.3648  -50.9216 C.ar      23 UNK        -0.1150 
     11 C11        -1.2576  -18.1762  -51.9736 C.ar      23 UNK        -0.0193 
     12 C12        -0.9704  -19.5212  -51.7295 C.ar      23 UNK        -0.1150 
     13 C13        -1.1299  -20.0613  -50.4506 C.ar      23 UNK        -0.0193 
     14 C14        -1.5723  -19.2427  -49.4071 C.ar      23 UNK        -0.1150 
     15 C15        -0.8570  -21.5364  -50.2129 C.3       23 UNK        -0.0205 
     16 S16         0.8839  -21.8600  -49.7812 S.3       23 UNK        -0.2404 
     17 C17         0.9569  -21.3824  -48.0200 C.3       23 UNK        -0.0398 
     18 CA          0.7102  -22.5810  -47.0707 C.3       11 UNK         0.1400 
     19 N           1.2865  -22.3757  -45.7419 N.am      11 UNK        -0.5000 
     20 C           1.7738  -23.3661  -44.9836 C.2       10 UNK         0.5000 
     21 O           1.8572  -24.5373  -45.3542 O.2       10 UNK        -0.5000 
     22 CA          2.2390  -22.9934  -43.5666 C.3       10 UNK         0.1400 
     23 CB          3.6801  -22.4603  -43.5977 C.3       10 UNK        -0.1800 
     24 N           1.3800  -22.0217  -42.8879 N.am      10 UNK        -0.5000 
     25 C           0.1081  -22.2409  -42.5234 C.2       9 UNK         0.5000 
     26 O          -0.5410  -23.2283  -42.8669 O.2       9 UNK        -0.5000 
     27 CA         -0.5490  -21.1773  -41.6304 C.3       9 UNK         0.1400 
     28 CB          0.0593  -21.1918  -40.2189 C.3       9 UNK        -0.1800 
     29 N          -0.3783  -19.8537  -42.2191 N.am      9 UNK        -0.5000 
     30 C          -1.3775  -19.0406  -42.5838 C.2       8 UNK         0.5000 
     31 O          -2.5600  -19.2434  -42.3084 O.2       8 UNK        -0.5000 
     32 CA         -1.0092  -17.7852  -43.4033 C.3       8 UNK         0.1400 
     33 CB         -1.0855  -16.5368  -42.5107 C.3       8 UNK        -0.1800 
     34 N           0.3129  -17.8301  -44.0342 N.am      8 UNK        -0.5000 
     35 C           0.7452  -18.7455  -44.9137 C.2       7 UNK         0.5000 
     36 O           0.0627  -19.6813  -45.3345 O.2       7 UNK        -0.5000 
     37 CA          2.2281  -18.6532  -45.3190 C.3       7 UNK         0.1400 
     38 CB          2.3868  -17.8020  -46.5865 C.3       7 UNK        -0.1800 
     39 N           3.1107  -18.1245  -44.2731 N.am      7 UNK        -0.5000 
     40 C           3.2469  -18.5863  -43.0226 C.2       6 UNK         0.5000 
     41 O           2.5668  -19.5033  -42.5602 O.2       6 UNK        -0.5000 
     42 CA          4.2910  -17.9023  -42.1200 C.3       6 UNK         0.1400 
     43 CB          5.6821  -18.5308  -42.3212 C.3       6 UNK        -0.1800 
     44 N           4.3408  -16.4369  -42.2262 N.am      6 UNK        -0.5000 
     45 C           4.7170  -15.6622  -43.2529 C.2       5 UNK         0.5000 
     46 O           5.0637  -16.0998  -44.3515 O.2       5 UNK        -0.5000 
     47 CA          4.6421  -14.1424  -43.0071 C.3       5 UNK         0.1400 
     48 CB          5.2192  -13.3197  -44.1727 C.3       5 UNK        -0.1800 
     49 N           3.2669  -13.7087  -42.7627 N.am      5 UNK        -0.5000 
     50 C           2.6050  -13.8202  -41.6023 C.2       4 UNK         0.5000 
     51 O           3.0823  -14.3658  -40.6049 O.2       4 UNK        -0.5000 
     52 CA          1.1771  -13.2339  -41.5615 C.3       4 UNK         0.1400 
     53 CB          0.6664  -12.9737  -40.1298 C.3       4 UNK        -0.1800 
     54 N           1.0326  -12.0399  -42.3992 N.am      4 UNK        -0.5000 
     55 C           1.6868  -10.8723  -42.2884 C.2       3 UNK         0.5000 
     56 O           2.4491  -10.5974  -41.3609 O.2       3 UNK        -0.5000 
     57 CA          1.4859   -9.8452  -43.4217 C.3       3 UNK         0.1400 
     58 CB          2.8014   -9.6290  -44.1888 C.3       3 UNK        -0.1800 
     59 N           0.4592  -10.2632  -44.3775 N.am      3 UNK        -0.5000 
     60 C          -0.8459   -9.9773  -44.2800 C.2       2 UNK         0.5000 
     61 O          -1.3263   -9.2602  -43.4021 O.2       2 UNK        -0.5000 
     62 CA         -1.7747  -10.6187  -45.3307 C.3       2 UNK         0.1400 
     63 CB         -2.0148   -9.6498  -46.4983 C.3       2 UNK        -0.1800 
     64 N          -1.2629  -11.8865  -45.8603 N.am      2 UNK        -0.5000 
     65 C          -1.1580  -13.0236  -45.1566 C.2       1 UNK         0.5000 
     66 O          -1.4925  -13.1277  -43.9774 O.2       1 UNK        -0.5000 
     67 C          -0.7858  -22.9073  -46.9348 C.2       11 UNK         0.5000 
     68 O          -1.2579  -23.8359  -47.5875 O.2       11 UNK        -0.5000 
     69 N          -1.4945  -22.1651  -46.0700 N.am      12 UNK        -0.5000 
     70 CA         -2.9379  -22.2805  -45.8359 C.3       12 UNK         0.1400 
     71 CB         -3.3545  -21.2559  -44.7753 C.3       12 UNK        -0.1800 
     72 C          -3.4179  -23.6914  -45.4365 C.2       12 UNK         0.5000 
     73 O          -4.5216  -24.0865  -45.8133 O.2       12 UNK        -0.5000 
     74 N          -2.5788  -24.4323  -44.6996 N.am      13 UNK        -0.5000 
     75 CA         -2.8168  -25.8278  -44.3303 C.3       13 UNK         0.1400 
     76 CB         -1.8754  -26.2052  -43.1764 C.3       13 UNK        -0.1800 
     77 C          -2.6443  -26.8152  -45.5032 C.2       13 UNK         0.5000 
     78 O          -3.2236  -27.9014  -45.4582 O.2       13 UNK        -0.5000 
     79 N          -1.8479  -26.4438  -46.5149 N.am      14 UNK        -0.5000 
     80 CA         -1.5614  -27.2643  -47.6910 C.3       14 UNK         0.1400 
     81 CB         -0.1232  -26.9971  -48.1643 C.3       14 UNK        -0.1800 
     82 C          -2.5661  -27.0057  -48.8260 C.2       14 UNK         0.5000 
     83 O          -2.9902  -27.9586  -49.4817 O.2       14 UNK        -0.5000 
     84 N          -2.9388  -25.7375  -49.0348 N.am      15 UNK        -0.5000 
     85 CA         -3.9032  -25.3040  -50.0400 C.3       15 UNK         0.1400 
     86 CB         -3.1822  -25.0154  -51.3667 C.3       15 UNK        -0.1800 
     87 C          -4.6336  -24.0578  -49.5298 C.2       15 UNK         0.5000 
     88 O          -3.9981  -23.1663  -48.9650 O.2       15 UNK        -0.5000 
     89 N          -5.9518  -24.0066  -49.7536 N.am      16 UNK        -0.5000 
     90 CA         -6.8524  -22.9402  -49.3123 C.3       16 UNK         0.1400 
     91 CB         -8.2962  -23.4729  -49.3495 C.3       16 UNK        -0.1800 
     92 C          -6.6824  -21.6415  -50.1292 C.2       16 UNK         0.5000 
     93 O          -7.5680  -21.2768  -50.9060 O.2       16 UNK        -0.5000 
     94 N          -5.5319  -20.9816  -49.9433 N.am      17 UNK        -0.5000 
     95 CA         -5.1123  -19.7157  -50.5478 C.3       17 UNK         0.1400 
     96 CB         -5.8877  -18.5364  -49.9221 C.3       17 UNK        -0.1800 
     97 C          -5.1713  -19.7676  -52.0849 C.2       17 UNK         0.5000 
     98 O          -4.3569  -20.4642  -52.6891 O.2       17 UNK        -0.5000 
     99 N          -6.1610  -19.0881  -52.6832 N.am      18 UNK        -0.5000 
    100 CA        -6.4285  -19.0270  -54.1237 C.3       18 UNK         0.1400 
    101 CB        -7.6673  -18.1518  -54.3630 C.3       18 UNK        -0.1800 
    102 C         -6.5963  -20.3973  -54.8121 C.2       18 UNK         0.5000 
    103 O         -6.3447  -20.4974  -56.0137 O.2       18 UNK        -0.5000 
    104 N         -6.9508  -21.4378  -54.0416 N.am      19 UNK        -0.5000 
    105 CA        -6.9790  -22.8405  -54.4679 C.3       19 UNK         0.1400 
    106 CB        -7.5158  -23.7013  -53.3153 C.3       19 UNK        -0.1800 
    107 C         -5.6133  -23.3832  -54.9462 C.2       19 UNK         0.5000 
    108 O         -5.5859  -24.3590  -55.6964 O.2       19 UNK        -0.5000 
    109 N         -4.5114  -22.7359  -54.5374 N.am      20 UNK        -0.5000 
    110 CA        -3.1523  -23.0098  -55.0076 C.3       20 UNK         0.1400 
    111 CB        -2.1564  -22.3762  -54.0244 C.3       20 UNK        -0.1800 
    112 C         -2.8753  -22.4950  -56.4368 C.2       20 UNK         0.5000 
    113 O         -1.8207  -22.8199  -56.9836 O.2       20 UNK        -0.5000 
    114 N         -3.7976  -21.6983  -57.0039 N.am      21 UNK        -0.5000 
    115 CA        -3.7072  -21.0062  -58.2938 C.3       21 UNK         0.1400 
    116 CB        -3.6295  -22.0064  -59.4669 C.3       21 UNK        -0.1800 
    117 C         -2.5695  -19.9661  -58.2895 C.2       21 UNK         0.5000 
    118 O         -1.6402  -20.0478  -59.0954 O.2       21 UNK        -0.5000 
    119 N         -2.6630  -19.0308  -57.3352 N.am      22 UNK        -0.5000 
    120 CA        -1.7137  -17.9360  -57.0762 C.3       22 UNK         0.1400 
    121 C         -1.4152  -17.0544  -58.3229 C.2       22 UNK         0.5000 
    122 N         -0.1635  -16.6727  -58.5378 N.am      22 UNK        -0.7600 
    123 O         -2.3169  -16.6738  -59.0668 O.2       22 UNK        -0.5000 
    124 C124       -2.2002  -17.0338  -55.9119 C.3       23 UNK        -0.0398 
    125 S125       -2.5780  -17.9518  -54.3804 S.3       23 UNK        -0.2404 
    126 C126       -1.1044  -17.6042  -53.3739 C.3       23 UNK        -0.0205 
    127 H127        3.0876  -11.9362  -47.3959 H         1 UNK         0.0600 
    128 H128        2.3416  -13.1215  -48.4720 H         1 UNK         0.0600 
    129 H129        3.6077  -13.6246  -47.3472 H         1 UNK         0.0600 
    130 H130        0.4369  -14.0811  -47.7523 H         1 UNK         0.3000 
    131 H131       -0.0681  -14.8585  -45.1076 H         1 UNK         0.0600 
    132 H132       -2.1543  -14.4579  -47.3057 H         1 UNK         0.0800 
    133 H133       -2.3505  -15.4259  -45.8601 H         1 UNK         0.0800 
    134 H134       -3.0635  -17.5306  -47.8953 H         1 UNK         0.0800 
    135 H135       -2.8141  -16.1172  -48.8951 H         1 UNK         0.0800 
    136 H136       -1.9126  -16.3225  -51.1054 H         1 UNK         0.1150 
    137 H137       -0.6369  -20.1523  -52.5408 H         1 UNK         0.1150 
    138 H138       -1.7114  -19.6532  -48.4169 H         1 UNK         0.1150 
    139 H139       -1.5296  -21.9241  -49.4491 H         1 UNK         0.0800 
    140 H140       -1.0908  -22.0972  -51.1173 H         1 UNK         0.0800 
    141 H141        0.2861  -20.5497  -47.8149 H         1 UNK         0.0800 
    142 H142        1.9613  -20.9912  -47.8538 H         1 UNK         0.0800 
    143 H143        1.1910  -23.4534  -47.5196 H         1 UNK         0.0600 
    144 H144        1.1751  -21.4551  -45.3380 H         1 UNK         0.3000 
    145 H145        2.2310  -23.9077  -42.9696 H         1 UNK         0.0600 
    146 H146        4.0468  -22.2538  -42.5920 H         1 UNK         0.0600 
    147 H147        4.3564  -23.1885  -44.0470 H         1 UNK         0.0600 
    148 H148        3.7577  -21.5399  -44.1771 H         1 UNK         0.0600 
    149 H149        1.8349  -21.1590  -42.5989 H         1 UNK         0.3000 
    150 H150       -1.6074  -21.4328  -41.5470 H         1 UNK         0.0600 
    151 H151       -0.0257  -22.1807  -39.7666 H         1 UNK         0.0600 
    152 H152       -0.4568  -20.4892  -39.5646 H         1 UNK         0.0600 
    153 H153        1.1162  -20.9223  -40.2288 H         1 UNK         0.0600 
    154 H154        0.5690  -19.5961  -42.4726 H         1 UNK         0.3000 
    155 H155       -1.7500  -17.6905  -44.1998 H         1 UNK         0.0600 
    156 H156       -0.3303  -16.5578  -41.7239 H         1 UNK         0.0600 
    157 H157       -2.0603  -16.4581  -42.0273 H         1 UNK         0.0600 
    158 H158       -0.9447  -15.6266  -43.0893 H         1 UNK         0.0600 
    159 H159        0.9753  -17.1318  -43.7330 H         1 UNK         0.3000 
    160 H160        2.5682  -19.6650  -45.5446 H         1 UNK         0.0600 
    161 H161        2.1013  -16.7637  -46.4113 H         1 UNK         0.0600 
    162 H162        1.7625  -18.1831  -47.3961 H         1 UNK         0.0600 
    163 H163        3.4176  -17.8099  -46.9409 H         1 UNK         0.0600 
    164 H164        3.7409  -17.3737  -44.5462 H         1 UNK         0.3000 
    165 H165        3.9880  -18.1082  -41.0922 H         1 UNK         0.0600 
    166 H166        6.4099  -18.1062  -41.6298 H         1 UNK         0.0600 
    167 H167        5.6518  -19.6062  -42.1411 H         1 UNK         0.0600 
    168 H168        6.0558  -18.3827  -43.3348 H         1 UNK         0.0600 
    169 H169        4.0078  -15.9403  -41.4044 H         1 UNK         0.3000 
    170 H170        5.2438  -13.9248  -42.1222 H         1 UNK         0.0600 
    171 H171        6.2628  -13.5790  -44.3550 H         1 UNK         0.0600 
    172 H172        4.6714  -13.4926  -45.0988 H         1 UNK         0.0600 
    173 H173        5.1820  -12.2517  -43.9575 H         1 UNK         0.0600 
    174 H174        2.7817  -13.3049  -43.5608 H         1 UNK         0.3000 
    175 H175        0.5307  -13.9905  -42.0060 H         1 UNK         0.0600 
    176 H176        0.6358  -13.8983  -39.5522 H         1 UNK         0.0600 
    177 H177        1.3053  -12.2736  -39.5909 H         1 UNK         0.0600 
    178 H178       -0.3445  -12.5664  -40.1410 H         1 UNK         0.0600 
    179 H179        0.4243  -12.1537  -43.1989 H         1 UNK         0.3000 
    180 H180        1.1991   -8.8974  -42.9616 H         1 UNK         0.0600 
    181 H181        3.1567  -10.5515  -44.6496 H         1 UNK         0.0600 
    182 H182        3.5889   -9.2714  -43.5242 H         1 UNK         0.0600 
    183 H183        2.6810   -8.8853  -44.9766 H         1 UNK         0.0600 
    184 H184        0.7652  -10.8872  -45.1113 H         1 UNK         0.3000 
    185 H185       -2.7335  -10.8152  -44.8461 H         1 UNK         0.0600 
    186 H186       -2.4218   -8.7023  -46.1424 H         1 UNK         0.0600 
    187 H187       -1.0914   -9.4292  -47.0354 H         1 UNK         0.0600 
    188 H188       -2.7293  -10.0608  -47.2118 H         1 UNK         0.0600 
    189 H189       -0.9455  -11.8828  -46.8190 H         1 UNK         0.3000 
    190 H190       -1.0250  -21.3995  -45.5995 H         1 UNK         0.3000 
    191 H191       -3.4357  -22.0122  -46.7677 H         1 UNK         0.0600 
    192 H192       -3.0679  -20.2447  -45.0652 H         1 UNK         0.0600 
    193 H193       -4.4354  -21.2594  -44.6299 H         1 UNK         0.0600 
    194 H194       -2.8936  -21.4765  -43.8125 H         1 UNK         0.0600 
    195 H195       -1.7199  -24.0119  -44.3599 H         1 UNK         0.3000 
    196 H196       -3.8445  -25.9191  -43.9723 H         1 UNK         0.0600 
    197 H197       -2.0308  -27.2385  -42.8635 H         1 UNK         0.0600 
    198 H198       -2.0477  -25.5732  -42.3050 H         1 UNK         0.0600 
    199 H199       -0.8280  -26.1011  -43.4634 H         1 UNK         0.0600 
    200 H200       -1.4766  -25.5005  -46.5290 H         1 UNK         0.3000 
    201 H201       -1.6266  -28.3204  -47.4206 H         1 UNK         0.0600 
    202 H202        0.5963  -27.1937  -47.3692 H         1 UNK         0.0600 
    203 H203        0.0153  -25.9666  -48.4920 H         1 UNK         0.0600 
    204 H204        0.1348  -27.6431  -49.0043 H         1 UNK         0.0600 
    205 H205       -2.5422  -24.9937  -48.4633 H         1 UNK         0.3000 
    206 H206       -4.6418  -26.0924  -50.2007 H         1 UNK         0.0600 
    207 H207       -2.7309  -25.9193  -51.7759 H         1 UNK         0.0600 
    208 H208       -3.8742  -24.6282  -52.1158 H         1 UNK         0.0600 
    209 H209       -2.3899  -24.2786  -51.2329 H         1 UNK         0.0600 
    210 H210       -6.3884  -24.7709  -50.2475 H         1 UNK         0.3000 
    211 H211       -6.6175  -22.7010  -48.2726 H         1 UNK         0.0600 
    212 H212       -8.5928  -23.7705  -50.3559 H         1 UNK         0.0600 
    213 H213       -9.0018  -22.7134  -49.0103 H         1 UNK         0.0600 
    214 H214       -8.4142  -24.3374  -48.6959 H         1 UNK         0.0600 
    215 H215       -4.8292  -21.4563  -49.3833 H         1 UNK         0.3000 
    216 H216       -4.0626  -19.5900  -50.2961 H         1 UNK         0.0600 
    217 H217       -5.5669  -17.5852  -50.3491 H         1 UNK         0.0600 
    218 H218       -5.7044  -18.4812  -48.8490 H         1 UNK         0.0600 
    219 H219       -6.9650  -18.6246  -50.0665 H         1 UNK         0.0600 
    220 H220       -6.8088  -18.5889  -52.0916 H         1 UNK         0.3000 
    221 H221       -5.5712  -18.5390  -54.5903 H         1 UNK         0.0600 
    222 H222       -7.8820  -18.0597  -55.4286 H         1 UNK         0.0600 
    223 H223       -8.5531  -18.5713  -53.8843 H         1 UNK         0.0600 
    224 H224       -7.5199  -17.1436  -53.9753 H         1 UNK         0.0600 
    225 H225       -7.1336  -21.2624  -53.0598 H         1 UNK         0.3000 
    226 H226       -7.6732  -22.9154  -55.3071 H         1 UNK         0.0600 
    227 H227       -8.4947  -23.3548  -52.9832 H         1 UNK         0.0600 
    228 H228       -7.6253  -24.7424  -53.6218 H         1 UNK         0.0600 
    229 H229       -6.8424  -23.6808  -52.4590 H         1 UNK         0.0600 
    230 H230       -4.6074  -21.9427  -53.9075 H         1 UNK         0.3000 
    231 H231       -2.9977  -24.0906  -55.0050 H         1 UNK         0.0600 
    232 H232       -2.3728  -22.6704  -52.9992 H         1 UNK         0.0600 
    233 H233       -2.1894  -21.2869  -54.0711 H         1 UNK         0.0600 
    234 H234       -1.1338  -22.6833  -54.2461 H         1 UNK         0.0600 
    235 H235       -4.6315  -21.4834  -56.4675 H         1 UNK         0.3000 
    236 H236       -4.6376  -20.4476  -58.4074 H         1 UNK         0.0600 
    237 H237       -3.6776  -21.4844  -60.4231 H         1 UNK         0.0600 
    238 H238       -2.7034  -22.5815  -59.4584 H         1 UNK         0.0600 
    239 H239       -4.4612  -22.7104  -59.4386 H         1 UNK         0.0600 
    240 H240       -3.4522  -19.0688  -56.7079 H         1 UNK         0.3000 
    241 H241       -0.7797  -18.4092  -56.7675 H         1 UNK         0.0600 
    242 H242        0.0397  -16.0876  -59.3338 H         1 UNK         0.3800 
    243 H243        0.5918  -16.9665  -57.9374 H         1 UNK         0.3800 
    244 H244       -1.4597  -16.2626  -55.6924 H         1 UNK         0.0800 
    245 H245       -3.1071  -16.5008  -56.2036 H         1 UNK         0.0800 
    246 H246       -0.2244  -18.0313  -53.8573 H         1 UNK         0.0800 
    247 H247       -0.9407  -16.5267  -53.3222 H         1 UNK         0.0800 
@<TRIPOS>BOND
     1    1    2 1    
     2    1  127 1    
     3    1  128 1    
     4    1  129 1    
     5    2    3 2    
     6    2    4 am   BACKBONE|DICT|INTERRES
     7    4    5 1    
     8    4  130 1    
     9    5    6 1    
    10    5   65 1    
    11    5  131 1    
    12    6    7 1    
    13    6  132 1    
    14    6  133 1    
    15    7    8 1    
    16    8    9 1    
    17    8  134 1    
    18    8  135 1    
    19    9   10 ar   
    20    9   14 ar   
    21   10   11 ar   
    22   10  136 1    
    23   11   12 ar   
    24   11  126 1    
    25   12   13 ar   
    26   12  137 1    
    27   13   14 ar   
    28   13   15 1    
    29   14  138 1    
    30   15   16 1    
    31   15  139 1    
    32   15  140 1    
    33   16   17 1    
    34   17   18 1    
    35   17  141 1    
    36   17  142 1    
    37   18   19 1    
    38   18   67 1    
    39   18  143 1    
    40   19   20 am   BACKBONE|DICT|INTERRES
    41   19  144 1    
    42   20   21 2    
    43   20   22 1    
    44   22   23 1    
    45   22   24 1    
    46   22  145 1    
    47   23  146 1    
    48   23  147 1    
    49   23  148 1    
    50   24   25 am   BACKBONE|DICT|INTERRES
    51   24  149 1    
    52   25   26 2    
    53   25   27 1    
    54   27   28 1    
    55   27   29 1    
    56   27  150 1    
    57   28  151 1    
    58   28  152 1    
    59   28  153 1    
    60   29   30 am   BACKBONE|DICT|INTERRES
    61   29  154 1    
    62   30   31 2    
    63   30   32 1    
    64   32   33 1    
    65   32   34 1    
    66   32  155 1    
    67   33  156 1    
    68   33  157 1    
    69   33  158 1    
    70   34   35 am   BACKBONE|DICT|INTERRES
    71   34  159 1    
    72   35   36 2    
    73   35   37 1    
    74   37   38 1    
    75   37   39 1    
    76   37  160 1    
    77   38  161 1    
    78   38  162 1    
    79   38  163 1    
    80   39   40 am   BACKBONE|DICT|INTERRES
    81   39  164 1    
    82   40   41 2    
    83   40   42 1    
    84   42   43 1    
    85   42   44 1    
    86   42  165 1    
    87   43  166 1    
    88   43  167 1    
    89   43  168 1    
    90   44   45 am   BACKBONE|DICT|INTERRES
    91   44  169 1    
    92   45   46 2    
    93   45   47 1    
    94   47   48 1    
    95   47   49 1    
    96   47  170 1    
    97   48  171 1    
    98   48  172 1    
    99   48  173 1    
   100   49   50 am   BACKBONE|DICT|INTERRES
   101   49  174 1    
   102   50   51 2    
   103   50   52 1    
   104   52   53 1    
   105   52   54 1    
   106   52  175 1    
   107   53  176 1    
   108   53  177 1    
   109   53  178 1    
   110   54   55 am   BACKBONE|DICT|INTERRES
   111   54  179 1    
   112   55   56 2    
   113   55   57 1    
   114   57   58 1    
   115   57   59 1    
   116   57  180 1    
   117   58  181 1    
   118   58  182 1    
   119   58  183 1    
   120   59   60 am   BACKBONE|DICT|INTERRES
   121   59  184 1    
   122   60   61 2    
   123   60   62 1    
   124   62   63 1    
   125   62   64 1    
   126   62  185 1    
   127   63  186 1    
   128   63  187 1    
   129   63  188 1    
   130   64   65 am   BACKBONE|DICT|INTERRES
   131   64  189 1    
   132   65   66 2    
   133   67   68 2    
   134   67   69 am   BACKBONE|DICT|INTERRES
   135   69   70 1    
   136   69  190 1    
   137   70   71 1    
   138   70   72 1    
   139   70  191 1    
   140   71  192 1    
   141   71  193 1    
   142   71  194 1    
   143   72   73 2    
   144   72   74 am   BACKBONE|DICT|INTERRES
   145   74   75 1    
   146   74  195 1    
   147   75   76 1    
   148   75   77 1    
   149   75  196 1    
   150   76  197 1    
   151   76  198 1    
   152   76  199 1    
   153   77   78 2    
   154   77   79 am   BACKBONE|DICT|INTERRES
   155   79   80 1    
   156   79  200 1    
   157   80   81 1    
   158   80   82 1    
   159   80  201 1    
   160   81  202 1    
   161   81  203 1    
   162   81  204 1    
   163   82   83 2    
   164   82   84 am   BACKBONE|DICT|INTERRES
   165   84   85 1    
   166   84  205 1    
   167   85   86 1    
   168   85   87 1    
   169   85  206 1    
   170   86  207 1    
   171   86  208 1    
   172   86  209 1    
   173   87   88 2    
   174   87   89 am   BACKBONE|DICT|INTERRES
   175   89   90 1    
   176   89  210 1    
   177   90   91 1    
   178   90   92 1    
   179   90  211 1    
   180   91  212 1    
   181   91  213 1    
   182   91  214 1    
   183   92   93 2    
   184   92   94 am   BACKBONE|DICT|INTERRES
   185   94   95 1    
   186   94  215 1    
   187   95   96 1    
   188   95   97 1    
   189   95  216 1    
   190   96  217 1    
   191   96  218 1    
   192   96  219 1    
   193   97   98 2    
   194   97   99 am   BACKBONE|DICT|INTERRES
   195   99  100 1    
   196   99  220 1    
   197  100  101 1    
   198  100  102 1    
   199  100  221 1    
   200  101  222 1    
   201  101  223 1    
   202  101  224 1    
   203  102  103 2    
   204  102  104 am   BACKBONE|DICT|INTERRES
   205  104  105 1    
   206  104  225 1    
   207  105  106 1    
   208  105  107 1    
   209  105  226 1    
   210  106  227 1    
   211  106  228 1    
   212  106  229 1    
   213  107  108 2    
   214  107  109 am   BACKBONE|DICT|INTERRES
   215  109  110 1    
   216  109  230 1    
   217  110  111 1    
   218  110  112 1    
   219  110  231 1    
   220  111  232 1    
   221  111  233 1    
   222  111  234 1    
   223  112  113 2    
   224  112  114 am   BACKBONE|DICT|INTERRES
   225  114  115 1    
   226  114  235 1    
   227  115  116 1    
   228  115  117 1    
   229  115  236 1    
   230  116  237 1    
   231  116  238 1    
   232  116  239 1    
   233  117  118 2    
   234  117  119 am   BACKBONE|DICT|INTERRES
   235  119  120 1    
   236  119  240 1    
   237  120  121 1    
   238  120  124 1    
   239  120  241 1    
   240  121  122 am   BACKBONE|DICT|INTERRES
   241  121  123 2    
   242  122  242 1    
   243  122  243 1    
   244  124  125 1    
   245  124  244 1    
   246  124  245 1    
   247  125  126 1    
   248  126  246 1    
   249  126  247 1    
@<TRIPOS>SUBSTRUCTURE
     1 UNK         1 GROUP             0       ****    0 ROOT    
