@<TRIPOS>MOLECULE
3R540
247   249    1
SMALL
USER_CHARGES


@<TRIPOS>ATOM
      1 CA         -0.6277  -12.9616  -47.3736 C.3       0 UNK        -0.1800 
      2 C          -0.5620  -14.1537  -46.4220 C.2       0 UNK         0.5000 
      3 O          -1.0385  -14.0473  -45.2953 O.2       0 UNK        -0.5000 
      4 N           0.0060  -15.2996  -46.8231 N.am      1 UNK        -0.5000 
      5 CA          0.6334  -15.5655  -48.1249 C.3       1 UNK         0.1400 
      6 C6          0.4026  -17.0341  -48.5722 C.3       23 UNK        -0.0398 
      7 S7          0.2961  -17.2432  -50.3851 S.3       23 UNK        -0.2404 
      8 C8         -1.2666  -16.4046  -50.8296 C.3       23 UNK        -0.0205 
      9 C9         -2.4991  -17.0709  -50.2347 C.ar      23 UNK        -0.0193 
     10 C10        -3.1347  -18.1108  -50.9164 C.ar      23 UNK        -0.1150 
     11 C11        -4.2768  -18.7190  -50.3872 C.ar      23 UNK        -0.0193 
     12 C12        -4.7805  -18.2811  -49.1583 C.ar      23 UNK        -0.1150 
     13 C13        -4.1602  -17.2333  -48.4706 C.ar      23 UNK        -0.0193 
     14 C14        -3.0270  -16.6259  -49.0204 C.ar      23 UNK        -0.1150 
     15 C15        -4.7232  -16.7394  -47.1446 C.3       23 UNK        -0.0205 
     16 S16        -4.3769  -17.8732  -45.7602 S.3       23 UNK        -0.2404 
     17 C17        -2.5483  -17.8729  -45.7087 C.3       23 UNK        -0.0398 
     18 CA         -1.9076  -19.2815  -45.6444 C.3       11 UNK         0.1400 
     19 N          -2.2204  -19.9552  -44.3819 N.am      11 UNK        -0.5000 
     20 C          -1.6885  -21.1102  -43.9639 C.2       10 UNK         0.5000 
     21 O          -0.9242  -21.7944  -44.6469 O.2       10 UNK        -0.5000 
     22 CA         -2.0688  -21.5368  -42.5381 C.3       10 UNK         0.1400 
     23 CB         -1.3532  -22.8179  -42.0748 C.3       10 UNK        -0.1800 
     24 N          -1.7338  -20.4461  -41.6278 N.am      10 UNK        -0.5000 
     25 C          -2.5734  -19.8666  -40.7632 C.2       9 UNK         0.5000 
     26 O          -3.7491  -20.2032  -40.6174 O.2       9 UNK        -0.5000 
     27 CA         -2.0095  -18.7055  -39.9241 C.3       9 UNK         0.1400 
     28 CB         -1.2548  -19.2461  -38.7000 C.3       9 UNK        -0.1800 
     29 N          -1.1273  -17.8109  -40.6763 N.am      9 UNK        -0.5000 
     30 C          -1.5178  -17.0089  -41.6786 C.2       8 UNK         0.5000 
     31 O          -2.6699  -16.9670  -42.1094 O.2       8 UNK        -0.5000 
     32 CA         -0.4385  -16.1183  -42.3160 C.3       8 UNK         0.1400 
     33 CB         -0.0880  -14.9296  -41.4075 C.3       8 UNK        -0.1800 
     34 N           0.7644  -16.9000  -42.5798 N.am      8 UNK        -0.5000 
     35 C           1.0729  -17.4456  -43.7615 C.2       7 UNK         0.5000 
     36 O           0.4676  -17.2041  -44.8051 O.2       7 UNK        -0.5000 
     37 CA          2.2486  -18.4374  -43.8068 C.3       7 UNK         0.1400 
     38 CB          3.3984  -17.8813  -44.6558 C.3       7 UNK        -0.1800 
     39 N           2.7578  -18.8068  -42.4864 N.am      7 UNK        -0.5000 
     40 C           2.1682  -19.6800  -41.6593 C.2       6 UNK         0.5000 
     41 O           1.1214  -20.2693  -41.9215 O.2       6 UNK        -0.5000 
     42 CA          2.8315  -19.8807  -40.2842 C.3       6 UNK         0.1400 
     43 CB          3.9242  -20.9566  -40.3642 C.3       6 UNK        -0.1800 
     44 N           3.4046  -18.6447  -39.7457 N.am      6 UNK        -0.5000 
     45 C           2.6882  -17.5622  -39.4118 C.2       5 UNK         0.5000 
     46 O           1.4630  -17.4996  -39.5110 O.2       5 UNK        -0.5000 
     47 CA          3.4793  -16.3224  -38.9581 C.3       5 UNK         0.1400 
     48 CB          3.8471  -16.4280  -37.4707 C.3       5 UNK        -0.1800 
     49 N           4.6922  -16.0846  -39.7484 N.am      5 UNK        -0.5000 
     50 C           4.7026  -15.8415  -41.0660 C.2       4 UNK         0.5000 
     51 O           3.6933  -15.8624  -41.7717 O.2       4 UNK        -0.5000 
     52 CA          6.0742  -15.5756  -41.7126 C.3       4 UNK         0.1400 
     53 CB          6.6503  -16.8759  -42.2946 C.3       4 UNK        -0.1800 
     54 N           5.9835  -14.5769  -42.7785 N.am      4 UNK        -0.5000 
     55 C           5.6905  -13.2824  -42.5895 C.2       3 UNK         0.5000 
     56 O           5.5536  -12.7716  -41.4765 O.2       3 UNK        -0.5000 
     57 CA          5.5428  -12.3966  -43.8441 C.3       3 UNK         0.1400 
     58 CB          6.7968  -11.5290  -44.0369 C.3       3 UNK        -0.1800 
     59 N           5.2898  -13.1388  -45.0833 N.am      3 UNK        -0.5000 
     60 C           4.1383  -13.7514  -45.3859 C.2       2 UNK         0.5000 
     61 O           3.1620  -13.7891  -44.6330 O.2       2 UNK        -0.5000 
     62 CA          4.0666  -14.4202  -46.7679 C.3       2 UNK         0.1400 
     63 CB          5.1206  -15.5330  -46.9343 C.3       2 UNK        -0.1800 
     64 N           2.7200  -14.9500  -46.9616 N.am      2 UNK        -0.5000 
     65 C           2.1281  -15.1702  -48.1413 C.2       1 UNK         0.5000 
     66 O           2.7051  -15.0300  -49.2199 O.2       1 UNK        -0.5000 
     67 C          -2.1879  -20.1382  -46.8972 C.2       11 UNK         0.5000 
     68 O          -1.3775  -20.1424  -47.8231 O.2       11 UNK        -0.5000 
     69 N          -3.2881  -20.9031  -46.8734 N.am      12 UNK        -0.5000 
     70 CA         -3.6662  -21.8222  -47.9447 C.3       12 UNK         0.1400 
     71 CB         -5.1315  -22.2420  -47.7663 C.3       12 UNK        -0.1800 
     72 C          -2.7494  -23.0545  -48.0329 C.2       12 UNK         0.5000 
     73 O          -2.5248  -23.5562  -49.1340 O.2       12 UNK        -0.5000 
     74 N          -2.2121  -23.5052  -46.8900 N.am      13 UNK        -0.5000 
     75 CA         -1.2415  -24.5983  -46.8221 C.3       13 UNK         0.1400 
     76 CB         -1.1510  -25.1402  -45.3883 C.3       13 UNK        -0.1800 
     77 C           0.1376  -24.1497  -47.3310 C.2       13 UNK         0.5000 
     78 O           0.7788  -24.8950  -48.0709 O.2       13 UNK        -0.5000 
     79 N           0.5396  -22.9180  -46.9832 N.am      14 UNK        -0.5000 
     80 CA          1.7477  -22.2616  -47.4913 C.3       14 UNK         0.1400 
     81 CB          1.9828  -20.9561  -46.7188 C.3       14 UNK        -0.1800 
     82 C           1.6968  -22.0097  -49.0118 C.2       14 UNK         0.5000 
     83 O           2.7181  -22.1439  -49.6861 O.2       14 UNK        -0.5000 
     84 N           0.4984  -21.7064  -49.5278 N.am      15 UNK        -0.5000 
     85 CA          0.1966  -21.5876  -50.9559 C.3       15 UNK         0.1400 
     86 CB         -1.1130  -20.8045  -51.1101 C.3       15 UNK        -0.1800 
     87 C           0.0844  -22.9427  -51.6862 C.2       15 UNK         0.5000 
     88 O          -0.0317  -22.9482  -52.9119 O.2       15 UNK        -0.5000 
     89 N           0.0924  -24.0539  -50.9338 N.am      16 UNK        -0.5000 
     90 CA         -0.0621  -25.4406  -51.3827 C.3       16 UNK         0.1400 
     91 CB          1.1376  -25.8732  -52.2517 C.3       16 UNK        -0.1800 
     92 C          -1.4290  -25.7108  -52.0474 C.2       16 UNK         0.5000 
     93 O          -1.4984  -26.4488  -53.0320 O.2       16 UNK        -0.5000 
     94 N          -2.4889  -25.1109  -51.4814 N.am      17 UNK        -0.5000 
     95 CA         -3.8918  -25.1903  -51.9004 C.3       17 UNK         0.1400 
     96 CB         -4.4566  -26.6014  -51.6359 C.3       17 UNK        -0.1800 
     97 C          -4.0984  -24.7112  -53.3519 C.2       17 UNK         0.5000 
     98 O          -4.6217  -25.4544  -54.1852 O.2       17 UNK        -0.5000 
     99 N          -3.6419  -23.4803  -53.6245 N.am      18 UNK        -0.5000 
    100 CA        -3.6887  -22.8186  -54.9298 C.3       18 UNK         0.1400 
    101 CB        -3.0558  -21.4234  -54.8088 C.3       18 UNK        -0.1800 
    102 C         -5.1127  -22.7273  -55.5163 C.2       18 UNK         0.5000 
    103 O         -6.0427  -22.3117  -54.8203 O.2       18 UNK        -0.5000 
    104 N         -5.2440  -23.1252  -56.7867 N.am      19 UNK        -0.5000 
    105 CA        -6.4950  -23.1503  -57.5440 C.3       19 UNK         0.1400 
    106 CB        -6.2778  -24.0106  -58.8007 C.3       19 UNK        -0.1800 
    107 C         -6.9944  -21.7436  -57.9276 C.2       19 UNK         0.5000 
    108 O         -6.2538  -20.7653  -57.8043 O.2       19 UNK        -0.5000 
    109 N         -8.2439  -21.6872  -58.4135 N.am      20 UNK        -0.5000 
    110 CA        -8.9502  -20.4971  -58.9051 C.3       20 UNK         0.1400 
    111 CB        -8.2936  -19.9670  -60.1977 C.3       20 UNK        -0.1800 
    112 C         -9.1055  -19.4169  -57.8164 C.2       20 UNK         0.5000 
    113 O         -8.7399  -18.2588  -58.0287 O.2       20 UNK        -0.5000 
    114 N         -9.6124  -19.8419  -56.6481 N.am      21 UNK        -0.5000 
    115 CA        -9.8401  -19.0369  -55.4395 C.3       21 UNK         0.1400 
    116 CB       -11.0076  -18.0523  -55.6608 C.3       21 UNK        -0.1800 
    117 C         -8.5563  -18.3459  -54.9299 C.2       21 UNK         0.5000 
    118 O         -8.5949  -17.1835  -54.5225 O.2       21 UNK        -0.5000 
    119 N         -7.4395  -19.0819  -54.9985 N.am      22 UNK        -0.5000 
    120 CA        -6.0705  -18.6400  -54.6857 C.3       22 UNK         0.1400 
    121 C         -5.4523  -17.6517  -55.7234 C.2       22 UNK         0.5000 
    122 N         -6.0800  -17.3834  -56.8626 N.am      22 UNK        -0.7600 
    123 O         -4.3601  -17.1338  -55.5066 O.2       22 UNK        -0.5000 
    124 C124       -5.8902  -18.1361  -53.2241 C.3       23 UNK        -0.0398 
    125 S125       -6.4960  -19.3088  -51.9578 S.3       23 UNK        -0.2404 
    126 C126       -4.9609  -19.8501  -51.1430 C.3       23 UNK        -0.0205 
    127 H127       -0.9980  -12.0781  -46.8531 H         1 UNK         0.0600 
    128 H128       -1.3052  -13.1687  -48.2020 H         1 UNK         0.0600 
    129 H129        0.3574  -12.7201  -47.7722 H         1 UNK         0.0600 
    130 H130        0.0848  -16.0523  -46.1401 H         1 UNK         0.3000 
    131 H131        0.1558  -14.9209  -48.8600 H         1 UNK         0.0600 
    132 H132       -0.5219  -17.4280  -48.1547 H         1 UNK         0.0800 
    133 H133        1.1832  -17.6923  -48.1862 H         1 UNK         0.0800 
    134 H134       -1.3515  -16.4038  -51.9173 H         1 UNK         0.0800 
    135 H135       -1.2312  -15.3537  -50.5435 H         1 UNK         0.0800 
    136 H136       -2.7367  -18.4458  -51.8636 H         1 UNK         0.1150 
    137 H137       -5.6603  -18.7503  -48.7409 H         1 UNK         0.1150 
    138 H138       -2.5489  -15.8091  -48.4985 H         1 UNK         0.1150 
    139 H139       -4.3279  -15.7516  -46.9019 H         1 UNK         0.0800 
    140 H140       -5.8034  -16.6187  -47.2376 H         1 UNK         0.0800 
    141 H141       -2.2457  -17.2940  -44.8358 H         1 UNK         0.0800 
    142 H142       -2.1475  -17.3223  -46.5557 H         1 UNK         0.0800 
    143 H143       -0.8266  -19.1464  -45.6413 H         1 UNK         0.0600 
    144 H144       -2.8371  -19.4551  -43.7569 H         1 UNK         0.3000 
    145 H145       -3.1438  -21.7271  -42.5391 H         1 UNK         0.0600 
    146 H146       -1.6073  -23.0585  -41.0424 H         1 UNK         0.0600 
    147 H147       -1.6476  -23.6708  -42.6857 H         1 UNK         0.0600 
    148 H148       -0.2686  -22.7202  -42.1377 H         1 UNK         0.0600 
    149 H149       -0.7710  -20.1222  -41.6848 H         1 UNK         0.3000 
    150 H150       -2.8555  -18.1148  -39.5667 H         1 UNK         0.0600 
    151 H151       -1.8931  -19.8980  -38.1022 H         1 UNK         0.0600 
    152 H152       -0.9210  -18.4348  -38.0527 H         1 UNK         0.0600 
    153 H153       -0.3765  -19.8226  -38.9925 H         1 UNK         0.0600 
    154 H154       -0.1674  -17.7523  -40.3454 H         1 UNK         0.3000 
    155 H155       -0.8415  -15.7185  -43.2478 H         1 UNK         0.0600 
    156 H156        0.3054  -15.2517  -40.4434 H         1 UNK         0.0600 
    157 H157       -0.9680  -14.3147  -41.2157 H         1 UNK         0.0600 
    158 H158        0.6611  -14.2903  -41.8756 H         1 UNK         0.0600 
    159 H159        1.3524  -17.1104  -41.7852 H         1 UNK         0.3000 
    160 H160        1.8744  -19.3392  -44.2916 H         1 UNK         0.0600 
    161 H161        3.7767  -16.9444  -44.2463 H         1 UNK         0.0600 
    162 H162        3.0670  -17.6849  -45.6763 H         1 UNK         0.0600 
    163 H163        4.2272  -18.5868  -44.7148 H         1 UNK         0.0600 
    164 H164        3.5730  -18.3062  -42.1643 H         1 UNK         0.3000 
    165 H165        2.0613  -20.2263  -39.5915 H         1 UNK         0.0600 
    166 H166        4.3467  -21.1634  -39.3808 H         1 UNK         0.0600 
    167 H167        3.5200  -21.8949  -40.7468 H         1 UNK         0.0600 
    168 H168        4.7390  -20.6565  -41.0243 H         1 UNK         0.0600 
    169 H169        4.4081  -18.6109  -39.6424 H         1 UNK         0.3000 
    170 H170        2.8273  -15.4556  -39.0859 H         1 UNK         0.0600 
    171 H171        2.9581  -16.5904  -36.8596 H         1 UNK         0.0600 
    172 H172        4.5316  -17.2557  -37.2810 H         1 UNK         0.0600 
    173 H173        4.3202  -15.5124  -37.1155 H         1 UNK         0.0600 
    174 H174        5.5636  -16.0632  -39.2384 H         1 UNK         0.3000 
    175 H175        6.7587  -15.1996  -40.9493 H         1 UNK         0.0600 
    176 H176        6.0146  -17.2835  -43.0814 H         1 UNK         0.0600 
    177 H177        7.6420  -16.7129  -42.7168 H         1 UNK         0.0600 
    178 H178        6.7492  -17.6409  -41.5234 H         1 UNK         0.0600 
    179 H179        6.0528  -14.9149  -43.7257 H         1 UNK         0.3000 
    180 H180        4.6946  -11.7312  -43.6691 H         1 UNK         0.0600 
    181 H181        7.6806  -12.1374  -44.2330 H         1 UNK         0.0600 
    182 H182        7.0008  -10.9317  -43.1471 H         1 UNK         0.0600 
    183 H183        6.6736  -10.8356  -44.8691 H         1 UNK         0.0600 
    184 H184        6.0423  -13.1499  -45.7568 H         1 UNK         0.3000 
    185 H185        4.2461  -13.6434  -47.5142 H         1 UNK         0.0600 
    186 H186        5.0645  -16.2718  -46.1374 H         1 UNK         0.0600 
    187 H187        5.0023  -16.0566  -47.8829 H         1 UNK         0.0600 
    188 H188        6.1303  -15.1221  -46.9232 H         1 UNK         0.0600 
    189 H189        2.1720  -15.0054  -46.1106 H         1 UNK         0.3000 
    190 H190       -3.9058  -20.8386  -46.0777 H         1 UNK         0.3000 
    191 H191       -3.5774  -21.2863  -48.8904 H         1 UNK         0.0600 
    192 H192       -5.2889  -22.7662  -46.8229 H         1 UNK         0.0600 
    193 H193       -5.4469  -22.9084  -48.5703 H         1 UNK         0.0600 
    194 H194       -5.7934  -21.3758  -47.7851 H         1 UNK         0.0600 
    195 H195       -2.3864  -22.9984  -46.0341 H         1 UNK         0.3000 
    196 H196       -1.5925  -25.4086  -47.4650 H         1 UNK         0.0600 
    197 H197       -0.5317  -26.0373  -45.3547 H         1 UNK         0.0600 
    198 H198       -2.1339  -25.4081  -45.0007 H         1 UNK         0.0600 
    199 H199       -0.7041  -24.4156  -44.7088 H         1 UNK         0.0600 
    200 H200       -0.0302  -22.3907  -46.3284 H         1 UNK         0.3000 
    201 H201        2.5926  -22.9256  -47.2973 H         1 UNK         0.0600 
    202 H202        2.1075  -21.1601  -45.6559 H         1 UNK         0.0600 
    203 H203        1.1527  -20.2591  -46.8349 H         1 UNK         0.0600 
    204 H204        2.8867  -20.4522  -47.0632 H         1 UNK         0.0600 
    205 H205       -0.2675  -21.5187  -48.8897 H         1 UNK         0.3000 
    206 H206        0.9962  -21.0169  -51.4321 H         1 UNK         0.0600 
    207 H207       -1.0640  -19.8648  -50.5633 H         1 UNK         0.0600 
    208 H208       -1.3093  -20.5663  -52.1558 H         1 UNK         0.0600 
    209 H209       -1.9675  -21.3649  -50.7319 H         1 UNK         0.0600 
    210 H210        0.1935  -23.9415  -49.9331 H         1 UNK         0.3000 
    211 H211       -0.0454  -26.0522  -50.4798 H         1 UNK         0.0600 
    212 H212        1.1571  -25.3495  -53.2077 H         1 UNK         0.0600 
    213 H213        1.0996  -26.9418  -52.4657 H         1 UNK         0.0600 
    214 H214        2.0817  -25.6788  -51.7428 H         1 UNK         0.0600 
    215 H215       -2.3250  -24.5250  -50.6638 H         1 UNK         0.3000 
    216 H216       -4.4421  -24.4946  -51.2649 H         1 UNK         0.0600 
    217 H217       -5.5235  -26.6418  -51.8585 H         1 UNK         0.0600 
    218 H218       -4.3325  -26.8845  -50.5906 H         1 UNK         0.0600 
    219 H219       -3.9659  -27.3582  -52.2486 H         1 UNK         0.0600 
    220 H220       -3.2018  -22.9623  -52.8797 H         1 UNK         0.3000 
    221 H221       -3.0709  -23.4110  -55.6079 H         1 UNK         0.0600 
    222 H222       -3.5728  -20.8089  -54.0727 H         1 UNK         0.0600 
    223 H223       -2.0087  -21.4905  -54.5128 H         1 UNK         0.0600 
    224 H224       -3.0904  -20.8930  -55.7614 H         1 UNK         0.0600 
    225 H225       -4.4200  -23.4189  -57.2900 H         1 UNK         0.3000 
    226 H226       -7.2590  -23.6232  -56.9233 H         1 UNK         0.0600 
    227 H227       -5.9472  -25.0159  -58.5382 H         1 UNK         0.0600 
    228 H228       -7.1986  -24.1173  -59.3752 H         1 UNK         0.0600 
    229 H229       -5.5287  -23.5731  -59.4621 H         1 UNK         0.0600 
    230 H230       -8.7689  -22.5491  -58.4695 H         1 UNK         0.3000 
    231 H231       -9.9606  -20.8185  -59.1619 H         1 UNK         0.0600 
    232 H232       -8.2273  -20.7483  -60.9547 H         1 UNK         0.0600 
    233 H233       -7.2869  -19.5883  -60.0183 H         1 UNK         0.0600 
    234 H234       -8.8774  -19.1508  -60.6246 H         1 UNK         0.0600 
    235 H235       -9.8517  -20.8205  -56.5695 H         1 UNK         0.3000 
    236 H236      -10.1405  -19.7329  -54.6550 H         1 UNK         0.0600 
    237 H237      -11.2643  -17.5352  -54.7355 H         1 UNK         0.0600 
    238 H238      -10.7612  -17.2923  -56.4029 H         1 UNK         0.0600 
    239 H239      -11.9035  -18.5729  -55.9989 H         1 UNK         0.0600 
    240 H240       -7.5067  -20.0201  -55.3666 H         1 UNK         0.3000 
    241 H241       -5.4665  -19.5408  -54.7856 H         1 UNK         0.0600 
    242 H242       -5.6532  -16.7528  -57.5218 H         1 UNK         0.3800 
    243 H243       -6.9757  -17.8032  -57.0842 H         1 UNK         0.3800 
    244 H244       -4.8390  -17.9218  -53.0376 H         1 UNK         0.0800 
    245 H245       -6.4084  -17.1877  -53.0792 H         1 UNK         0.0800 
    246 H246       -5.2097  -20.6524  -50.4485 H         1 UNK         0.0800 
    247 H247       -4.2891  -20.2859  -51.8825 H         1 UNK         0.0800 
@<TRIPOS>BOND
     1    1    2 1    
     2    1  127 1    
     3    1  128 1    
     4    1  129 1    
     5    2    3 2    
     6    2    4 am   BACKBONE|DICT|INTERRES
     7    4    5 1    
     8    4  130 1    
     9    5    6 1    
    10    5   65 1    
    11    5  131 1    
    12    6    7 1    
    13    6  132 1    
    14    6  133 1    
    15    7    8 1    
    16    8    9 1    
    17    8  134 1    
    18    8  135 1    
    19    9   10 ar   
    20    9   14 ar   
    21   10   11 ar   
    22   10  136 1    
    23   11   12 ar   
    24   11  126 1    
    25   12   13 ar   
    26   12  137 1    
    27   13   14 ar   
    28   13   15 1    
    29   14  138 1    
    30   15   16 1    
    31   15  139 1    
    32   15  140 1    
    33   16   17 1    
    34   17   18 1    
    35   17  141 1    
    36   17  142 1    
    37   18   19 1    
    38   18   67 1    
    39   18  143 1    
    40   19   20 am   BACKBONE|DICT|INTERRES
    41   19  144 1    
    42   20   21 2    
    43   20   22 1    
    44   22   23 1    
    45   22   24 1    
    46   22  145 1    
    47   23  146 1    
    48   23  147 1    
    49   23  148 1    
    50   24   25 am   BACKBONE|DICT|INTERRES
    51   24  149 1    
    52   25   26 2    
    53   25   27 1    
    54   27   28 1    
    55   27   29 1    
    56   27  150 1    
    57   28  151 1    
    58   28  152 1    
    59   28  153 1    
    60   29   30 am   BACKBONE|DICT|INTERRES
    61   29  154 1    
    62   30   31 2    
    63   30   32 1    
    64   32   33 1    
    65   32   34 1    
    66   32  155 1    
    67   33  156 1    
    68   33  157 1    
    69   33  158 1    
    70   34   35 am   BACKBONE|DICT|INTERRES
    71   34  159 1    
    72   35   36 2    
    73   35   37 1    
    74   37   38 1    
    75   37   39 1    
    76   37  160 1    
    77   38  161 1    
    78   38  162 1    
    79   38  163 1    
    80   39   40 am   BACKBONE|DICT|INTERRES
    81   39  164 1    
    82   40   41 2    
    83   40   42 1    
    84   42   43 1    
    85   42   44 1    
    86   42  165 1    
    87   43  166 1    
    88   43  167 1    
    89   43  168 1    
    90   44   45 am   BACKBONE|DICT|INTERRES
    91   44  169 1    
    92   45   46 2    
    93   45   47 1    
    94   47   48 1    
    95   47   49 1    
    96   47  170 1    
    97   48  171 1    
    98   48  172 1    
    99   48  173 1    
   100   49   50 am   BACKBONE|DICT|INTERRES
   101   49  174 1    
   102   50   51 2    
   103   50   52 1    
   104   52   53 1    
   105   52   54 1    
   106   52  175 1    
   107   53  176 1    
   108   53  177 1    
   109   53  178 1    
   110   54   55 am   BACKBONE|DICT|INTERRES
   111   54  179 1    
   112   55   56 2    
   113   55   57 1    
   114   57   58 1    
   115   57   59 1    
   116   57  180 1    
   117   58  181 1    
   118   58  182 1    
   119   58  183 1    
   120   59   60 am   BACKBONE|DICT|INTERRES
   121   59  184 1    
   122   60   61 2    
   123   60   62 1    
   124   62   63 1    
   125   62   64 1    
   126   62  185 1    
   127   63  186 1    
   128   63  187 1    
   129   63  188 1    
   130   64   65 am   BACKBONE|DICT|INTERRES
   131   64  189 1    
   132   65   66 2    
   133   67   68 2    
   134   67   69 am   BACKBONE|DICT|INTERRES
   135   69   70 1    
   136   69  190 1    
   137   70   71 1    
   138   70   72 1    
   139   70  191 1    
   140   71  192 1    
   141   71  193 1    
   142   71  194 1    
   143   72   73 2    
   144   72   74 am   BACKBONE|DICT|INTERRES
   145   74   75 1    
   146   74  195 1    
   147   75   76 1    
   148   75   77 1    
   149   75  196 1    
   150   76  197 1    
   151   76  198 1    
   152   76  199 1    
   153   77   78 2    
   154   77   79 am   BACKBONE|DICT|INTERRES
   155   79   80 1    
   156   79  200 1    
   157   80   81 1    
   158   80   82 1    
   159   80  201 1    
   160   81  202 1    
   161   81  203 1    
   162   81  204 1    
   163   82   83 2    
   164   82   84 am   BACKBONE|DICT|INTERRES
   165   84   85 1    
   166   84  205 1    
   167   85   86 1    
   168   85   87 1    
   169   85  206 1    
   170   86  207 1    
   171   86  208 1    
   172   86  209 1    
   173   87   88 2    
   174   87   89 am   BACKBONE|DICT|INTERRES
   175   89   90 1    
   176   89  210 1    
   177   90   91 1    
   178   90   92 1    
   179   90  211 1    
   180   91  212 1    
   181   91  213 1    
   182   91  214 1    
   183   92   93 2    
   184   92   94 am   BACKBONE|DICT|INTERRES
   185   94   95 1    
   186   94  215 1    
   187   95   96 1    
   188   95   97 1    
   189   95  216 1    
   190   96  217 1    
   191   96  218 1    
   192   96  219 1    
   193   97   98 2    
   194   97   99 am   BACKBONE|DICT|INTERRES
   195   99  100 1    
   196   99  220 1    
   197  100  101 1    
   198  100  102 1    
   199  100  221 1    
   200  101  222 1    
   201  101  223 1    
   202  101  224 1    
   203  102  103 2    
   204  102  104 am   BACKBONE|DICT|INTERRES
   205  104  105 1    
   206  104  225 1    
   207  105  106 1    
   208  105  107 1    
   209  105  226 1    
   210  106  227 1    
   211  106  228 1    
   212  106  229 1    
   213  107  108 2    
   214  107  109 am   BACKBONE|DICT|INTERRES
   215  109  110 1    
   216  109  230 1    
   217  110  111 1    
   218  110  112 1    
   219  110  231 1    
   220  111  232 1    
   221  111  233 1    
   222  111  234 1    
   223  112  113 2    
   224  112  114 am   BACKBONE|DICT|INTERRES
   225  114  115 1    
   226  114  235 1    
   227  115  116 1    
   228  115  117 1    
   229  115  236 1    
   230  116  237 1    
   231  116  238 1    
   232  116  239 1    
   233  117  118 2    
   234  117  119 am   BACKBONE|DICT|INTERRES
   235  119  120 1    
   236  119  240 1    
   237  120  121 1    
   238  120  124 1    
   239  120  241 1    
   240  121  122 am   BACKBONE|DICT|INTERRES
   241  121  123 2    
   242  122  242 1    
   243  122  243 1    
   244  124  125 1    
   245  124  244 1    
   246  124  245 1    
   247  125  126 1    
   248  126  246 1    
   249  126  247 1    
@<TRIPOS>SUBSTRUCTURE
     1 UNK         1 GROUP             0       ****    0 ROOT    
