@<TRIPOS>MOLECULE
3R540
247   249    1
SMALL
USER_CHARGES


@<TRIPOS>ATOM
      1 CA          1.3948  -11.8249  -48.4014 C.3       0 UNK        -0.1800 
      2 C           2.6995  -12.5083  -48.0146 C.2       0 UNK         0.5000 
      3 O           3.4883  -11.9423  -47.2582 O.2       0 UNK        -0.5000 
      4 N           2.9267  -13.7137  -48.5480 N.am      1 UNK        -0.5000 
      5 CA          4.0865  -14.5731  -48.2871 C.3       1 UNK         0.1400 
      6 C6          4.0817  -15.8184  -49.2060 C.3       23 UNK        -0.0398 
      7 S7          4.0994  -15.3787  -50.9770 S.3       23 UNK        -0.2404 
      8 C8          4.3304  -17.0109  -51.7478 C.3       23 UNK        -0.0205 
      9 C9          3.1349  -17.9237  -51.5202 C.ar      23 UNK        -0.0193 
     10 C10         1.9744  -17.7674  -52.2836 C.ar      23 UNK        -0.1150 
     11 C11         0.8692  -18.6011  -52.0818 C.ar      23 UNK        -0.0193 
     12 C12         0.9393  -19.6048  -51.1107 C.ar      23 UNK        -0.1150 
     13 C13         2.1021  -19.7830  -50.3545 C.ar      23 UNK        -0.0193 
     14 C14         3.1942  -18.9365  -50.5593 C.ar      23 UNK        -0.1150 
     15 C15         2.1869  -20.9050  -49.3340 C.3       23 UNK        -0.0205 
     16 S16         1.7153  -20.3190  -47.6808 S.3       23 UNK        -0.2404 
     17 C17         1.4930  -21.8927  -46.7896 C.3       23 UNK        -0.0398 
     18 CA          0.0268  -22.3751  -46.6609 C.3       11 UNK         0.1400 
     19 N          -0.8305  -21.4906  -45.8600 N.am      11 UNK        -0.5000 
     20 C          -2.0011  -21.8865  -45.3352 C.2       10 UNK         0.5000 
     21 O          -2.4553  -23.0207  -45.4796 O.2       10 UNK        -0.5000 
     22 CA         -2.8363  -20.8498  -44.5672 C.3       10 UNK         0.1400 
     23 CB         -2.2385  -20.5655  -43.1815 C.3       10 UNK        -0.1800 
     24 N          -3.0126  -19.6106  -45.3219 N.am      10 UNK        -0.5000 
     25 C          -3.7127  -19.5227  -46.4630 C.2       9 UNK         0.5000 
     26 O          -4.3157  -20.4724  -46.9637 O.2       9 UNK        -0.5000 
     27 CA         -3.7252  -18.1579  -47.1777 C.3       9 UNK         0.1400 
     28 CB         -4.8706  -17.2774  -46.6588 C.3       9 UNK        -0.1800 
     29 N          -2.4595  -17.4376  -47.0479 N.am      9 UNK        -0.5000 
     30 C          -1.3094  -17.8369  -47.6086 C.2       8 UNK         0.5000 
     31 O          -1.2219  -18.8191  -48.3432 O.2       8 UNK        -0.5000 
     32 CA         -0.0461  -17.0308  -47.2515 C.3       8 UNK         0.1400 
     33 CB          0.0109  -15.7167  -48.0373 C.3       8 UNK        -0.1800 
     34 N           0.0438  -16.7406  -45.8212 N.am      8 UNK        -0.5000 
     35 C           0.1259  -17.6687  -44.8581 C.2       7 UNK         0.5000 
     36 O           0.1525  -18.8812  -45.0651 O.2       7 UNK        -0.5000 
     37 CA          0.1255  -17.1567  -43.4108 C.3       7 UNK         0.1400 
     38 CB          1.5371  -16.7444  -42.9810 C.3       7 UNK        -0.1800 
     39 N          -0.7985  -16.0378  -43.2296 N.am      7 UNK        -0.5000 
     40 C          -2.1332  -16.1658  -43.2364 C.2       6 UNK         0.5000 
     41 O          -2.7156  -17.2428  -43.3615 O.2       6 UNK        -0.5000 
     42 CA         -2.9563  -14.8696  -43.1277 C.3       6 UNK         0.1400 
     43 CB         -3.0130  -14.3797  -41.6729 C.3       6 UNK        -0.1800 
     44 N          -2.4339  -13.8020  -43.9787 N.am      6 UNK        -0.5000 
     45 C          -2.3880  -13.8504  -45.3170 C.2       5 UNK         0.5000 
     46 O          -2.8403  -14.7796  -45.9845 O.2       5 UNK        -0.5000 
     47 CA         -1.6891  -12.6812  -46.0350 C.3       5 UNK         0.1400 
     48 CB         -2.7162  -11.6241  -46.4658 C.3       5 UNK        -0.1800 
     49 N          -0.6306  -12.0318  -45.2572 N.am      5 UNK        -0.5000 
     50 C           0.4637  -12.6361  -44.7729 C.2       4 UNK         0.5000 
     51 O           0.6647  -13.8476  -44.8766 O.2       4 UNK        -0.5000 
     52 CA          1.4968  -11.7107  -44.0943 C.3       4 UNK         0.1400 
     53 CB          0.8415  -10.6825  -43.1449 C.3       4 UNK        -0.1800 
     54 N           2.5736  -12.4277  -43.4073 N.am      4 UNK        -0.5000 
     55 C           2.4875  -13.2251  -42.3349 C.2       3 UNK         0.5000 
     56 O           1.4327  -13.4965  -41.7568 O.2       3 UNK        -0.5000 
     57 CA          3.8277  -13.8078  -41.8326 C.3       3 UNK         0.1400 
     58 CB          3.7010  -14.5563  -40.4933 C.3       3 UNK        -0.1800 
     59 N           4.4506  -14.6937  -42.8195 N.am      3 UNK        -0.5000 
     60 C           5.1119  -14.2914  -43.9126 C.2       2 UNK         0.5000 
     61 O           5.2954  -13.1028  -44.1868 O.2       2 UNK        -0.5000 
     62 CA          5.6843  -15.3727  -44.8555 C.3       2 UNK         0.1400 
     63 CB          5.2905  -16.8235  -44.4909 C.3       2 UNK        -0.1800 
     64 N           5.3734  -15.0718  -46.2577 N.am      2 UNK        -0.5000 
     65 C           4.1520  -15.0126  -46.8085 C.2       1 UNK         0.5000 
     66 O           3.1160  -15.3200  -46.2190 O.2       1 UNK        -0.5000 
     67 C          -0.6059  -22.7405  -48.0204 C.2       11 UNK         0.5000 
     68 O          -0.3963  -23.8578  -48.4967 O.2       11 UNK        -0.5000 
     69 N          -1.4129  -21.8369  -48.5990 N.am      12 UNK        -0.5000 
     70 CA         -2.2020  -22.1058  -49.8021 C.3       12 UNK         0.1400 
     71 CB         -2.9117  -20.8318  -50.2766 C.3       12 UNK        -0.1800 
     72 C          -3.2216  -23.2442  -49.6123 C.2       12 UNK         0.5000 
     73 O          -3.4954  -23.9710  -50.5668 O.2       12 UNK        -0.5000 
     74 N          -3.7587  -23.3924  -48.3955 N.am      13 UNK        -0.5000 
     75 CA         -4.6338  -24.4966  -48.0136 C.3       13 UNK         0.1400 
     76 CB         -5.5858  -24.0321  -46.8994 C.3       13 UNK        -0.1800 
     77 C          -3.8305  -25.7302  -47.5704 C.2       13 UNK         0.5000 
     78 O          -4.1026  -26.8319  -48.0453 O.2       13 UNK        -0.5000 
     79 N          -2.8754  -25.5312  -46.6536 N.am      14 UNK        -0.5000 
     80 CA         -2.1693  -26.6068  -45.9591 C.3       14 UNK         0.1400 
     81 CB         -1.5288  -26.0474  -44.6792 C.3       14 UNK        -0.1800 
     82 C          -1.1121  -27.3274  -46.8117 C.2       14 UNK         0.5000 
     83 O          -0.9838  -28.5469  -46.6928 O.2       14 UNK        -0.5000 
     84 N          -0.3570  -26.5742  -47.6214 N.am      15 UNK        -0.5000 
     85 CA          0.7807  -27.0858  -48.3850 C.3       15 UNK         0.1400 
     86 CB          2.0084  -26.1889  -48.1487 C.3       15 UNK        -0.1800 
     87 C           0.4534  -27.1844  -49.8800 C.2       15 UNK         0.5000 
     88 O           0.6944  -28.2334  -50.4790 O.2       15 UNK        -0.5000 
     89 N          -0.0803  -26.1009  -50.4631 N.am      16 UNK        -0.5000 
     90 CA         -0.3618  -26.0267  -51.9015 C.3       16 UNK         0.1400 
     91 CB         -0.4182  -24.5575  -52.3451 C.3       16 UNK        -0.1800 
     92 C          -1.6525  -26.7627  -52.3090 C.2       16 UNK         0.5000 
     93 O          -1.7757  -27.1534  -53.4703 O.2       16 UNK        -0.5000 
     94 N          -2.5860  -26.9239  -51.3576 N.am      17 UNK        -0.5000 
     95 CA         -3.9085  -27.5487  -51.5031 C.3       17 UNK         0.1400 
     96 CB         -3.7722  -29.0540  -51.8130 C.3       17 UNK        -0.1800 
     97 C          -4.8443  -26.8136  -52.4900 C.2       17 UNK         0.5000 
     98 O          -5.7589  -27.4254  -53.0448 O.2       17 UNK        -0.5000 
     99 N          -4.6076  -25.5105  -52.6803 N.am      18 UNK        -0.5000 
    100 CA        -5.4066  -24.6196  -53.5184 C.3       18 UNK         0.1400 
    101 CB        -4.4786  -23.5643  -54.1418 C.3       18 UNK        -0.1800 
    102 C         -6.5178  -23.9345  -52.7061 C.2       18 UNK         0.5000 
    103 O         -7.6047  -23.7067  -53.2372 O.2       18 UNK        -0.5000 
    104 N         -6.2106  -23.6105  -51.4397 N.am      19 UNK        -0.5000 
    105 CA        -7.0532  -22.9082  -50.4626 C.3       19 UNK         0.1400 
    106 CB        -8.2529  -23.7829  -50.0463 C.3       19 UNK        -0.1800 
    107 C         -7.4588  -21.4823  -50.8956 C.2       19 UNK         0.5000 
    108 O         -8.5053  -20.9818  -50.4792 O.2       19 UNK        -0.5000 
    109 N         -6.6151  -20.8501  -51.7206 N.am      20 UNK        -0.5000 
    110 CA        -6.7671  -19.4735  -52.1808 C.3       20 UNK         0.1400 
    111 CB        -5.8484  -19.2610  -53.3945 C.3       20 UNK        -0.1800 
    112 C         -6.4134  -18.4711  -51.0699 C.2       20 UNK         0.5000 
    113 O         -5.5309  -18.7429  -50.2531 O.2       20 UNK        -0.5000 
    114 N         -7.0540  -17.2971  -51.0966 N.am      21 UNK        -0.5000 
    115 CA        -6.7450  -16.1590  -50.2294 C.3       21 UNK         0.1400 
    116 CB        -7.9808  -15.2454  -50.1468 C.3       21 UNK        -0.1800 
    117 C         -5.4903  -15.4229  -50.7433 C.2       21 UNK         0.5000 
    118 O         -5.5908  -14.3117  -51.2656 O.2       21 UNK        -0.5000 
    119 N         -4.3375  -16.0945  -50.6378 N.am      22 UNK        -0.5000 
    120 CA        -3.0427  -15.6645  -51.1921 C.3       22 UNK         0.1400 
    121 C         -2.3785  -14.4394  -50.4916 C.2       22 UNK         0.5000 
    122 N         -2.9067  -13.9351  -49.3839 N.am      22 UNK        -0.7600 
    123 O         -1.3753  -13.9194  -50.9700 O.2       22 UNK        -0.5000 
    124 C124       -2.0690  -16.8689  -51.3397 C.3       23 UNK        -0.0398 
    125 S125       -1.1073  -16.7927  -52.8864 S.3       23 UNK        -0.2404 
    126 C126       -0.3712  -18.4584  -52.9560 C.3       23 UNK        -0.0205 
    127 H127        0.6634  -12.5394  -48.7809 H         1 UNK         0.0600 
    128 H128        1.5785  -11.0789  -49.1743 H         1 UNK         0.0600 
    129 H129        0.9588  -11.3199  -47.5404 H         1 UNK         0.0600 
    130 H130        2.2400  -14.1087  -49.1731 H         1 UNK         0.3000 
    131 H131        4.9793  -13.9843  -48.5080 H         1 UNK         0.0600 
    132 H132        3.2011  -16.4333  -49.0077 H         1 UNK         0.0800 
    133 H133        4.9509  -16.4468  -49.0030 H         1 UNK         0.0800 
    134 H134        4.4827  -16.8759  -52.8195 H         1 UNK         0.0800 
    135 H135        5.2451  -17.4676  -51.3665 H         1 UNK         0.0800 
    136 H136        1.9310  -16.9937  -53.0373 H         1 UNK         0.1150 
    137 H137        0.0972  -20.2622  -50.9511 H         1 UNK         0.1150 
    138 H138        4.0914  -19.0700  -49.9713 H         1 UNK         0.1150 
    139 H139        1.5413  -21.7281  -49.6413 H         1 UNK         0.0800 
    140 H140        3.2006  -21.3070  -49.2993 H         1 UNK         0.0800 
    141 H141        1.9127  -21.7622  -45.7914 H         1 UNK         0.0800 
    142 H142        2.1045  -22.6643  -47.2609 H         1 UNK         0.0800 
    143 H143        0.0831  -23.3166  -46.1104 H         1 UNK         0.0600 
    144 H144       -0.5029  -20.5380  -45.7092 H         1 UNK         0.3000 
    145 H145       -3.8275  -21.2811  -44.4111 H         1 UNK         0.0600 
    146 H146       -2.8687  -19.8819  -42.6129 H         1 UNK         0.0600 
    147 H147       -2.1528  -21.4849  -42.6012 H         1 UNK         0.0600 
    148 H148       -1.2430  -20.1295  -43.2464 H         1 UNK         0.0600 
    149 H149       -2.5713  -18.7795  -44.9482 H         1 UNK         0.3000 
    150 H150       -3.8940  -18.3437  -48.2391 H         1 UNK         0.0600 
    151 H151       -5.8321  -17.7786  -46.7772 H         1 UNK         0.0600 
    152 H152       -4.9231  -16.3366  -47.2067 H         1 UNK         0.0600 
    153 H153       -4.7467  -17.0412  -45.6010 H         1 UNK         0.0600 
    154 H154       -2.4730  -16.5850  -46.4942 H         1 UNK         0.3000 
    155 H155        0.8318  -17.6179  -47.5213 H         1 UNK         0.0600 
    156 H156       -0.9216  -15.1629  -47.9550 H         1 UNK         0.0600 
    157 H157        0.2009  -15.8994  -49.0951 H         1 UNK         0.0600 
    158 H158        0.8059  -15.0744  -47.6650 H         1 UNK         0.0600 
    159 H159        0.0961  -15.7639  -45.5516 H         1 UNK         0.3000 
    160 H160       -0.1961  -17.9741  -42.7624 H         1 UNK         0.0600 
    161 H161        1.9268  -15.9402  -43.6060 H         1 UNK         0.0600 
    162 H162        2.2281  -17.5848  -43.0539 H         1 UNK         0.0600 
    163 H163        1.5395  -16.4055  -41.9466 H         1 UNK         0.0600 
    164 H164       -0.3878  -15.1135  -43.1922 H         1 UNK         0.3000 
    165 H165       -3.9742  -15.0931  -43.4542 H         1 UNK         0.0600 
    166 H166       -3.6614  -13.5088  -41.5750 H         1 UNK         0.0600 
    167 H167       -3.4095  -15.1548  -41.0158 H         1 UNK         0.0600 
    168 H168       -2.0247  -14.1065  -41.3000 H         1 UNK         0.0600 
    169 H169       -2.0264  -13.0041  -43.5145 H         1 UNK         0.3000 
    170 H170       -1.2227  -13.0869  -46.9335 H         1 UNK         0.0600 
    171 H171       -3.5227  -12.0722  -47.0478 H         1 UNK         0.0600 
    172 H172       -3.1705  -11.1322  -45.6048 H         1 UNK         0.0600 
    173 H173       -2.2557  -10.8562  -47.0877 H         1 UNK         0.0600 
    174 H174       -0.7278  -11.0358  -45.1241 H         1 UNK         0.3000 
    175 H175        1.9825  -11.1584  -44.8997 H         1 UNK         0.0600 
    176 H176        0.2228  -11.1654  -42.3877 H         1 UNK         0.0600 
    177 H177        1.5958  -10.0889  -42.6282 H         1 UNK         0.0600 
    178 H178        0.2079   -9.9812  -43.6882 H         1 UNK         0.0600 
    179 H179        3.4878  -12.3594  -43.8445 H         1 UNK         0.3000 
    180 H180        4.4933  -12.9593  -41.6593 H         1 UNK         0.0600 
    181 H181        3.0858  -15.4507  -40.5788 H         1 UNK         0.0600 
    182 H182        3.2498  -13.9194  -39.7314 H         1 UNK         0.0600 
    183 H183        4.6792  -14.8602  -40.1204 H         1 UNK         0.0600 
    184 H184        4.3154  -15.6837  -42.6790 H         1 UNK         0.3000 
    185 H185        6.7689  -15.3002  -44.7647 H         1 UNK         0.0600 
    186 H186        5.6513  -17.0936  -43.4978 H         1 UNK         0.0600 
    187 H187        4.2116  -16.9775  -44.5068 H         1 UNK         0.0600 
    188 H188        5.7320  -17.5324  -45.1915 H         1 UNK         0.0600 
    189 H189        6.1642  -14.7803  -46.8148 H         1 UNK         0.3000 
    190 H190       -1.4843  -20.9062  -48.2006 H         1 UNK         0.3000 
    191 H191       -1.5029  -22.4042  -50.5824 H         1 UNK         0.0600 
    192 H192       -2.2006  -20.0349  -50.4861 H         1 UNK         0.0600 
    193 H193       -3.4733  -21.0118  -51.1937 H         1 UNK         0.0600 
    194 H194       -3.6141  -20.4645  -49.5299 H         1 UNK         0.0600 
    195 H195       -3.4981  -22.7417  -47.6653 H         1 UNK         0.3000 
    196 H196       -5.2442  -24.7927  -48.8689 H         1 UNK         0.0600 
    197 H197       -6.2706  -24.8313  -46.6136 H         1 UNK         0.0600 
    198 H198       -6.1910  -23.1852  -47.2221 H         1 UNK         0.0600 
    199 H199       -5.0453  -23.7261  -46.0031 H         1 UNK         0.0600 
    200 H200       -2.7244  -24.5895  -46.2955 H         1 UNK         0.3000 
    201 H201       -2.9086  -27.3525  -45.6582 H         1 UNK         0.0600 
    202 H202       -2.2787  -25.6017  -44.0254 H         1 UNK         0.0600 
    203 H203       -0.7837  -25.2833  -44.9021 H         1 UNK         0.0600 
    204 H204       -1.0313  -26.8360  -44.1131 H         1 UNK         0.0600 
    205 H205       -0.5501  -25.5815  -47.7129 H         1 UNK         0.3000 
    206 H206        1.0486  -28.0880  -48.0439 H         1 UNK         0.0600 
    207 H207        2.2565  -26.1349  -47.0886 H         1 UNK         0.0600 
    208 H208        2.8825  -26.5855  -48.6665 H         1 UNK         0.0600 
    209 H209        1.8538  -25.1715  -48.5071 H         1 UNK         0.0600 
    210 H210       -0.2384  -25.2668  -49.9063 H         1 UNK         0.3000 
    211 H211        0.4674  -26.4965  -52.4352 H         1 UNK         0.0600 
    212 H212       -1.3430  -24.0798  -52.0312 H         1 UNK         0.0600 
    213 H213       -0.3785  -24.4845  -53.4325 H         1 UNK         0.0600 
    214 H214        0.4187  -23.9821  -51.9485 H         1 UNK         0.0600 
    215 H215       -2.3852  -26.5434  -50.4437 H         1 UNK         0.3000 
    216 H216       -4.3921  -27.4635  -50.5310 H         1 UNK         0.0600 
    217 H217       -4.7402  -29.5538  -51.7622 H         1 UNK         0.0600 
    218 H218       -3.1175  -29.5457  -51.0935 H         1 UNK         0.0600 
    219 H219       -3.3672  -29.2284  -52.8101 H         1 UNK         0.0600 
    220 H220       -3.8811  -25.0758  -52.1205 H         1 UNK         0.3000 
    221 H221       -5.8733  -25.1868  -54.3266 H         1 UNK         0.0600 
    222 H222       -3.9691  -22.9716  -53.3808 H         1 UNK         0.0600 
    223 H223       -3.7158  -24.0327  -54.7642 H         1 UNK         0.0600 
    224 H224       -5.0387  -22.8758  -54.7761 H         1 UNK         0.0600 
    225 H225       -5.2719  -23.8352  -51.1217 H         1 UNK         0.3000 
    226 H226       -6.4321  -22.7648  -49.5795 H         1 UNK         0.0600 
    227 H227       -7.9250  -24.7690  -49.7172 H         1 UNK         0.0600 
    228 H228       -8.7987  -23.3315  -49.2170 H         1 UNK         0.0600 
    229 H229       -8.9578  -23.9193  -50.8667 H         1 UNK         0.0600 
    230 H230       -5.7681  -21.3241  -51.9910 H         1 UNK         0.3000 
    231 H231       -7.8031  -19.3173  -52.4889 H         1 UNK         0.0600 
    232 H232       -4.7980  -19.4022  -53.1349 H         1 UNK         0.0600 
    233 H233       -5.9534  -18.2512  -53.7934 H         1 UNK         0.0600 
    234 H234       -6.0911  -19.9546  -54.1999 H         1 UNK         0.0600 
    235 H235       -7.7382  -17.1300  -51.8204 H         1 UNK         0.3000 
    236 H236       -6.5319  -16.5204  -49.2211 H         1 UNK         0.0600 
    237 H237       -8.8357  -15.7777  -49.7293 H         1 UNK         0.0600 
    238 H238       -7.7883  -14.3864  -49.5028 H         1 UNK         0.0600 
    239 H239       -8.2701  -14.8641  -51.1269 H         1 UNK         0.0600 
    240 H240       -4.3773  -17.0285  -50.2458 H         1 UNK         0.3000 
    241 H241       -3.2779  -15.3080  -52.1970 H         1 UNK         0.0600 
    242 H242       -2.4877  -13.1175  -48.9768 H         1 UNK         0.3800 
    243 H243       -3.7319  -14.3406  -48.9749 H         1 UNK         0.3800 
    244 H244       -1.3899  -16.9529  -50.4915 H         1 UNK         0.0800 
    245 H245       -2.6289  -17.8047  -51.3623 H         1 UNK         0.0800 
    246 H246       -0.0857  -18.6650  -53.9882 H         1 UNK         0.0800 
    247 H247       -1.1255  -19.2027  -52.6965 H         1 UNK         0.0800 
@<TRIPOS>BOND
     1    1    2 1    
     2    1  127 1    
     3    1  128 1    
     4    1  129 1    
     5    2    3 2    
     6    2    4 am   BACKBONE|DICT|INTERRES
     7    4    5 1    
     8    4  130 1    
     9    5    6 1    
    10    5   65 1    
    11    5  131 1    
    12    6    7 1    
    13    6  132 1    
    14    6  133 1    
    15    7    8 1    
    16    8    9 1    
    17    8  134 1    
    18    8  135 1    
    19    9   10 ar   
    20    9   14 ar   
    21   10   11 ar   
    22   10  136 1    
    23   11   12 ar   
    24   11  126 1    
    25   12   13 ar   
    26   12  137 1    
    27   13   14 ar   
    28   13   15 1    
    29   14  138 1    
    30   15   16 1    
    31   15  139 1    
    32   15  140 1    
    33   16   17 1    
    34   17   18 1    
    35   17  141 1    
    36   17  142 1    
    37   18   19 1    
    38   18   67 1    
    39   18  143 1    
    40   19   20 am   BACKBONE|DICT|INTERRES
    41   19  144 1    
    42   20   21 2    
    43   20   22 1    
    44   22   23 1    
    45   22   24 1    
    46   22  145 1    
    47   23  146 1    
    48   23  147 1    
    49   23  148 1    
    50   24   25 am   BACKBONE|DICT|INTERRES
    51   24  149 1    
    52   25   26 2    
    53   25   27 1    
    54   27   28 1    
    55   27   29 1    
    56   27  150 1    
    57   28  151 1    
    58   28  152 1    
    59   28  153 1    
    60   29   30 am   BACKBONE|DICT|INTERRES
    61   29  154 1    
    62   30   31 2    
    63   30   32 1    
    64   32   33 1    
    65   32   34 1    
    66   32  155 1    
    67   33  156 1    
    68   33  157 1    
    69   33  158 1    
    70   34   35 am   BACKBONE|DICT|INTERRES
    71   34  159 1    
    72   35   36 2    
    73   35   37 1    
    74   37   38 1    
    75   37   39 1    
    76   37  160 1    
    77   38  161 1    
    78   38  162 1    
    79   38  163 1    
    80   39   40 am   BACKBONE|DICT|INTERRES
    81   39  164 1    
    82   40   41 2    
    83   40   42 1    
    84   42   43 1    
    85   42   44 1    
    86   42  165 1    
    87   43  166 1    
    88   43  167 1    
    89   43  168 1    
    90   44   45 am   BACKBONE|DICT|INTERRES
    91   44  169 1    
    92   45   46 2    
    93   45   47 1    
    94   47   48 1    
    95   47   49 1    
    96   47  170 1    
    97   48  171 1    
    98   48  172 1    
    99   48  173 1    
   100   49   50 am   BACKBONE|DICT|INTERRES
   101   49  174 1    
   102   50   51 2    
   103   50   52 1    
   104   52   53 1    
   105   52   54 1    
   106   52  175 1    
   107   53  176 1    
   108   53  177 1    
   109   53  178 1    
   110   54   55 am   BACKBONE|DICT|INTERRES
   111   54  179 1    
   112   55   56 2    
   113   55   57 1    
   114   57   58 1    
   115   57   59 1    
   116   57  180 1    
   117   58  181 1    
   118   58  182 1    
   119   58  183 1    
   120   59   60 am   BACKBONE|DICT|INTERRES
   121   59  184 1    
   122   60   61 2    
   123   60   62 1    
   124   62   63 1    
   125   62   64 1    
   126   62  185 1    
   127   63  186 1    
   128   63  187 1    
   129   63  188 1    
   130   64   65 am   BACKBONE|DICT|INTERRES
   131   64  189 1    
   132   65   66 2    
   133   67   68 2    
   134   67   69 am   BACKBONE|DICT|INTERRES
   135   69   70 1    
   136   69  190 1    
   137   70   71 1    
   138   70   72 1    
   139   70  191 1    
   140   71  192 1    
   141   71  193 1    
   142   71  194 1    
   143   72   73 2    
   144   72   74 am   BACKBONE|DICT|INTERRES
   145   74   75 1    
   146   74  195 1    
   147   75   76 1    
   148   75   77 1    
   149   75  196 1    
   150   76  197 1    
   151   76  198 1    
   152   76  199 1    
   153   77   78 2    
   154   77   79 am   BACKBONE|DICT|INTERRES
   155   79   80 1    
   156   79  200 1    
   157   80   81 1    
   158   80   82 1    
   159   80  201 1    
   160   81  202 1    
   161   81  203 1    
   162   81  204 1    
   163   82   83 2    
   164   82   84 am   BACKBONE|DICT|INTERRES
   165   84   85 1    
   166   84  205 1    
   167   85   86 1    
   168   85   87 1    
   169   85  206 1    
   170   86  207 1    
   171   86  208 1    
   172   86  209 1    
   173   87   88 2    
   174   87   89 am   BACKBONE|DICT|INTERRES
   175   89   90 1    
   176   89  210 1    
   177   90   91 1    
   178   90   92 1    
   179   90  211 1    
   180   91  212 1    
   181   91  213 1    
   182   91  214 1    
   183   92   93 2    
   184   92   94 am   BACKBONE|DICT|INTERRES
   185   94   95 1    
   186   94  215 1    
   187   95   96 1    
   188   95   97 1    
   189   95  216 1    
   190   96  217 1    
   191   96  218 1    
   192   96  219 1    
   193   97   98 2    
   194   97   99 am   BACKBONE|DICT|INTERRES
   195   99  100 1    
   196   99  220 1    
   197  100  101 1    
   198  100  102 1    
   199  100  221 1    
   200  101  222 1    
   201  101  223 1    
   202  101  224 1    
   203  102  103 2    
   204  102  104 am   BACKBONE|DICT|INTERRES
   205  104  105 1    
   206  104  225 1    
   207  105  106 1    
   208  105  107 1    
   209  105  226 1    
   210  106  227 1    
   211  106  228 1    
   212  106  229 1    
   213  107  108 2    
   214  107  109 am   BACKBONE|DICT|INTERRES
   215  109  110 1    
   216  109  230 1    
   217  110  111 1    
   218  110  112 1    
   219  110  231 1    
   220  111  232 1    
   221  111  233 1    
   222  111  234 1    
   223  112  113 2    
   224  112  114 am   BACKBONE|DICT|INTERRES
   225  114  115 1    
   226  114  235 1    
   227  115  116 1    
   228  115  117 1    
   229  115  236 1    
   230  116  237 1    
   231  116  238 1    
   232  116  239 1    
   233  117  118 2    
   234  117  119 am   BACKBONE|DICT|INTERRES
   235  119  120 1    
   236  119  240 1    
   237  120  121 1    
   238  120  124 1    
   239  120  241 1    
   240  121  122 am   BACKBONE|DICT|INTERRES
   241  121  123 2    
   242  122  242 1    
   243  122  243 1    
   244  124  125 1    
   245  124  244 1    
   246  124  245 1    
   247  125  126 1    
   248  126  246 1    
   249  126  247 1    
@<TRIPOS>SUBSTRUCTURE
     1 UNK         1 GROUP             0       ****    0 ROOT    
