@<TRIPOS>MOLECULE
3R540
247   249    1
SMALL
USER_CHARGES


@<TRIPOS>ATOM
      1 CA         -2.1260   -7.0160  -51.3394 C.3       0 UNK        -0.1800 
      2 C          -1.0617   -8.0921  -51.1747 C.2       0 UNK         0.5000 
      3 O           0.1285   -7.8019  -51.3020 O.2       0 UNK        -0.5000 
      4 N          -1.4850   -9.3317  -50.9025 N.am      1 UNK        -0.5000 
      5 CA         -0.6144  -10.4797  -50.6325 C.3       1 UNK         0.1400 
      6 C6         -1.3615  -11.8236  -50.8202 C.3       23 UNK        -0.0398 
      7 S7         -2.8949  -11.9986  -49.8380 S.3       23 UNK        -0.2404 
      8 C8         -3.7020  -13.3928  -50.6911 C.3       23 UNK        -0.0205 
      9 C9         -2.8258  -14.6363  -50.6867 C.ar      23 UNK        -0.0193 
     10 C10        -2.1516  -15.0298  -51.8468 C.ar      23 UNK        -0.1150 
     11 C11        -1.2983  -16.1364  -51.8302 C.ar      23 UNK        -0.0193 
     12 C12        -1.1300  -16.8570  -50.6443 C.ar      23 UNK        -0.1150 
     13 C13        -1.8083  -16.4794  -49.4813 C.ar      23 UNK        -0.0193 
     14 C14        -2.6586  -15.3713  -49.5102 C.ar      23 UNK        -0.1150 
     15 C15        -1.5692  -17.2189  -48.1760 C.3       23 UNK        -0.0205 
     16 S16        -2.9386  -18.3254  -47.7240 S.3       23 UNK        -0.2404 
     17 C17        -2.2960  -19.0017  -46.1524 C.3       23 UNK        -0.0398 
     18 CA         -1.8851  -20.4908  -46.2705 C.3       11 UNK         0.1400 
     19 N          -0.8390  -20.8562  -45.3079 N.am      11 UNK        -0.5000 
     20 C          -0.1921  -22.0308  -45.3043 C.2       10 UNK         0.5000 
     21 O          -0.3751  -22.9113  -46.1445 O.2       10 UNK        -0.5000 
     22 CA          0.7851  -22.2930  -44.1423 C.3       10 UNK         0.1400 
     23 CB          2.1787  -21.7293  -44.4574 C.3       10 UNK        -0.1800 
     24 N           0.3294  -21.7875  -42.8438 N.am      10 UNK        -0.5000 
     25 C          -0.8140  -22.1420  -42.2362 C.2       9 UNK         0.5000 
     26 O          -1.6582  -22.8720  -42.7574 O.2       9 UNK        -0.5000 
     27 CA         -1.0495  -21.5957  -40.8106 C.3       9 UNK         0.1400 
     28 CB         -2.1358  -22.3713  -40.0376 C.3       9 UNK        -0.1800 
     29 N           0.1798  -21.5120  -40.0177 N.am      9 UNK        -0.5000 
     30 C           1.0293  -22.5084  -39.7134 C.2       8 UNK         0.5000 
     31 O           0.8276  -23.6892  -40.0010 O.2       8 UNK        -0.5000 
     32 CA          2.3265  -22.1222  -38.9628 C.3       8 UNK         0.1400 
     33 CB          3.5387  -22.9581  -39.4250 C.3       8 UNK        -0.1800 
     34 N           2.6412  -20.6870  -39.0089 N.am      8 UNK        -0.5000 
     35 C           2.8732  -19.9458  -40.1015 C.2       7 UNK         0.5000 
     36 O           2.9056  -20.3906  -41.2513 O.2       7 UNK        -0.5000 
     37 CA          3.0189  -18.4329  -39.8678 C.3       7 UNK         0.1400 
     38 CB          4.4564  -17.9728  -40.1497 C.3       7 UNK        -0.1800 
     39 N           2.0814  -17.6846  -40.7067 N.am      7 UNK        -0.5000 
     40 C           0.7427  -17.7774  -40.6273 C.2       6 UNK         0.5000 
     41 O           0.1610  -18.4663  -39.7873 O.2       6 UNK        -0.5000 
     42 CA         -0.0945  -16.9902  -41.6565 C.3       6 UNK         0.1400 
     43 CB         -0.6211  -15.6886  -41.0353 C.3       6 UNK        -0.1800 
     44 N           0.6597  -16.6819  -42.8718 N.am      6 UNK        -0.5000 
     45 C           0.9843  -17.5961  -43.7978 C.2       5 UNK         0.5000 
     46 O           0.5042  -18.7307  -43.8104 O.2       5 UNK        -0.5000 
     47 CA          2.0170  -17.2041  -44.8788 C.3       5 UNK         0.1400 
     48 CB          1.4074  -17.2777  -46.2830 C.3       5 UNK        -0.1800 
     49 N           2.6120  -15.8778  -44.6991 N.am      5 UNK        -0.5000 
     50 C           3.4840  -15.5461  -43.7382 C.2       4 UNK         0.5000 
     51 O           3.8970  -16.3403  -42.8950 O.2       4 UNK        -0.5000 
     52 CA          3.9256  -14.0706  -43.6722 C.3       4 UNK         0.1400 
     53 CB          5.2343  -13.8690  -44.4508 C.3       4 UNK        -0.1800 
     54 N           2.9283  -13.1120  -44.1621 N.am      4 UNK        -0.5000 
     55 C           1.6762  -12.9720  -43.7003 C.2       3 UNK         0.5000 
     56 O           1.1946  -13.6910  -42.8255 O.2       3 UNK        -0.5000 
     57 CA          0.8132  -11.8488  -44.3092 C.3       3 UNK         0.1400 
     58 CB          0.5929  -10.7276  -43.2817 C.3       3 UNK        -0.1800 
     59 N           1.3849  -11.2658  -45.5262 N.am      3 UNK        -0.5000 
     60 C           1.3241  -11.8251  -46.7407 C.2       2 UNK         0.5000 
     61 O           0.7952  -12.9147  -46.9710 O.2       2 UNK        -0.5000 
     62 CA          2.0196  -11.0531  -47.8769 C.3       2 UNK         0.1400 
     63 CB          3.3927  -11.6733  -48.1804 C.3       2 UNK        -0.1800 
     64 N           1.2222  -11.0312  -49.1030 N.am      2 UNK        -0.5000 
     65 C           0.0638  -10.3732  -49.2468 C.2       1 UNK         0.5000 
     66 O          -0.4552   -9.7025  -48.3491 O.2       1 UNK        -0.5000 
     67 C          -3.1155  -21.4169  -46.1616 C.2       11 UNK         0.5000 
     68 O          -3.6073  -21.9049  -47.1798 O.2       11 UNK        -0.5000 
     69 N          -3.5679  -21.6697  -44.9246 N.am      12 UNK        -0.5000 
     70 CA         -4.7050  -22.5388  -44.6169 C.3       12 UNK         0.1400 
     71 CB         -5.1340  -22.3362  -43.1573 C.3       12 UNK        -0.1800 
     72 C          -4.4024  -24.0195  -44.9004 C.2       12 UNK         0.5000 
     73 O          -5.2646  -24.7204  -45.4296 O.2       12 UNK        -0.5000 
     74 N          -3.1687  -24.4533  -44.6056 N.am      13 UNK        -0.5000 
     75 CA         -2.6450  -25.7826  -44.9331 C.3       13 UNK         0.1400 
     76 CB         -1.2596  -25.9561  -44.2937 C.3       13 UNK        -0.1800 
     77 C          -2.5840  -26.0451  -46.4518 C.2       13 UNK         0.5000 
     78 O          -2.7895  -27.1799  -46.8822 O.2       13 UNK        -0.5000 
     79 N          -2.3618  -24.9807  -47.2343 N.am      14 UNK        -0.5000 
     80 CA         -2.4279  -24.9643  -48.6953 C.3       14 UNK         0.1400 
     81 CB         -1.4355  -23.9139  -49.2230 C.3       14 UNK        -0.1800 
     82 C          -3.8556  -24.7195  -49.2353 C.2       14 UNK         0.5000 
     83 O          -3.9988  -24.4123  -50.4194 O.2       14 UNK        -0.5000 
     84 N          -4.8817  -24.8464  -48.3789 N.am      15 UNK        -0.5000 
     85 CA         -6.3126  -24.7062  -48.6702 C.3       15 UNK         0.1400 
     86 CB         -6.7812  -25.8104  -49.6419 C.3       15 UNK        -0.1800 
     87 C          -6.6836  -23.2851  -49.1370 C.2       15 UNK         0.5000 
     88 O          -7.3434  -23.1224  -50.1627 O.2       15 UNK        -0.5000 
     89 N          -6.2072  -22.2783  -48.3899 N.am      16 UNK        -0.5000 
     90 CA         -6.2691  -20.8426  -48.7001 C.3       16 UNK         0.1400 
     91 CB         -7.7241  -20.3298  -48.7247 C.3       16 UNK        -0.1800 
     92 C          -5.4747  -20.5122  -49.9808 C.2       16 UNK         0.5000 
     93 O          -5.9224  -19.7223  -50.8134 O.2       16 UNK        -0.5000 
     94 N          -4.3186  -21.1780  -50.1109 N.am      17 UNK        -0.5000 
     95 CA         -3.3837  -21.1633  -51.2375 C.3       17 UNK         0.1400 
     96 CB         -2.7394  -19.7770  -51.3963 C.3       17 UNK        -0.1800 
     97 C          -3.9502  -21.7162  -52.5633 C.2       17 UNK         0.5000 
     98 O          -3.3340  -21.5164  -53.6114 O.2       17 UNK        -0.5000 
     99 N          -5.0663  -22.4576  -52.5130 N.am      18 UNK        -0.5000 
    100 CA        -5.6432  -23.1517  -53.6664 C.3       18 UNK         0.1400 
    101 CB        -7.0565  -23.6433  -53.3263 C.3       18 UNK        -0.1800 
    102 C         -4.7677  -24.3208  -54.1552 C.2       18 UNK         0.5000 
    103 O         -4.7413  -24.5895  -55.3563 O.2       18 UNK        -0.5000 
    104 N         -4.0443  -24.9721  -53.2314 N.am      19 UNK        -0.5000 
    105 CA        -3.0700  -26.0203  -53.5415 C.3       19 UNK         0.1400 
    106 CB        -2.7618  -26.8263  -52.2709 C.3       19 UNK        -0.1800 
    107 C         -1.7726  -25.4481  -54.1433 C.2       19 UNK         0.5000 
    108 O         -1.1341  -26.1192  -54.9548 O.2       19 UNK        -0.5000 
    109 N         -1.4136  -24.2185  -53.7450 N.am      20 UNK        -0.5000 
    110 CA        -0.2907  -23.4627  -54.3033 C.3       20 UNK         0.1400 
    111 CB         0.1038  -22.3370  -53.3339 C.3       20 UNK        -0.1800 
    112 C         -0.6200  -22.8970  -55.6977 C.2       20 UNK         0.5000 
    113 O          0.2611  -22.8567  -56.5570 O.2       20 UNK        -0.5000 
    114 N         -1.8865  -22.4956  -55.8892 N.am      21 UNK        -0.5000 
    115 CA        -2.4858  -21.9635  -57.1160 C.3       21 UNK         0.1400 
    116 CB        -2.5229  -23.0405  -58.2201 C.3       21 UNK        -0.1800 
    117 C         -1.8303  -20.6426  -57.5677 C.2       21 UNK         0.5000 
    118 O         -1.5548  -20.4546  -58.7543 O.2       21 UNK        -0.5000 
    119 N         -1.5825  -19.7535  -56.5979 N.am      22 UNK        -0.5000 
    120 CA        -0.9449  -18.4418  -56.7974 C.3       22 UNK         0.1400 
    121 C         -1.8331  -17.3577  -57.4807 C.2       22 UNK         0.5000 
    122 N         -3.1299  -17.5743  -57.6647 N.am      22 UNK        -0.7600 
    123 O         -1.3302  -16.3054  -57.8656 O.2       22 UNK        -0.5000 
    124 C124       -0.2936  -17.9267  -55.4886 C.3       23 UNK        -0.0398 
    125 S125       -1.4783  -17.6749  -54.1213 S.3       23 UNK        -0.2404 
    126 C126       -0.5286  -16.5269  -53.0820 C.3       23 UNK        -0.0205 
    127 H127       -2.0609   -6.5722  -52.3328 H         1 UNK         0.0600 
    128 H128       -3.1316   -7.4176  -51.2116 H         1 UNK         0.0600 
    129 H129       -1.9789   -6.2272  -50.6017 H         1 UNK         0.0600 
    130 H130       -2.4717   -9.5043  -50.7711 H         1 UNK         0.3000 
    131 H131        0.1860  -10.4558  -51.3757 H         1 UNK         0.0600 
    132 H132       -1.6212  -11.9353  -51.8738 H         1 UNK         0.0800 
    133 H133       -0.7027  -12.6631  -50.5905 H         1 UNK         0.0800 
    134 H134       -3.9513  -13.0976  -51.7115 H         1 UNK         0.0800 
    135 H135       -4.6486  -13.6139  -50.1960 H         1 UNK         0.0800 
    136 H136       -2.2731  -14.4629  -52.7591 H         1 UNK         0.1150 
    137 H137       -0.4600  -17.7050  -50.6253 H         1 UNK         0.1150 
    138 H138       -3.1680  -15.0623  -48.6081 H         1 UNK         0.1150 
    139 H139       -0.6492  -17.8009  -48.2398 H         1 UNK         0.0800 
    140 H140       -1.4303  -16.4864  -47.3803 H         1 UNK         0.0800 
    141 H141       -1.4388  -18.4027  -45.8449 H         1 UNK         0.0800 
    142 H142       -3.0413  -18.8490  -45.3695 H         1 UNK         0.0800 
    143 H143       -1.4511  -20.6466  -47.2610 H         1 UNK         0.0600 
    144 H144       -0.5742  -20.1634  -44.6130 H         1 UNK         0.3000 
    145 H145        0.8817  -23.3756  -44.0424 H         1 UNK         0.0600 
    146 H146        2.8967  -22.0002  -43.6830 H         1 UNK         0.0600 
    147 H147        2.5550  -22.1237  -45.4021 H         1 UNK         0.0600 
    148 H148        2.1691  -20.6426  -44.5366 H         1 UNK         0.0600 
    149 H149        0.9718  -21.1773  -42.3536 H         1 UNK         0.3000 
    150 H150       -1.4017  -20.5709  -40.9352 H         1 UNK         0.0600 
    151 H151       -3.1029  -22.2890  -40.5322 H         1 UNK         0.0600 
    152 H152       -2.2580  -21.9785  -39.0282 H         1 UNK         0.0600 
    153 H153       -1.8973  -23.4324  -39.9584 H         1 UNK         0.0600 
    154 H154        0.4335  -20.5723  -39.7337 H         1 UNK         0.3000 
    155 H155        2.1451  -22.3584  -37.9134 H         1 UNK         0.0600 
    156 H156        4.4428  -22.6738  -38.8867 H         1 UNK         0.0600 
    157 H157        3.7310  -22.8382  -40.4916 H         1 UNK         0.0600 
    158 H158        3.3755  -24.0207  -39.2416 H         1 UNK         0.0600 
    159 H159        2.6073  -20.2157  -38.1152 H         1 UNK         0.3000 
    160 H160        2.7864  -18.2029  -38.8259 H         1 UNK         0.0600 
    161 H161        4.7620  -18.2109  -41.1693 H         1 UNK         0.0600 
    162 H162        5.1603  -18.4622  -39.4757 H         1 UNK         0.0600 
    163 H163        4.5636  -16.8971  -40.0095 H         1 UNK         0.0600 
    164 H164        2.4928  -17.1414  -41.4562 H         1 UNK         0.3000 
    165 H165       -0.9538  -17.6075  -41.9273 H         1 UNK         0.0600 
    166 H166        0.1929  -15.0456  -40.6988 H         1 UNK         0.0600 
    167 H167       -1.2219  -15.1243  -41.7488 H         1 UNK         0.0600 
    168 H168       -1.2522  -15.8970  -40.1704 H         1 UNK         0.0600 
    169 H169        1.0421  -15.7446  -42.9395 H         1 UNK         0.3000 
    170 H170        2.8181  -17.9441  -44.8228 H         1 UNK         0.0600 
    171 H171        0.9573  -18.2540  -46.4672 H         1 UNK         0.0600 
    172 H172        0.6397  -16.5164  -46.4141 H         1 UNK         0.0600 
    173 H173        2.1657  -17.1229  -47.0506 H         1 UNK         0.0600 
    174 H174        2.3038  -15.1542  -45.3328 H         1 UNK         0.3000 
    175 H175        4.1126  -13.8375  -42.6221 H         1 UNK         0.0600 
    176 H176        5.0987  -14.0485  -45.5182 H         1 UNK         0.0600 
    177 H177        5.6167  -12.8558  -44.3259 H         1 UNK         0.0600 
    178 H178        6.0085  -14.5520  -44.0984 H         1 UNK         0.0600 
    179 H179        3.2356  -12.4739  -44.8802 H         1 UNK         0.3000 
    180 H180       -0.1594  -12.2828  -44.5515 H         1 UNK         0.0600 
    181 H181        0.1324  -11.1149  -42.3717 H         1 UNK         0.0600 
    182 H182        1.5320  -10.2514  -42.9970 H         1 UNK         0.0600 
    183 H183       -0.0699   -9.9566  -43.6752 H         1 UNK         0.0600 
    184 H184        1.8412  -10.3707  -45.4199 H         1 UNK         0.3000 
    185 H185        2.1741  -10.0193  -47.5599 H         1 UNK         0.0600 
    186 H186        4.0266  -11.6768  -47.2927 H         1 UNK         0.0600 
    187 H187        3.3020  -12.7054  -48.5222 H         1 UNK         0.0600 
    188 H188        3.9194  -11.1095  -48.9507 H         1 UNK         0.0600 
    189 H189        1.5751  -11.5827  -49.8712 H         1 UNK         0.3000 
    190 H190       -3.0591  -21.2983  -44.1359 H         1 UNK         0.3000 
    191 H191       -5.5387  -22.2405  -45.2560 H         1 UNK         0.0600 
    192 H192       -6.0249  -22.9228  -42.9296 H         1 UNK         0.0600 
    193 H193       -5.3713  -21.2918  -42.9545 H         1 UNK         0.0600 
    194 H194       -4.3541  -22.6465  -42.4631 H         1 UNK         0.0600 
    195 H195       -2.5406  -23.8237  -44.1108 H         1 UNK         0.3000 
    196 H196       -3.3189  -26.5216  -44.4951 H         1 UNK         0.0600 
    197 H197       -0.8754  -26.9626  -44.4630 H         1 UNK         0.0600 
    198 H198       -1.2985  -25.7981  -43.2156 H         1 UNK         0.0600 
    199 H199       -0.5359  -25.2551  -44.7088 H         1 UNK         0.0600 
    200 H200       -2.1568  -24.0936  -46.7897 H         1 UNK         0.3000 
    201 H201       -2.1116  -25.9380  -49.0735 H         1 UNK         0.0600 
    202 H202       -0.4268  -24.1114  -48.8597 H         1 UNK         0.0600 
    203 H203       -1.7090  -22.9074  -48.9060 H         1 UNK         0.0600 
    204 H204       -1.3902  -23.9218  -50.3126 H         1 UNK         0.0600 
    205 H205       -4.6680  -25.0510  -47.4100 H         1 UNK         0.3000 
    206 H206       -6.8365  -24.8604  -47.7260 H         1 UNK         0.0600 
    207 H207       -6.5483  -26.8009  -49.2514 H         1 UNK         0.0600 
    208 H208       -7.8606  -25.7669  -49.7918 H         1 UNK         0.0600 
    209 H209       -6.3120  -25.7200  -50.6216 H         1 UNK         0.0600 
    210 H210       -5.5839  -22.5159  -47.6278 H         1 UNK         0.3000 
    211 H211       -5.7576  -20.3285  -47.8851 H         1 UNK         0.0600 
    212 H212       -8.2872  -20.7348  -49.5657 H         1 UNK         0.0600 
    213 H213       -7.7498  -19.2430  -48.8110 H         1 UNK         0.0600 
    214 H214       -8.2508  -20.5950  -47.8081 H         1 UNK         0.0600 
    215 H215       -4.0594  -21.7832  -49.3412 H         1 UNK         0.3000 
    216 H216       -2.5861  -21.8520  -50.9619 H         1 UNK         0.0600 
    217 H217       -3.4551  -19.0274  -51.7347 H         1 UNK         0.0600 
    218 H218       -1.9244  -19.8035  -52.1186 H         1 UNK         0.0600 
    219 H219       -2.3170  -19.4382  -50.4519 H         1 UNK         0.0600 
    220 H220       -5.5088  -22.6151  -51.6167 H         1 UNK         0.3000 
    221 H221       -5.7240  -22.4331  -54.4847 H         1 UNK         0.0600 
    222 H222       -7.0414  -24.3939  -52.5360 H         1 UNK         0.0600 
    223 H223       -7.6928  -22.8214  -52.9975 H         1 UNK         0.0600 
    224 H224       -7.5319  -24.0956  -54.1974 H         1 UNK         0.0600 
    225 H225       -4.1268  -24.7001  -52.2534 H         1 UNK         0.3000 
    226 H226       -3.5125  -26.6981  -54.2746 H         1 UNK         0.0600 
    227 H227       -3.6739  -27.2063  -51.8100 H         1 UNK         0.0600 
    228 H228       -2.1288  -27.6844  -52.4999 H         1 UNK         0.0600 
    229 H229       -2.2362  -26.2227  -51.5314 H         1 UNK         0.0600 
    230 H230       -2.0104  -23.7360  -53.0912 H         1 UNK         0.3000 
    231 H231        0.5639  -24.1350  -54.4060 H         1 UNK         0.0600 
    232 H232       -0.6960  -21.6080  -53.2093 H         1 UNK         0.0600 
    233 H233        0.3550  -22.7322  -52.3495 H         1 UNK         0.0600 
    234 H234        0.9784  -21.7987  -53.7012 H         1 UNK         0.0600 
    235 H235       -2.4954  -22.4774  -55.0769 H         1 UNK         0.3000 
    236 H236       -3.5189  -21.7192  -56.8646 H         1 UNK         0.0600 
    237 H237       -3.0099  -23.9489  -57.8645 H         1 UNK         0.0600 
    238 H238       -3.0831  -22.6909  -59.0880 H         1 UNK         0.0600 
    239 H239       -1.5228  -23.3077  -58.5621 H         1 UNK         0.0600 
    240 H240       -1.8535  -19.9752  -55.6498 H         1 UNK         0.3000 
    241 H241       -0.1235  -18.6042  -57.4980 H         1 UNK         0.0600 
    242 H242       -3.5554  -18.4300  -57.3477 H         1 UNK         0.3800 
    243 H243       -3.6930  -16.8690  -58.1135 H         1 UNK         0.3800 
    244 H244        0.2440  -16.9959  -55.6782 H         1 UNK         0.0800 
    245 H245        0.4613  -18.6388  -55.1522 H         1 UNK         0.0800 
    246 H246       -0.2827  -15.6335  -53.6581 H         1 UNK         0.0800 
    247 H247        0.4212  -16.9889  -52.8084 H         1 UNK         0.0800 
@<TRIPOS>BOND
     1    1    2 1    
     2    1  127 1    
     3    1  128 1    
     4    1  129 1    
     5    2    3 2    
     6    2    4 am   BACKBONE|DICT|INTERRES
     7    4    5 1    
     8    4  130 1    
     9    5    6 1    
    10    5   65 1    
    11    5  131 1    
    12    6    7 1    
    13    6  132 1    
    14    6  133 1    
    15    7    8 1    
    16    8    9 1    
    17    8  134 1    
    18    8  135 1    
    19    9   10 ar   
    20    9   14 ar   
    21   10   11 ar   
    22   10  136 1    
    23   11   12 ar   
    24   11  126 1    
    25   12   13 ar   
    26   12  137 1    
    27   13   14 ar   
    28   13   15 1    
    29   14  138 1    
    30   15   16 1    
    31   15  139 1    
    32   15  140 1    
    33   16   17 1    
    34   17   18 1    
    35   17  141 1    
    36   17  142 1    
    37   18   19 1    
    38   18   67 1    
    39   18  143 1    
    40   19   20 am   BACKBONE|DICT|INTERRES
    41   19  144 1    
    42   20   21 2    
    43   20   22 1    
    44   22   23 1    
    45   22   24 1    
    46   22  145 1    
    47   23  146 1    
    48   23  147 1    
    49   23  148 1    
    50   24   25 am   BACKBONE|DICT|INTERRES
    51   24  149 1    
    52   25   26 2    
    53   25   27 1    
    54   27   28 1    
    55   27   29 1    
    56   27  150 1    
    57   28  151 1    
    58   28  152 1    
    59   28  153 1    
    60   29   30 am   BACKBONE|DICT|INTERRES
    61   29  154 1    
    62   30   31 2    
    63   30   32 1    
    64   32   33 1    
    65   32   34 1    
    66   32  155 1    
    67   33  156 1    
    68   33  157 1    
    69   33  158 1    
    70   34   35 am   BACKBONE|DICT|INTERRES
    71   34  159 1    
    72   35   36 2    
    73   35   37 1    
    74   37   38 1    
    75   37   39 1    
    76   37  160 1    
    77   38  161 1    
    78   38  162 1    
    79   38  163 1    
    80   39   40 am   BACKBONE|DICT|INTERRES
    81   39  164 1    
    82   40   41 2    
    83   40   42 1    
    84   42   43 1    
    85   42   44 1    
    86   42  165 1    
    87   43  166 1    
    88   43  167 1    
    89   43  168 1    
    90   44   45 am   BACKBONE|DICT|INTERRES
    91   44  169 1    
    92   45   46 2    
    93   45   47 1    
    94   47   48 1    
    95   47   49 1    
    96   47  170 1    
    97   48  171 1    
    98   48  172 1    
    99   48  173 1    
   100   49   50 am   BACKBONE|DICT|INTERRES
   101   49  174 1    
   102   50   51 2    
   103   50   52 1    
   104   52   53 1    
   105   52   54 1    
   106   52  175 1    
   107   53  176 1    
   108   53  177 1    
   109   53  178 1    
   110   54   55 am   BACKBONE|DICT|INTERRES
   111   54  179 1    
   112   55   56 2    
   113   55   57 1    
   114   57   58 1    
   115   57   59 1    
   116   57  180 1    
   117   58  181 1    
   118   58  182 1    
   119   58  183 1    
   120   59   60 am   BACKBONE|DICT|INTERRES
   121   59  184 1    
   122   60   61 2    
   123   60   62 1    
   124   62   63 1    
   125   62   64 1    
   126   62  185 1    
   127   63  186 1    
   128   63  187 1    
   129   63  188 1    
   130   64   65 am   BACKBONE|DICT|INTERRES
   131   64  189 1    
   132   65   66 2    
   133   67   68 2    
   134   67   69 am   BACKBONE|DICT|INTERRES
   135   69   70 1    
   136   69  190 1    
   137   70   71 1    
   138   70   72 1    
   139   70  191 1    
   140   71  192 1    
   141   71  193 1    
   142   71  194 1    
   143   72   73 2    
   144   72   74 am   BACKBONE|DICT|INTERRES
   145   74   75 1    
   146   74  195 1    
   147   75   76 1    
   148   75   77 1    
   149   75  196 1    
   150   76  197 1    
   151   76  198 1    
   152   76  199 1    
   153   77   78 2    
   154   77   79 am   BACKBONE|DICT|INTERRES
   155   79   80 1    
   156   79  200 1    
   157   80   81 1    
   158   80   82 1    
   159   80  201 1    
   160   81  202 1    
   161   81  203 1    
   162   81  204 1    
   163   82   83 2    
   164   82   84 am   BACKBONE|DICT|INTERRES
   165   84   85 1    
   166   84  205 1    
   167   85   86 1    
   168   85   87 1    
   169   85  206 1    
   170   86  207 1    
   171   86  208 1    
   172   86  209 1    
   173   87   88 2    
   174   87   89 am   BACKBONE|DICT|INTERRES
   175   89   90 1    
   176   89  210 1    
   177   90   91 1    
   178   90   92 1    
   179   90  211 1    
   180   91  212 1    
   181   91  213 1    
   182   91  214 1    
   183   92   93 2    
   184   92   94 am   BACKBONE|DICT|INTERRES
   185   94   95 1    
   186   94  215 1    
   187   95   96 1    
   188   95   97 1    
   189   95  216 1    
   190   96  217 1    
   191   96  218 1    
   192   96  219 1    
   193   97   98 2    
   194   97   99 am   BACKBONE|DICT|INTERRES
   195   99  100 1    
   196   99  220 1    
   197  100  101 1    
   198  100  102 1    
   199  100  221 1    
   200  101  222 1    
   201  101  223 1    
   202  101  224 1    
   203  102  103 2    
   204  102  104 am   BACKBONE|DICT|INTERRES
   205  104  105 1    
   206  104  225 1    
   207  105  106 1    
   208  105  107 1    
   209  105  226 1    
   210  106  227 1    
   211  106  228 1    
   212  106  229 1    
   213  107  108 2    
   214  107  109 am   BACKBONE|DICT|INTERRES
   215  109  110 1    
   216  109  230 1    
   217  110  111 1    
   218  110  112 1    
   219  110  231 1    
   220  111  232 1    
   221  111  233 1    
   222  111  234 1    
   223  112  113 2    
   224  112  114 am   BACKBONE|DICT|INTERRES
   225  114  115 1    
   226  114  235 1    
   227  115  116 1    
   228  115  117 1    
   229  115  236 1    
   230  116  237 1    
   231  116  238 1    
   232  116  239 1    
   233  117  118 2    
   234  117  119 am   BACKBONE|DICT|INTERRES
   235  119  120 1    
   236  119  240 1    
   237  120  121 1    
   238  120  124 1    
   239  120  241 1    
   240  121  122 am   BACKBONE|DICT|INTERRES
   241  121  123 2    
   242  122  242 1    
   243  122  243 1    
   244  124  125 1    
   245  124  244 1    
   246  124  245 1    
   247  125  126 1    
   248  126  246 1    
   249  126  247 1    
@<TRIPOS>SUBSTRUCTURE
     1 UNK         1 GROUP             0       ****    0 ROOT    
