@<TRIPOS>MOLECULE
3R540
247   249    1
SMALL
USER_CHARGES


@<TRIPOS>ATOM
      1 CA         -3.8431  -13.8071  -51.7257 C.3       0 UNK        -0.1800 
      2 C          -2.6861  -13.2116  -50.9348 C.2       0 UNK         0.5000 
      3 O          -2.7255  -12.0308  -50.5859 O.2       0 UNK        -0.5000 
      4 N          -1.6589  -14.0177  -50.6429 N.am      1 UNK        -0.5000 
      5 CA         -0.4950  -13.6447  -49.8351 C.3       1 UNK         0.1400 
      6 C6          0.8092  -14.3631  -50.2807 C.3       23 UNK        -0.0398 
      7 S7          0.6964  -16.1777  -50.4264 S.3       23 UNK        -0.2404 
      8 C8          2.2288  -16.5612  -51.3227 C.3       23 UNK        -0.0205 
      9 C9          2.3714  -18.0644  -51.4851 C.ar      23 UNK        -0.0193 
     10 C10         1.9381  -18.6966  -52.6529 C.ar      23 UNK        -0.1150 
     11 C11         1.9993  -20.0876  -52.7704 C.ar      23 UNK        -0.0193 
     12 C12         2.5080  -20.8450  -51.7109 C.ar      23 UNK        -0.1150 
     13 C13         2.9638  -20.2251  -50.5429 C.ar      23 UNK        -0.0193 
     14 C14         2.9045  -18.8297  -50.4456 C.ar      23 UNK        -0.1150 
     15 C15         3.5132  -21.0854  -49.4058 C.3       23 UNK        -0.0205 
     16 S16         3.1606  -20.4532  -47.7282 S.3       23 UNK        -0.2404 
     17 C17         1.3351  -20.4076  -47.7192 C.3       23 UNK        -0.0398 
     18 CA          0.7404  -21.6836  -47.0957 C.3       11 UNK         0.1400 
     19 N           1.1279  -21.8622  -45.6945 N.am      11 UNK        -0.5000 
     20 C           1.0838  -23.0412  -45.0627 C.2       10 UNK         0.5000 
     21 O           0.6797  -24.0788  -45.5857 O.2       10 UNK        -0.5000 
     22 CA          1.5149  -23.0527  -43.5876 C.3       10 UNK         0.1400 
     23 CB          3.0456  -23.0910  -43.4671 C.3       10 UNK        -0.1800 
     24 N           0.9963  -21.9205  -42.8192 N.am      10 UNK        -0.5000 
     25 C          -0.3024  -21.6438  -42.6355 C.2       9 UNK         0.5000 
     26 O          -1.2105  -22.2553  -43.2024 O.2       9 UNK        -0.5000 
     27 CA         -0.6346  -20.4957  -41.6577 C.3       9 UNK         0.1400 
     28 CB         -2.0355  -20.6472  -41.0295 C.3       9 UNK        -0.1800 
     29 N           0.3751  -20.2947  -40.6098 N.am      9 UNK        -0.5000 
     30 C           0.7588  -21.1800  -39.6739 C.2       8 UNK         0.5000 
     31 O           0.3206  -22.3277  -39.5897 O.2       8 UNK        -0.5000 
     32 CA          1.8237  -20.7159  -38.6604 C.3       8 UNK         0.1400 
     33 CB          3.2151  -21.2105  -39.0865 C.3       8 UNK        -0.1800 
     34 N           1.8722  -19.2642  -38.4814 N.am      8 UNK        -0.5000 
     35 C           0.9142  -18.5267  -37.9041 C.2       7 UNK         0.5000 
     36 O          -0.1150  -18.9992  -37.4191 O.2       7 UNK        -0.5000 
     37 CA          1.1271  -16.9999  -37.8686 C.3       7 UNK         0.1400 
     38 CB          2.5897  -16.5597  -38.1080 C.3       7 UNK        -0.1800 
     39 N           0.2262  -16.3023  -38.7912 N.am      7 UNK        -0.5000 
     40 C           0.1315  -16.4726  -40.1181 C.2       6 UNK         0.5000 
     41 O           0.7950  -17.2950  -40.7579 O.2       6 UNK        -0.5000 
     42 CA         -0.8543  -15.5299  -40.8373 C.3       6 UNK         0.1400 
     43 CB         -0.3489  -14.0773  -40.8015 C.3       6 UNK        -0.1800 
     44 N          -1.0489  -15.9081  -42.2332 N.am      6 UNK        -0.5000 
     45 C          -1.8287  -16.9051  -42.6669 C.2       5 UNK         0.5000 
     46 O          -2.5546  -17.5710  -41.9300 O.2       5 UNK        -0.5000 
     47 CA         -1.8040  -17.2083  -44.1776 C.3       5 UNK         0.1400 
     48 CB         -3.0685  -16.6523  -44.8509 C.3       5 UNK        -0.1800 
     49 N          -0.6233  -16.6461  -44.8343 N.am      5 UNK        -0.5000 
     50 C           0.5785  -17.2381  -44.8901 C.2       4 UNK         0.5000 
     51 O           0.7844  -18.3964  -44.5219 O.2       4 UNK        -0.5000 
     52 CA          1.7486  -16.3944  -45.4378 C.3       4 UNK         0.1400 
     53 CB          2.1315  -16.8381  -46.8562 C.3       4 UNK        -0.1800 
     54 N           1.4311  -14.9657  -45.4706 N.am      4 UNK        -0.5000 
     55 C           1.6775  -14.1037  -44.4743 C.2       3 UNK         0.5000 
     56 O           2.2337  -14.4210  -43.4237 O.2       3 UNK        -0.5000 
     57 CA          1.2109  -12.6447  -44.6674 C.3       3 UNK         0.1400 
     58 CB          2.3639  -11.7796  -45.1978 C.3       3 UNK        -0.1800 
     59 N           0.0623  -12.5081  -45.5661 N.am      3 UNK        -0.5000 
     60 C          -1.1605  -12.9977  -45.3212 C.2       2 UNK         0.5000 
     61 O          -1.4627  -13.5660  -44.2731 O.2       2 UNK        -0.5000 
     62 CA         -2.2038  -12.8948  -46.4527 C.3       2 UNK         0.1400 
     63 CB         -3.0772  -11.6464  -46.2633 C.3       2 UNK        -0.1800 
     64 N          -1.6524  -12.8913  -47.8135 N.am      2 UNK        -0.5000 
     65 C          -0.8355  -13.8157  -48.3396 C.2       1 UNK         0.5000 
     66 O          -0.3821  -14.7602  -47.6932 O.2       1 UNK        -0.5000 
     67 C          -0.7859  -21.7214  -47.2840 C.2       11 UNK         0.5000 
     68 O          -1.2419  -22.1327  -48.3516 O.2       11 UNK        -0.5000 
     69 N          -1.5522  -21.3265  -46.2559 N.am      12 UNK        -0.5000 
     70 CA         -3.0107  -21.4504  -46.2393 C.3       12 UNK         0.1400 
     71 CB         -3.6178  -20.6010  -45.1153 C.3       12 UNK        -0.1800 
     72 C          -3.4560  -22.9178  -46.1479 C.2       12 UNK         0.5000 
     73 O          -4.3837  -23.3135  -46.8529 O.2       12 UNK        -0.5000 
     74 N          -2.7523  -23.7075  -45.3270 N.am      13 UNK        -0.5000 
     75 CA         -2.9379  -25.1532  -45.2272 C.3       13 UNK         0.1400 
     76 CB         -2.1668  -25.6824  -44.0080 C.3       13 UNK        -0.1800 
     77 C          -2.5170  -25.8936  -46.5124 C.2       13 UNK         0.5000 
     78 O          -3.2305  -26.7965  -46.9513 O.2       13 UNK        -0.5000 
     79 N          -1.3693  -25.5053  -47.0854 N.am      14 UNK        -0.5000 
     80 CA         -0.7707  -26.1613  -48.2464 C.3       14 UNK         0.1400 
     81 CB          0.7236  -25.8107  -48.3224 C.3       14 UNK        -0.1800 
     82 C          -1.4595  -25.8339  -49.5829 C.2       14 UNK         0.5000 
     83 O          -1.6862  -26.7514  -50.3733 O.2       14 UNK        -0.5000 
     84 N          -1.7299  -24.5468  -49.8433 N.am      15 UNK        -0.5000 
     85 CA         -2.0745  -24.0522  -51.1810 C.3       15 UNK         0.1400 
     86 CB         -0.7731  -23.7103  -51.9320 C.3       15 UNK        -0.1800 
     87 C          -3.0574  -22.8669  -51.1579 C.2       15 UNK         0.5000 
     88 O          -3.1269  -22.1170  -52.1338 O.2       15 UNK        -0.5000 
     89 N          -3.7944  -22.7001  -50.0491 N.am      16 UNK        -0.5000 
     90 CA         -4.7880  -21.6434  -49.8077 C.3       16 UNK         0.1400 
     91 CB         -5.9879  -21.7951  -50.7666 C.3       16 UNK        -0.1800 
     92 C          -4.2080  -20.2111  -49.8282 C.2       16 UNK         0.5000 
     93 O          -4.9639  -19.2604  -50.0232 O.2       16 UNK        -0.5000 
     94 N          -2.8846  -20.0769  -49.6389 N.am      17 UNK        -0.5000 
     95 CA         -2.1053  -18.8319  -49.6389 C.3       17 UNK         0.1400 
     96 CB         -2.3041  -18.0796  -48.3093 C.3       17 UNK        -0.1800 
     97 C          -2.3790  -17.9514  -50.8763 C.2       17 UNK         0.5000 
     98 O          -2.5871  -16.7449  -50.7506 O.2       17 UNK        -0.5000 
     99 N          -2.4233  -18.5975  -52.0490 N.am      18 UNK        -0.5000 
    100 CA        -2.6862  -18.0222  -53.3701 C.3       18 UNK         0.1400 
    101 CB        -1.6273  -16.9649  -53.7448 C.3       18 UNK        -0.1800 
    102 C         -4.1246  -17.5093  -53.5925 C.2       18 UNK         0.5000 
    103 O         -4.3959  -16.9795  -54.6705 O.2       18 UNK        -0.5000 
    104 N         -5.0505  -17.7222  -52.6428 N.am      19 UNK        -0.5000 
    105 CA        -6.4709  -17.3790  -52.8018 C.3       19 UNK         0.1400 
    106 CB        -7.1867  -17.4664  -51.4466 C.3       19 UNK        -0.1800 
    107 C         -7.1800  -18.2637  -53.8479 C.2       19 UNK         0.5000 
    108 O         -8.1074  -17.8007  -54.5117 O.2       19 UNK        -0.5000 
    109 N         -6.6918  -19.5016  -54.0036 N.am      20 UNK        -0.5000 
    110 CA        -7.0788  -20.4526  -55.0488 C.3       20 UNK         0.1400 
    111 CB        -7.2776  -21.8352  -54.4022 C.3       20 UNK        -0.1800 
    112 C         -6.0241  -20.5044  -56.1769 C.2       20 UNK         0.5000 
    113 O         -5.9422  -21.5061  -56.8907 O.2       20 UNK        -0.5000 
    114 N         -5.1883  -19.4565  -56.2809 N.am      21 UNK        -0.5000 
    115 CA        -4.0607  -19.2873  -57.2102 C.3       21 UNK         0.1400 
    116 CB        -4.5718  -19.1718  -58.6611 C.3       21 UNK        -0.1800 
    117 C         -2.9510  -20.3539  -57.0634 C.2       21 UNK         0.5000 
    118 O         -2.1318  -20.5075  -57.9705 O.2       21 UNK        -0.5000 
    119 N         -2.9537  -21.0764  -55.9337 N.am      22 UNK        -0.5000 
    120 CA        -2.1161  -22.2522  -55.6442 C.3       22 UNK         0.1400 
    121 C         -2.3958  -23.4734  -56.5753 C.2       22 UNK         0.5000 
    122 N         -3.5628  -23.5658  -57.2056 N.am      22 UNK        -0.7600 
    123 O         -1.5645  -24.3673  -56.7084 O.2       22 UNK        -0.5000 
    124 C124       -0.6060  -21.9088  -55.5006 C.3       23 UNK        -0.0398 
    125 S125       -0.3075  -20.7497  -54.1243 S.3       23 UNK        -0.2404 
    126 C126        1.5068  -20.7708  -54.0367 C.3       23 UNK        -0.0205 
    127 H127       -4.1890  -13.1015  -52.4810 H         1 UNK         0.0600 
    128 H128       -3.5529  -14.7256  -52.2344 H         1 UNK         0.0600 
    129 H129       -4.6756  -14.0340  -51.0600 H         1 UNK         0.0600 
    130 H130       -1.7442  -15.0114  -50.8472 H         1 UNK         0.3000 
    131 H131       -0.3026  -12.5793  -49.9797 H         1 UNK         0.0600 
    132 H132        1.1057  -13.9723  -51.2548 H         1 UNK         0.0800 
    133 H133        1.6293  -14.1197  -49.6030 H         1 UNK         0.0800 
    134 H134        3.0842  -16.1608  -50.7763 H         1 UNK         0.0800 
    135 H135        2.2173  -16.0700  -52.2969 H         1 UNK         0.0800 
    136 H136        1.5331  -18.1101  -53.4646 H         1 UNK         0.1150 
    137 H137        2.5483  -21.9220  -51.7966 H         1 UNK         0.1150 
    138 H138        3.2445  -18.3329  -49.5482 H         1 UNK         0.1150 
    139 H139        3.1180  -22.1001  -49.4761 H         1 UNK         0.0800 
    140 H140        4.5940  -21.1660  -49.5264 H         1 UNK         0.0800 
    141 H141        1.0081  -19.5285  -47.1633 H         1 UNK         0.0800 
    142 H142        0.9713  -20.2694  -48.7382 H         1 UNK         0.0800 
    143 H143        1.1378  -22.5286  -47.6613 H         1 UNK         0.0600 
    144 H144        1.4576  -21.0450  -45.1995 H         1 UNK         0.3000 
    145 H145        1.1151  -23.9638  -43.1375 H         1 UNK         0.0600 
    146 H146        3.3568  -23.1955  -42.4274 H         1 UNK         0.0600 
    147 H147        3.4590  -23.9384  -44.0158 H         1 UNK         0.0600 
    148 H148        3.5049  -22.1858  -43.8662 H         1 UNK         0.0600 
    149 H149        1.6732  -21.3573  -42.3266 H         1 UNK         0.3000 
    150 H150       -0.6304  -19.5847  -42.2554 H         1 UNK         0.0600 
    151 H151       -2.8145  -20.6023  -41.7904 H         1 UNK         0.0600 
    152 H152       -2.2359  -19.8459  -40.3180 H         1 UNK         0.0600 
    153 H153       -2.1449  -21.5966  -40.5047 H         1 UNK         0.0600 
    154 H154        0.7803  -19.3638  -40.5808 H         1 UNK         0.3000 
    155 H155        1.5792  -21.1685  -37.6972 H         1 UNK         0.0600 
    156 H156        3.2253  -22.2948  -39.2062 H         1 UNK         0.0600 
    157 H157        3.9687  -20.9609  -38.3393 H         1 UNK         0.0600 
    158 H158        3.5250  -20.7729  -40.0364 H         1 UNK         0.0600 
    159 H159        2.6715  -18.7863  -38.8715 H         1 UNK         0.3000 
    160 H160        0.8516  -16.6792  -36.8628 H         1 UNK         0.0600 
    161 H161        2.9351  -16.7880  -39.1168 H         1 UNK         0.0600 
    162 H162        2.6978  -15.4847  -37.9628 H         1 UNK         0.0600 
    163 H163        3.2671  -17.0459  -37.4047 H         1 UNK         0.0600 
    164 H164       -0.3842  -15.6246  -38.3565 H         1 UNK         0.3000 
    165 H165       -1.8158  -15.5795  -40.3222 H         1 UNK         0.0600 
    166 H166       -1.0234  -13.4114  -41.3406 H         1 UNK         0.0600 
    167 H167       -0.2792  -13.7055  -39.7788 H         1 UNK         0.0600 
    168 H168        0.6402  -13.9850  -41.2510 H         1 UNK         0.0600 
    169 H169       -0.4969  -15.4064  -42.9127 H         1 UNK         0.3000 
    170 H170       -1.7936  -18.2926  -44.2979 H         1 UNK         0.0600 
    171 H171       -3.9620  -17.1422  -44.4621 H         1 UNK         0.0600 
    172 H172       -3.1835  -15.5831  -44.6745 H         1 UNK         0.0600 
    173 H173       -3.0519  -16.8122  -45.9274 H         1 UNK         0.0600 
    174 H174       -0.7068  -15.7004  -45.1795 H         1 UNK         0.3000 
    175 H175        2.6113  -16.5601  -44.7891 H         1 UNK         0.0600 
    176 H176        1.2614  -16.9150  -47.5092 H         1 UNK         0.0600 
    177 H177        2.8364  -16.1465  -47.3177 H         1 UNK         0.0600 
    178 H178        2.6153  -17.8115  -46.8280 H         1 UNK         0.0600 
    179 H179        0.9256  -14.6496  -46.2939 H         1 UNK         0.3000 
    180 H180        0.9178  -12.2624  -43.6872 H         1 UNK         0.0600 
    181 H181        3.2299  -11.8349  -44.5368 H         1 UNK         0.0600 
    182 H182        2.6861  -12.1024  -46.1887 H         1 UNK         0.0600 
    183 H183        2.0734  -10.7309  -45.2629 H         1 UNK         0.0600 
    184 H184        0.2289  -12.0592  -46.4545 H         1 UNK         0.3000 
    185 H185       -2.8468  -13.7734  -46.3744 H         1 UNK         0.0600 
    186 H186       -3.5293  -11.6313  -45.2705 H         1 UNK         0.0600 
    187 H187       -2.4966  -10.7297  -46.3744 H         1 UNK         0.0600 
    188 H188       -3.8904  -11.6194  -46.9890 H         1 UNK         0.0600 
    189 H189       -2.0081  -12.1776  -48.4377 H         1 UNK         0.3000 
    190 H190       -1.1053  -21.0524  -45.3929 H         1 UNK         0.3000 
    191 H191       -3.3972  -21.0558  -47.1768 H         1 UNK         0.0600 
    192 H192       -4.6957  -20.7543  -45.0489 H         1 UNK         0.0600 
    193 H193       -3.4598  -19.5411  -45.3048 H         1 UNK         0.0600 
    194 H194       -3.1934  -20.8420  -44.1424 H         1 UNK         0.0600 
    195 H195       -2.0364  -23.2916  -44.7395 H         1 UNK         0.3000 
    196 H196       -4.0002  -25.3468  -45.0639 H         1 UNK         0.0600 
    197 H197       -2.3115  -26.7571  -43.8910 H         1 UNK         0.0600 
    198 H198       -2.5084  -25.2051  -43.0893 H         1 UNK         0.0600 
    199 H199       -1.0952  -25.5028  -44.0969 H         1 UNK         0.0600 
    200 H200       -0.8013  -24.8063  -46.6158 H         1 UNK         0.3000 
    201 H201       -0.8439  -27.2408  -48.0969 H         1 UNK         0.0600 
    202 H202        1.2479  -26.1194  -47.4179 H         1 UNK         0.0600 
    203 H203        0.8805  -24.7402  -48.4526 H         1 UNK         0.0600 
    204 H204        1.2018  -26.3159  -49.1625 H         1 UNK         0.0600 
    205 H205       -1.5178  -23.8332  -49.1504 H         1 UNK         0.3000 
    206 H206       -2.5905  -24.8364  -51.7383 H         1 UNK         0.0600 
    207 H207       -0.0815  -24.5527  -51.9396 H         1 UNK         0.0600 
    208 H208       -0.9759  -23.4596  -52.9717 H         1 UNK         0.0600 
    209 H209       -0.2613  -22.8600  -51.4789 H         1 UNK         0.0600 
    210 H210       -3.6655  -23.3557  -49.2900 H         1 UNK         0.3000 
    211 H211       -5.1659  -21.7962  -48.7977 H         1 UNK         0.0600 
    212 H212       -5.7148  -21.5556  -51.7936 H         1 UNK         0.0600 
    213 H213       -6.8042  -21.1292  -50.4844 H         1 UNK         0.0600 
    214 H214       -6.3812  -22.8114  -50.7512 H         1 UNK         0.0600 
    215 H215       -2.3513  -20.9240  -49.4696 H         1 UNK         0.3000 
    216 H216       -1.0551  -19.1201  -49.7015 H         1 UNK         0.0600 
    217 H217       -2.0418  -18.7042  -47.4562 H         1 UNK         0.0600 
    218 H218       -3.3375  -17.7546  -48.1857 H         1 UNK         0.0600 
    219 H219       -1.6714  -17.1921  -48.2628 H         1 UNK         0.0600 
    220 H220       -2.2812  -19.5997  -52.0373 H         1 UNK         0.3000 
    221 H221       -2.5713  -18.8490  -54.0703 H         1 UNK         0.0600 
    222 H222       -1.7100  -16.0645  -53.1369 H         1 UNK         0.0600 
    223 H223       -0.6209  -17.3595  -53.6184 H         1 UNK         0.0600 
    224 H224       -1.7258  -16.6628  -54.7880 H         1 UNK         0.0600 
    225 H225       -4.7822  -18.1556  -51.7648 H         1 UNK         0.3000 
    226 H226       -6.5290  -16.3442  -53.1460 H         1 UNK         0.0600 
    227 H227       -6.6754  -16.8721  -50.6889 H         1 UNK         0.0600 
    228 H228       -8.2077  -17.0907  -51.5226 H         1 UNK         0.0600 
    229 H229       -7.2451  -18.4939  -51.0866 H         1 UNK         0.0600 
    230 H230       -5.9322  -19.7831  -53.4014 H         1 UNK         0.3000 
    231 H231       -8.0241  -20.1509  -55.5039 H         1 UNK         0.0600 
    232 H232       -6.3388  -22.2438  -54.0264 H         1 UNK         0.0600 
    233 H233       -7.9801  -21.7855  -53.5700 H         1 UNK         0.0600 
    234 H234       -7.6802  -22.5498  -55.1211 H         1 UNK         0.0600 
    235 H235       -5.3318  -18.6751  -55.6528 H         1 UNK         0.3000 
    236 H236       -3.5939  -18.3362  -56.9507 H         1 UNK         0.0600 
    237 H237       -5.3440  -18.4074  -58.7470 H         1 UNK         0.0600 
    238 H238       -3.7659  -18.8927  -59.3408 H         1 UNK         0.0600 
    239 H239       -4.9893  -20.1130  -59.0197 H         1 UNK         0.0600 
    240 H240       -3.6726  -20.8847  -55.2541 H         1 UNK         0.3000 
    241 H241       -2.4527  -22.6017  -54.6688 H         1 UNK         0.0600 
    242 H242       -3.7423  -24.3614  -57.7974 H         1 UNK         0.3800 
    243 H243       -4.2725  -22.8503  -57.1013 H         1 UNK         0.3800 
    244 H244       -0.2075  -21.4868  -56.4236 H         1 UNK         0.0800 
    245 H245       -0.0272  -22.8117  -55.3004 H         1 UNK         0.0800 
    246 H246        1.9186  -20.2675  -54.9125 H         1 UNK         0.0800 
    247 H247        1.8617  -21.8019  -54.0732 H         1 UNK         0.0800 
@<TRIPOS>BOND
     1    1    2 1    
     2    1  127 1    
     3    1  128 1    
     4    1  129 1    
     5    2    3 2    
     6    2    4 am   BACKBONE|DICT|INTERRES
     7    4    5 1    
     8    4  130 1    
     9    5    6 1    
    10    5   65 1    
    11    5  131 1    
    12    6    7 1    
    13    6  132 1    
    14    6  133 1    
    15    7    8 1    
    16    8    9 1    
    17    8  134 1    
    18    8  135 1    
    19    9   10 ar   
    20    9   14 ar   
    21   10   11 ar   
    22   10  136 1    
    23   11   12 ar   
    24   11  126 1    
    25   12   13 ar   
    26   12  137 1    
    27   13   14 ar   
    28   13   15 1    
    29   14  138 1    
    30   15   16 1    
    31   15  139 1    
    32   15  140 1    
    33   16   17 1    
    34   17   18 1    
    35   17  141 1    
    36   17  142 1    
    37   18   19 1    
    38   18   67 1    
    39   18  143 1    
    40   19   20 am   BACKBONE|DICT|INTERRES
    41   19  144 1    
    42   20   21 2    
    43   20   22 1    
    44   22   23 1    
    45   22   24 1    
    46   22  145 1    
    47   23  146 1    
    48   23  147 1    
    49   23  148 1    
    50   24   25 am   BACKBONE|DICT|INTERRES
    51   24  149 1    
    52   25   26 2    
    53   25   27 1    
    54   27   28 1    
    55   27   29 1    
    56   27  150 1    
    57   28  151 1    
    58   28  152 1    
    59   28  153 1    
    60   29   30 am   BACKBONE|DICT|INTERRES
    61   29  154 1    
    62   30   31 2    
    63   30   32 1    
    64   32   33 1    
    65   32   34 1    
    66   32  155 1    
    67   33  156 1    
    68   33  157 1    
    69   33  158 1    
    70   34   35 am   BACKBONE|DICT|INTERRES
    71   34  159 1    
    72   35   36 2    
    73   35   37 1    
    74   37   38 1    
    75   37   39 1    
    76   37  160 1    
    77   38  161 1    
    78   38  162 1    
    79   38  163 1    
    80   39   40 am   BACKBONE|DICT|INTERRES
    81   39  164 1    
    82   40   41 2    
    83   40   42 1    
    84   42   43 1    
    85   42   44 1    
    86   42  165 1    
    87   43  166 1    
    88   43  167 1    
    89   43  168 1    
    90   44   45 am   BACKBONE|DICT|INTERRES
    91   44  169 1    
    92   45   46 2    
    93   45   47 1    
    94   47   48 1    
    95   47   49 1    
    96   47  170 1    
    97   48  171 1    
    98   48  172 1    
    99   48  173 1    
   100   49   50 am   BACKBONE|DICT|INTERRES
   101   49  174 1    
   102   50   51 2    
   103   50   52 1    
   104   52   53 1    
   105   52   54 1    
   106   52  175 1    
   107   53  176 1    
   108   53  177 1    
   109   53  178 1    
   110   54   55 am   BACKBONE|DICT|INTERRES
   111   54  179 1    
   112   55   56 2    
   113   55   57 1    
   114   57   58 1    
   115   57   59 1    
   116   57  180 1    
   117   58  181 1    
   118   58  182 1    
   119   58  183 1    
   120   59   60 am   BACKBONE|DICT|INTERRES
   121   59  184 1    
   122   60   61 2    
   123   60   62 1    
   124   62   63 1    
   125   62   64 1    
   126   62  185 1    
   127   63  186 1    
   128   63  187 1    
   129   63  188 1    
   130   64   65 am   BACKBONE|DICT|INTERRES
   131   64  189 1    
   132   65   66 2    
   133   67   68 2    
   134   67   69 am   BACKBONE|DICT|INTERRES
   135   69   70 1    
   136   69  190 1    
   137   70   71 1    
   138   70   72 1    
   139   70  191 1    
   140   71  192 1    
   141   71  193 1    
   142   71  194 1    
   143   72   73 2    
   144   72   74 am   BACKBONE|DICT|INTERRES
   145   74   75 1    
   146   74  195 1    
   147   75   76 1    
   148   75   77 1    
   149   75  196 1    
   150   76  197 1    
   151   76  198 1    
   152   76  199 1    
   153   77   78 2    
   154   77   79 am   BACKBONE|DICT|INTERRES
   155   79   80 1    
   156   79  200 1    
   157   80   81 1    
   158   80   82 1    
   159   80  201 1    
   160   81  202 1    
   161   81  203 1    
   162   81  204 1    
   163   82   83 2    
   164   82   84 am   BACKBONE|DICT|INTERRES
   165   84   85 1    
   166   84  205 1    
   167   85   86 1    
   168   85   87 1    
   169   85  206 1    
   170   86  207 1    
   171   86  208 1    
   172   86  209 1    
   173   87   88 2    
   174   87   89 am   BACKBONE|DICT|INTERRES
   175   89   90 1    
   176   89  210 1    
   177   90   91 1    
   178   90   92 1    
   179   90  211 1    
   180   91  212 1    
   181   91  213 1    
   182   91  214 1    
   183   92   93 2    
   184   92   94 am   BACKBONE|DICT|INTERRES
   185   94   95 1    
   186   94  215 1    
   187   95   96 1    
   188   95   97 1    
   189   95  216 1    
   190   96  217 1    
   191   96  218 1    
   192   96  219 1    
   193   97   98 2    
   194   97   99 am   BACKBONE|DICT|INTERRES
   195   99  100 1    
   196   99  220 1    
   197  100  101 1    
   198  100  102 1    
   199  100  221 1    
   200  101  222 1    
   201  101  223 1    
   202  101  224 1    
   203  102  103 2    
   204  102  104 am   BACKBONE|DICT|INTERRES
   205  104  105 1    
   206  104  225 1    
   207  105  106 1    
   208  105  107 1    
   209  105  226 1    
   210  106  227 1    
   211  106  228 1    
   212  106  229 1    
   213  107  108 2    
   214  107  109 am   BACKBONE|DICT|INTERRES
   215  109  110 1    
   216  109  230 1    
   217  110  111 1    
   218  110  112 1    
   219  110  231 1    
   220  111  232 1    
   221  111  233 1    
   222  111  234 1    
   223  112  113 2    
   224  112  114 am   BACKBONE|DICT|INTERRES
   225  114  115 1    
   226  114  235 1    
   227  115  116 1    
   228  115  117 1    
   229  115  236 1    
   230  116  237 1    
   231  116  238 1    
   232  116  239 1    
   233  117  118 2    
   234  117  119 am   BACKBONE|DICT|INTERRES
   235  119  120 1    
   236  119  240 1    
   237  120  121 1    
   238  120  124 1    
   239  120  241 1    
   240  121  122 am   BACKBONE|DICT|INTERRES
   241  121  123 2    
   242  122  242 1    
   243  122  243 1    
   244  124  125 1    
   245  124  244 1    
   246  124  245 1    
   247  125  126 1    
   248  126  246 1    
   249  126  247 1    
@<TRIPOS>SUBSTRUCTURE
     1 UNK         1 GROUP             0       ****    0 ROOT    
