@<TRIPOS>MOLECULE
3R540
247   249    1
SMALL
USER_CHARGES


@<TRIPOS>ATOM
      1 CA          3.2986  -13.0516  -50.3760 C.3       0 UNK        -0.1800 
      2 C           2.0379  -13.9078  -50.2596 C.2       0 UNK         0.5000 
      3 O           1.4647  -14.2647  -51.2859 O.2       0 UNK        -0.5000 
      4 N           1.5801  -14.2705  -49.0520 N.am      1 UNK        -0.5000 
      5 CA          2.0667  -13.8144  -47.7457 C.3       1 UNK         0.1400 
      6 C6          1.5261  -14.6882  -46.5782 C.3       23 UNK        -0.0398 
      7 S7         -0.2968  -14.6990  -46.3832 S.3       23 UNK        -0.2404 
      8 C8         -0.7459  -16.4229  -46.7703 C.3       23 UNK        -0.0205 
      9 C9         -0.4401  -16.7826  -48.2150 C.ar      23 UNK        -0.0193 
     10 C10        -1.2616  -16.3302  -49.2517 C.ar      23 UNK        -0.1150 
     11 C11        -0.9428  -16.6097  -50.5855 C.ar      23 UNK        -0.0193 
     12 C12         0.1913  -17.3779  -50.8709 C.ar      23 UNK        -0.1150 
     13 C13         1.0144  -17.8436  -49.8402 C.ar      23 UNK        -0.0193 
     14 C14         0.6920  -17.5406  -48.5159 C.ar      23 UNK        -0.1150 
     15 C15         2.2848  -18.6167  -50.1599 C.3       23 UNK        -0.0205 
     16 S16         2.0202  -20.4165  -50.1727 S.3       23 UNK        -0.2404 
     17 C17         2.0650  -20.8325  -48.3934 C.3       23 UNK        -0.0398 
     18 CA          0.9391  -21.8118  -47.9919 C.3       11 UNK         0.1400 
     19 N           1.2774  -22.5727  -46.7898 N.am      11 UNK        -0.5000 
     20 C           0.7320  -23.7538  -46.4720 C.2       10 UNK         0.5000 
     21 O          -0.1011  -24.3327  -47.1699 O.2       10 UNK        -0.5000 
     22 CA          1.1681  -24.3684  -45.1298 C.3       10 UNK         0.1400 
     23 CB          2.5098  -25.1013  -45.2768 C.3       10 UNK        -0.1800 
     24 N           1.2723  -23.3686  -44.0646 N.am      10 UNK        -0.5000 
     25 C           0.2212  -22.7163  -43.5508 C.2       9 UNK         0.5000 
     26 O          -0.9398  -22.9020  -43.9155 O.2       9 UNK        -0.5000 
     27 CA          0.5144  -21.6570  -42.4743 C.3       9 UNK         0.1400 
     28 CB          0.6373  -22.3091  -41.0895 C.3       9 UNK        -0.1800 
     29 N           1.6985  -20.8291  -42.7221 N.am      9 UNK        -0.5000 
     30 C           1.9304  -20.0818  -43.8101 C.2       8 UNK         0.5000 
     31 O           1.2508  -20.1474  -44.8336 O.2       8 UNK        -0.5000 
     32 CA          3.1048  -19.0823  -43.7394 C.3       8 UNK         0.1400 
     33 CB          3.0325  -18.0236  -44.8567 C.3       8 UNK        -0.1800 
     34 N           3.1591  -18.3885  -42.4519 N.am      8 UNK        -0.5000 
     35 C           3.7150  -18.8598  -41.3286 C.2       7 UNK         0.5000 
     36 O           4.2447  -19.9679  -41.2438 O.2       7 UNK        -0.5000 
     37 CA          3.6048  -17.9660  -40.0849 C.3       7 UNK         0.1400 
     38 CB          4.5514  -16.7595  -40.1872 C.3       7 UNK        -0.1800 
     39 N           2.2302  -17.4994  -39.9113 N.am      7 UNK        -0.5000 
     40 C           1.2779  -18.1765  -39.2537 C.2       6 UNK         0.5000 
     41 O           1.4754  -19.2449  -38.6744 O.2       6 UNK        -0.5000 
     42 CA         -0.1347  -17.5591  -39.2344 C.3       6 UNK         0.1400 
     43 CB         -0.3165  -16.6714  -37.9939 C.3       6 UNK        -0.1800 
     44 N          -0.4254  -16.7707  -40.4321 N.am      6 UNK        -0.5000 
     45 C          -0.6527  -17.2944  -41.6444 C.2       5 UNK         0.5000 
     46 O          -0.7314  -18.5019  -41.8588 O.2       5 UNK        -0.5000 
     47 CA         -0.7921  -16.3088  -42.8201 C.3       5 UNK         0.1400 
     48 CB         -2.2711  -16.0567  -43.1473 C.3       5 UNK        -0.1800 
     49 N          -0.1283  -15.0217  -42.6007 N.am      5 UNK        -0.5000 
     50 C           1.1897  -14.8420  -42.4562 C.2       4 UNK         0.5000 
     51 O           1.9955  -15.7741  -42.4393 O.2       4 UNK        -0.5000 
     52 CA          1.6803  -13.3879  -42.2940 C.3       4 UNK         0.1400 
     53 CB          3.2053  -13.2638  -42.4614 C.3       4 UNK        -0.1800 
     54 N           1.0387  -12.4644  -43.2306 N.am      4 UNK        -0.5000 
     55 C          -0.1781  -11.9167  -43.1147 C.2       3 UNK         0.5000 
     56 O          -0.9553  -12.2048  -42.2036 O.2       3 UNK        -0.5000 
     57 CA         -0.6248  -10.9211  -44.2102 C.3       3 UNK         0.1400 
     58 CB         -1.1242   -9.5922  -43.6086 C.3       3 UNK        -0.1800 
     59 N           0.3747  -10.6892  -45.2638 N.am      3 UNK        -0.5000 
     60 C           1.5713  -10.0892  -45.1745 C.2       2 UNK         0.5000 
     61 O           1.9943   -9.5494  -44.1519 O.2       2 UNK        -0.5000 
     62 CA          2.4728  -10.2066  -46.4232 C.3       2 UNK         0.1400 
     63 CB          3.8643   -9.5818  -46.2158 C.3       2 UNK        -0.1800 
     64 N           2.6414  -11.6111  -46.8159 N.am      2 UNK        -0.5000 
     65 C           1.7543  -12.3175  -47.5281 C.2       1 UNK         0.5000 
     66 O           0.7081  -11.8331  -47.9668 O.2       1 UNK        -0.5000 
     67 C          -0.4374  -21.1306  -47.8510 C.2       11 UNK         0.5000 
     68 O          -1.1842  -21.0917  -48.8232 O.2       11 UNK        -0.5000 
     69 N          -0.7902  -20.6763  -46.6399 N.am      12 UNK        -0.5000 
     70 CA         -2.1114  -20.1440  -46.3026 C.3       12 UNK         0.1400 
     71 CB         -2.0887  -19.5575  -44.8848 C.3       12 UNK        -0.1800 
     72 C          -3.2288  -21.1967  -46.4378 C.2       12 UNK         0.5000 
     73 O          -4.3025  -20.8786  -46.9476 O.2       12 UNK        -0.5000 
     74 N          -2.9502  -22.4417  -46.0248 N.am      13 UNK        -0.5000 
     75 CA         -3.8397  -23.5889  -46.2181 C.3       13 UNK         0.1400 
     76 CB         -3.3124  -24.7923  -45.4231 C.3       13 UNK        -0.1800 
     77 C          -4.0173  -23.9471  -47.7056 C.2       13 UNK         0.5000 
     78 O          -5.1334  -24.2386  -48.1356 O.2       13 UNK        -0.5000 
     79 N          -2.9241  -23.8759  -48.4760 N.am      14 UNK        -0.5000 
     80 CA         -2.9295  -24.0576  -49.9266 C.3       14 UNK         0.1400 
     81 CB         -1.4867  -24.2238  -50.4177 C.3       14 UNK        -0.1800 
     82 C          -3.6578  -22.9162  -50.6664 C.2       14 UNK         0.5000 
     83 O          -4.3631  -23.1792  -51.6381 O.2       14 UNK        -0.5000 
     84 N          -3.5177  -21.6793  -50.1720 N.am      15 UNK        -0.5000 
     85 CA         -4.2264  -20.4898  -50.6437 C.3       15 UNK         0.1400 
     86 CB         -3.6312  -19.2378  -49.9845 C.3       15 UNK        -0.1800 
     87 C          -5.7403  -20.5646  -50.3846 C.2       15 UNK         0.5000 
     88 O          -6.5185  -20.1468  -51.2403 O.2       15 UNK        -0.5000 
     89 N          -6.1410  -21.1399  -49.2414 N.am      16 UNK        -0.5000 
     90 CA         -7.5384  -21.4272  -48.9043 C.3       16 UNK         0.1400 
     91 CB         -7.6409  -21.8348  -47.4270 C.3       16 UNK        -0.1800 
     92 C          -8.1655  -22.4984  -49.8208 C.2       16 UNK         0.5000 
     93 O          -9.3594  -22.4241  -50.1120 O.2       16 UNK        -0.5000 
     94 N          -7.3420  -23.4428  -50.2977 N.am      17 UNK        -0.5000 
     95 CA         -7.6920  -24.4273  -51.3263 C.3       17 UNK         0.1400 
     96 CB         -6.7821  -25.6563  -51.1662 C.3       17 UNK        -0.1800 
     97 C          -7.6091  -23.8606  -52.7628 C.2       17 UNK         0.5000 
     98 O          -7.9835  -24.5588  -53.7062 O.2       17 UNK        -0.5000 
     99 N          -7.1274  -22.6172  -52.9034 N.am      18 UNK        -0.5000 
    100 CA        -6.9136  -21.8330  -54.1190 C.3       18 UNK         0.1400 
    101 CB        -8.2407  -21.5513  -54.8534 C.3       18 UNK        -0.1800 
    102 C         -5.8372  -22.4305  -55.0393 C.2       18 UNK         0.5000 
    103 O         -4.7061  -21.9410  -55.0498 O.2       18 UNK        -0.5000 
    104 N         -6.2097  -23.4659  -55.8014 N.am      19 UNK        -0.5000 
    105 CA        -5.4290  -24.0678  -56.8864 C.3       19 UNK         0.1400 
    106 CB        -6.3041  -25.1110  -57.5984 C.3       19 UNK        -0.1800 
    107 C         -4.0871  -24.6927  -56.4586 C.2       19 UNK         0.5000 
    108 O         -3.2151  -24.8866  -57.3065 O.2       19 UNK        -0.5000 
    109 N         -3.9390  -24.9925  -55.1626 N.am      20 UNK        -0.5000 
    110 CA        -2.7086  -25.5084  -54.5680 C.3       20 UNK         0.1400 
    111 CB        -3.0512  -26.1908  -53.2350 C.3       20 UNK        -0.1800 
    112 C         -1.6135  -24.4350  -54.3873 C.2       20 UNK         0.5000 
    113 O         -0.4546  -24.8054  -54.1944 O.2       20 UNK        -0.5000 
    114 N         -1.9718  -23.1445  -54.4523 N.am      21 UNK        -0.5000 
    115 CA        -1.0411  -22.0229  -54.3527 C.3       21 UNK         0.1400 
    116 CB        -0.7728  -21.6638  -52.8748 C.3       21 UNK        -0.1800 
    117 C         -1.5327  -20.8503  -55.2179 C.2       21 UNK         0.5000 
    118 O         -1.6280  -20.9992  -56.4369 O.2       21 UNK        -0.5000 
    119 N         -1.7839  -19.6984  -54.5872 N.am      22 UNK        -0.5000 
    120 CA        -2.0632  -18.4009  -55.2209 C.3       22 UNK         0.1400 
    121 C         -3.4632  -18.2281  -55.8851 C.2       22 UNK         0.5000 
    122 N         -4.3571  -19.2067  -55.8580 N.am      22 UNK        -0.7600 
    123 O         -3.7410  -17.1794  -56.4610 O.2       22 UNK        -0.5000 
    124 C124       -1.7148  -17.2350  -54.2576 C.3       23 UNK        -0.0398 
    125 S125       -2.6590  -17.2680  -52.6936 S.3       23 UNK        -0.2404 
    126 C126       -1.7784  -16.0119  -51.7118 C.3       23 UNK        -0.0205 
    127 H127        3.0924  -12.0184  -50.0979 H         1 UNK         0.0600 
    128 H128        4.1038  -13.4347  -49.7501 H         1 UNK         0.0600 
    129 H129        3.6606  -13.0507  -51.4044 H         1 UNK         0.0600 
    130 H130        0.7445  -14.8384  -49.0125 H         1 UNK         0.3000 
    131 H131        3.1516  -13.9301  -47.7424 H         1 UNK         0.0600 
    132 H132        1.9561  -14.3553  -45.6323 H         1 UNK         0.0800 
    133 H133        1.8824  -15.7107  -46.6989 H         1 UNK         0.0800 
    134 H134       -0.2207  -17.0941  -46.0898 H         1 UNK         0.0800 
    135 H135       -1.8105  -16.5646  -46.5791 H         1 UNK         0.0800 
    136 H136       -2.1276  -15.7269  -49.0183 H         1 UNK         0.1150 
    137 H137        0.4518  -17.5856  -51.8984 H         1 UNK         0.1150 
    138 H138        1.3366  -17.8685  -47.7148 H         1 UNK         0.1150 
    139 H139        2.6570  -18.3153  -51.1401 H         1 UNK         0.0800 
    140 H140        3.0740  -18.3629  -49.4504 H         1 UNK         0.0800 
    141 H141        2.0511  -19.9411  -47.7688 H         1 UNK         0.0800 
    142 H142        3.0358  -21.2967  -48.2146 H         1 UNK         0.0800 
    143 H143        0.8476  -22.5394  -48.8013 H         1 UNK         0.0600 
    144 H144        1.8925  -22.1259  -46.1253 H         1 UNK         0.3000 
    145 H145        0.4110  -25.0997  -44.8384 H         1 UNK         0.0600 
    146 H146        2.7868  -25.6054  -44.3507 H         1 UNK         0.0600 
    147 H147        2.4545  -25.8628  -46.0560 H         1 UNK         0.0600 
    148 H148        3.3176  -24.4181  -45.5421 H         1 UNK         0.0600 
    149 H149        2.1951  -23.1551  -43.7154 H         1 UNK         0.3000 
    150 H150       -0.3458  -20.9880  -42.4502 H         1 UNK         0.0600 
    151 H151       -0.2378  -22.9205  -40.8651 H         1 UNK         0.0600 
    152 H152        0.7140  -21.5547  -40.3060 H         1 UNK         0.0600 
    153 H153        1.5153  -22.9527  -41.0236 H         1 UNK         0.0600 
    154 H154        2.3432  -20.7252  -41.9490 H         1 UNK         0.3000 
    155 H155        4.0247  -19.6539  -43.8766 H         1 UNK         0.0600 
    156 H156        2.1068  -17.4492  -44.8023 H         1 UNK         0.0600 
    157 H157        3.0778  -18.4862  -45.8431 H         1 UNK         0.0600 
    158 H158        3.8641  -17.3220  -44.7904 H         1 UNK         0.0600 
    159 H159        2.7221  -17.4697  -42.4272 H         1 UNK         0.3000 
    160 H160        3.9051  -18.5535  -39.2145 H         1 UNK         0.0600 
    161 H161        4.4868  -16.1321  -39.2982 H         1 UNK         0.0600 
    162 H162        4.3271  -16.1369  -41.0533 H         1 UNK         0.0600 
    163 H163        5.5878  -17.0864  -40.2800 H         1 UNK         0.0600 
    164 H164        1.9719  -16.6640  -40.4185 H         1 UNK         0.3000 
    165 H165       -0.8546  -18.3786  -39.1760 H         1 UNK         0.0600 
    166 H166       -1.3330  -16.2821  -37.9329 H         1 UNK         0.0600 
    167 H167       -0.1308  -17.2363  -37.0794 H         1 UNK         0.0600 
    168 H168        0.3692  -15.8231  -38.0007 H         1 UNK         0.0600 
    169 H169       -0.3998  -15.7661  -40.3391 H         1 UNK         0.3000 
    170 H170       -0.3224  -16.7779  -43.6862 H         1 UNK         0.0600 
    171 H171       -2.8004  -16.9936  -43.3232 H         1 UNK         0.0600 
    172 H172       -2.7798  -15.5408  -42.3321 H         1 UNK         0.0600 
    173 H173       -2.3778  -15.4504  -44.0469 H         1 UNK         0.0600 
    174 H174       -0.7186  -14.1980  -42.5667 H         1 UNK         0.3000 
    175 H175        1.4305  -13.0796  -41.2769 H         1 UNK         0.0600 
    176 H176        3.5321  -13.6070  -43.4438 H         1 UNK         0.0600 
    177 H177        3.5330  -12.2310  -42.3406 H         1 UNK         0.0600 
    178 H178        3.7323  -13.8562  -41.7130 H         1 UNK         0.0600 
    179 H179        1.5959  -12.1759  -44.0192 H         1 UNK         0.3000 
    180 H180       -1.4722  -11.3930  -44.7096 H         1 UNK         0.0600 
    181 H181       -0.3521   -9.0935  -43.0224 H         1 UNK         0.0600 
    182 H182       -1.9745   -9.7595  -42.9464 H         1 UNK         0.0600 
    183 H183       -1.4523   -8.9046  -44.3880 H         1 UNK         0.0600 
    184 H184        0.1562  -11.1136  -46.1607 H         1 UNK         0.3000 
    185 H185        1.9818   -9.6597  -47.2312 H         1 UNK         0.0600 
    186 H186        3.7841   -8.5255  -45.9559 H         1 UNK         0.0600 
    187 H187        4.4150  -10.0772  -45.4152 H         1 UNK         0.0600 
    188 H188        4.4636   -9.6455  -47.1242 H         1 UNK         0.0600 
    189 H189        3.4776  -12.0648  -46.4761 H         1 UNK         0.3000 
    190 H190       -0.0951  -20.6763  -45.8959 H         1 UNK         0.3000 
    191 H191       -2.3249  -19.3319  -46.9997 H         1 UNK         0.0600 
    192 H192       -1.9176  -20.3267  -44.1326 H         1 UNK         0.0600 
    193 H193       -3.0381  -19.0761  -44.6493 H         1 UNK         0.0600 
    194 H194       -1.3049  -18.8092  -44.7760 H         1 UNK         0.0600 
    195 H195       -2.0740  -22.6160  -45.5425 H         1 UNK         0.3000 
    196 H196       -4.8220  -23.3243  -45.8211 H         1 UNK         0.0600 
    197 H197       -2.3158  -25.0885  -45.7513 H         1 UNK         0.0600 
    198 H198       -3.9682  -25.6558  -45.5406 H         1 UNK         0.0600 
    199 H199       -3.2589  -24.5666  -44.3579 H         1 UNK         0.0600 
    200 H200       -2.0331  -23.6657  -48.0432 H         1 UNK         0.3000 
    201 H201       -3.4650  -24.9840  -50.1430 H         1 UNK         0.0600 
    202 H202       -0.9970  -25.0655  -49.9277 H         1 UNK         0.0600 
    203 H203       -0.8910  -23.3332  -50.2247 H         1 UNK         0.0600 
    204 H204       -1.4584  -24.4121  -51.4890 H         1 UNK         0.0600 
    205 H205       -2.8221  -21.5266  -49.4446 H         1 UNK         0.3000 
    206 H206       -4.0738  -20.4143  -51.7225 H         1 UNK         0.0600 
    207 H207       -2.5684  -19.1408  -50.2072 H         1 UNK         0.0600 
    208 H208       -4.1256  -18.3353  -50.3446 H         1 UNK         0.0600 
    209 H209       -3.7450  -19.2534  -48.9027 H         1 UNK         0.0600 
    210 H210       -5.4406  -21.3844  -48.5487 H         1 UNK         0.3000 
    211 H211       -8.1086  -20.5057  -49.0385 H         1 UNK         0.0600 
    212 H212       -7.1008  -22.7585  -47.2223 H         1 UNK         0.0600 
    213 H213       -8.6806  -21.9936  -47.1387 H         1 UNK         0.0600 
    214 H214       -7.2368  -21.0599  -46.7752 H         1 UNK         0.0600 
    215 H215       -6.3829  -23.4511  -49.9744 H         1 UNK         0.3000 
    216 H216       -8.7225  -24.7506  -51.1670 H         1 UNK         0.0600 
    217 H217       -7.0558  -26.4413  -51.8721 H         1 UNK         0.0600 
    218 H218       -6.8626  -26.0782  -50.1641 H         1 UNK         0.0600 
    219 H219       -5.7353  -25.4113  -51.3409 H         1 UNK         0.0600 
    220 H220       -6.8230  -22.1508  -52.0591 H         1 UNK         0.3000 
    221 H221       -6.5245  -20.8689  -53.7896 H         1 UNK         0.0600 
    222 H222       -8.7434  -22.4623  -55.1779 H         1 UNK         0.0600 
    223 H223       -8.9308  -21.0048  -54.2105 H         1 UNK         0.0600 
    224 H224       -8.0711  -20.9389  -55.7399 H         1 UNK         0.0600 
    225 H225       -7.1284  -23.8570  -55.6337 H         1 UNK         0.3000 
    226 H226       -5.1960  -23.2736  -57.5985 H         1 UNK         0.0600 
    227 H227       -7.2115  -24.6584  -57.9987 H         1 UNK         0.0600 
    228 H228       -5.7726  -25.5643  -58.4363 H         1 UNK         0.0600 
    229 H229       -6.5989  -25.9145  -56.9222 H         1 UNK         0.0600 
    230 H230       -4.6995  -24.7810  -54.5327 H         1 UNK         0.3000 
    231 H231       -2.2980  -26.2712  -55.2330 H         1 UNK         0.0600 
    232 H232       -3.7268  -27.0327  -53.3869 H         1 UNK         0.0600 
    233 H233       -3.5319  -25.5005  -52.5449 H         1 UNK         0.0600 
    234 H234       -2.1557  -26.5777  -52.7473 H         1 UNK         0.0600 
    235 H235       -2.9378  -22.9010  -54.6511 H         1 UNK         0.3000 
    236 H236       -0.0869  -22.3172  -54.7950 H         1 UNK         0.0600 
    237 H237       -0.1032  -20.8074  -52.7837 H         1 UNK         0.0600 
    238 H238       -1.6916  -21.4297  -52.3386 H         1 UNK         0.0600 
    239 H239       -0.2824  -22.4887  -52.3610 H         1 UNK         0.0600 
    240 H240       -1.7211  -19.6768  -53.5799 H         1 UNK         0.3000 
    241 H241       -1.3653  -18.3197  -56.0564 H         1 UNK         0.0600 
    242 H242       -5.2450  -19.0607  -56.3089 H         1 UNK         0.3800 
    243 H243       -4.1509  -20.1095  -55.4437 H         1 UNK         0.3800 
    244 H244       -0.6514  -17.2740  -54.0191 H         1 UNK         0.0800 
    245 H245       -1.8706  -16.2698  -54.7426 H         1 UNK         0.0800 
    246 H246       -1.1322  -15.4110  -52.3534 H         1 UNK         0.0800 
    247 H247       -2.5188  -15.3210  -51.3063 H         1 UNK         0.0800 
@<TRIPOS>BOND
     1    1    2 1    
     2    1  127 1    
     3    1  128 1    
     4    1  129 1    
     5    2    3 2    
     6    2    4 am   BACKBONE|DICT|INTERRES
     7    4    5 1    
     8    4  130 1    
     9    5    6 1    
    10    5   65 1    
    11    5  131 1    
    12    6    7 1    
    13    6  132 1    
    14    6  133 1    
    15    7    8 1    
    16    8    9 1    
    17    8  134 1    
    18    8  135 1    
    19    9   10 ar   
    20    9   14 ar   
    21   10   11 ar   
    22   10  136 1    
    23   11   12 ar   
    24   11  126 1    
    25   12   13 ar   
    26   12  137 1    
    27   13   14 ar   
    28   13   15 1    
    29   14  138 1    
    30   15   16 1    
    31   15  139 1    
    32   15  140 1    
    33   16   17 1    
    34   17   18 1    
    35   17  141 1    
    36   17  142 1    
    37   18   19 1    
    38   18   67 1    
    39   18  143 1    
    40   19   20 am   BACKBONE|DICT|INTERRES
    41   19  144 1    
    42   20   21 2    
    43   20   22 1    
    44   22   23 1    
    45   22   24 1    
    46   22  145 1    
    47   23  146 1    
    48   23  147 1    
    49   23  148 1    
    50   24   25 am   BACKBONE|DICT|INTERRES
    51   24  149 1    
    52   25   26 2    
    53   25   27 1    
    54   27   28 1    
    55   27   29 1    
    56   27  150 1    
    57   28  151 1    
    58   28  152 1    
    59   28  153 1    
    60   29   30 am   BACKBONE|DICT|INTERRES
    61   29  154 1    
    62   30   31 2    
    63   30   32 1    
    64   32   33 1    
    65   32   34 1    
    66   32  155 1    
    67   33  156 1    
    68   33  157 1    
    69   33  158 1    
    70   34   35 am   BACKBONE|DICT|INTERRES
    71   34  159 1    
    72   35   36 2    
    73   35   37 1    
    74   37   38 1    
    75   37   39 1    
    76   37  160 1    
    77   38  161 1    
    78   38  162 1    
    79   38  163 1    
    80   39   40 am   BACKBONE|DICT|INTERRES
    81   39  164 1    
    82   40   41 2    
    83   40   42 1    
    84   42   43 1    
    85   42   44 1    
    86   42  165 1    
    87   43  166 1    
    88   43  167 1    
    89   43  168 1    
    90   44   45 am   BACKBONE|DICT|INTERRES
    91   44  169 1    
    92   45   46 2    
    93   45   47 1    
    94   47   48 1    
    95   47   49 1    
    96   47  170 1    
    97   48  171 1    
    98   48  172 1    
    99   48  173 1    
   100   49   50 am   BACKBONE|DICT|INTERRES
   101   49  174 1    
   102   50   51 2    
   103   50   52 1    
   104   52   53 1    
   105   52   54 1    
   106   52  175 1    
   107   53  176 1    
   108   53  177 1    
   109   53  178 1    
   110   54   55 am   BACKBONE|DICT|INTERRES
   111   54  179 1    
   112   55   56 2    
   113   55   57 1    
   114   57   58 1    
   115   57   59 1    
   116   57  180 1    
   117   58  181 1    
   118   58  182 1    
   119   58  183 1    
   120   59   60 am   BACKBONE|DICT|INTERRES
   121   59  184 1    
   122   60   61 2    
   123   60   62 1    
   124   62   63 1    
   125   62   64 1    
   126   62  185 1    
   127   63  186 1    
   128   63  187 1    
   129   63  188 1    
   130   64   65 am   BACKBONE|DICT|INTERRES
   131   64  189 1    
   132   65   66 2    
   133   67   68 2    
   134   67   69 am   BACKBONE|DICT|INTERRES
   135   69   70 1    
   136   69  190 1    
   137   70   71 1    
   138   70   72 1    
   139   70  191 1    
   140   71  192 1    
   141   71  193 1    
   142   71  194 1    
   143   72   73 2    
   144   72   74 am   BACKBONE|DICT|INTERRES
   145   74   75 1    
   146   74  195 1    
   147   75   76 1    
   148   75   77 1    
   149   75  196 1    
   150   76  197 1    
   151   76  198 1    
   152   76  199 1    
   153   77   78 2    
   154   77   79 am   BACKBONE|DICT|INTERRES
   155   79   80 1    
   156   79  200 1    
   157   80   81 1    
   158   80   82 1    
   159   80  201 1    
   160   81  202 1    
   161   81  203 1    
   162   81  204 1    
   163   82   83 2    
   164   82   84 am   BACKBONE|DICT|INTERRES
   165   84   85 1    
   166   84  205 1    
   167   85   86 1    
   168   85   87 1    
   169   85  206 1    
   170   86  207 1    
   171   86  208 1    
   172   86  209 1    
   173   87   88 2    
   174   87   89 am   BACKBONE|DICT|INTERRES
   175   89   90 1    
   176   89  210 1    
   177   90   91 1    
   178   90   92 1    
   179   90  211 1    
   180   91  212 1    
   181   91  213 1    
   182   91  214 1    
   183   92   93 2    
   184   92   94 am   BACKBONE|DICT|INTERRES
   185   94   95 1    
   186   94  215 1    
   187   95   96 1    
   188   95   97 1    
   189   95  216 1    
   190   96  217 1    
   191   96  218 1    
   192   96  219 1    
   193   97   98 2    
   194   97   99 am   BACKBONE|DICT|INTERRES
   195   99  100 1    
   196   99  220 1    
   197  100  101 1    
   198  100  102 1    
   199  100  221 1    
   200  101  222 1    
   201  101  223 1    
   202  101  224 1    
   203  102  103 2    
   204  102  104 am   BACKBONE|DICT|INTERRES
   205  104  105 1    
   206  104  225 1    
   207  105  106 1    
   208  105  107 1    
   209  105  226 1    
   210  106  227 1    
   211  106  228 1    
   212  106  229 1    
   213  107  108 2    
   214  107  109 am   BACKBONE|DICT|INTERRES
   215  109  110 1    
   216  109  230 1    
   217  110  111 1    
   218  110  112 1    
   219  110  231 1    
   220  111  232 1    
   221  111  233 1    
   222  111  234 1    
   223  112  113 2    
   224  112  114 am   BACKBONE|DICT|INTERRES
   225  114  115 1    
   226  114  235 1    
   227  115  116 1    
   228  115  117 1    
   229  115  236 1    
   230  116  237 1    
   231  116  238 1    
   232  116  239 1    
   233  117  118 2    
   234  117  119 am   BACKBONE|DICT|INTERRES
   235  119  120 1    
   236  119  240 1    
   237  120  121 1    
   238  120  124 1    
   239  120  241 1    
   240  121  122 am   BACKBONE|DICT|INTERRES
   241  121  123 2    
   242  122  242 1    
   243  122  243 1    
   244  124  125 1    
   245  124  244 1    
   246  124  245 1    
   247  125  126 1    
   248  126  246 1    
   249  126  247 1    
@<TRIPOS>SUBSTRUCTURE
     1 UNK         1 GROUP             0       ****    0 ROOT    
