@<TRIPOS>MOLECULE
3R540
247   249    1
SMALL
USER_CHARGES


@<TRIPOS>ATOM
      1 CA          2.5846  -12.5770  -45.5803 C.3       0 UNK        -0.1800 
      2 C           1.3591  -13.4686  -45.4513 C.2       0 UNK         0.5000 
      3 O           1.0500  -13.9221  -44.3495 O.2       0 UNK        -0.5000 
      4 N           0.6554  -13.7046  -46.5666 N.am      1 UNK        -0.5000 
      5 CA         -0.4859  -14.6222  -46.7210 C.3       1 UNK         0.1400 
      6 C6         -1.0232  -14.6069  -48.1742 C.3       23 UNK        -0.0398 
      7 S7          0.1899  -15.2480  -49.3821 S.3       23 UNK        -0.2404 
      8 C8         -0.5895  -16.8423  -49.7735 C.3       23 UNK        -0.0205 
      9 C9          0.2760  -17.7343  -50.6433 C.ar      23 UNK        -0.0193 
     10 C10         0.0079  -17.8731  -52.0073 C.ar      23 UNK        -0.1150 
     11 C11         0.7560  -18.7595  -52.7871 C.ar      23 UNK        -0.0193 
     12 C12         1.7740  -19.5108  -52.1922 C.ar      23 UNK        -0.1150 
     13 C13         2.0592  -19.3698  -50.8307 C.ar      23 UNK        -0.0193 
     14 C14         1.3112  -18.4719  -50.0643 C.ar      23 UNK        -0.1150 
     15 C15         3.1830  -20.1790  -50.2000 C.3       23 UNK        -0.0205 
     16 S16         2.5732  -21.7121  -49.4271 S.3       23 UNK        -0.2404 
     17 C17         2.1606  -21.1292  -47.7489 C.3       23 UNK        -0.0398 
     18 CA          0.8948  -21.7822  -47.1487 C.3       11 UNK         0.1400 
     19 N           0.8595  -21.6101  -45.6962 N.am      11 UNK        -0.5000 
     20 C          -0.0165  -22.1854  -44.8623 C.2       10 UNK         0.5000 
     21 O          -0.8534  -23.0151  -45.2149 O.2       10 UNK        -0.5000 
     22 CA          0.0026  -21.6867  -43.4065 C.3       10 UNK         0.1400 
     23 CB          1.0785  -22.4050  -42.5788 C.3       10 UNK        -0.1800 
     24 N           0.2105  -20.2371  -43.3541 N.am      10 UNK        -0.5000 
     25 C          -0.7311  -19.3417  -43.6865 C.2       9 UNK         0.5000 
     26 O          -1.8920  -19.6535  -43.9507 O.2       9 UNK        -0.5000 
     27 CA         -0.2982  -17.8667  -43.7909 C.3       9 UNK         0.1400 
     28 CB         -0.5657  -17.1166  -42.4794 C.3       9 UNK        -0.1800 
     29 N           1.1117  -17.7244  -44.1599 N.am      9 UNK        -0.5000 
     30 C           1.5737  -17.8840  -45.4078 C.2       8 UNK         0.5000 
     31 O           0.8499  -18.1470  -46.3659 O.2       8 UNK        -0.5000 
     32 CA          3.0961  -17.7874  -45.6283 C.3       8 UNK         0.1400 
     33 CB          3.5044  -16.3440  -45.9496 C.3       8 UNK        -0.1800 
     34 N           3.8867  -18.2751  -44.4977 N.am      8 UNK        -0.5000 
     35 C           3.8548  -19.5277  -44.0236 C.2       7 UNK         0.5000 
     36 O           3.1692  -20.4203  -44.5218 O.2       7 UNK        -0.5000 
     37 CA          4.6652  -19.8290  -42.7451 C.3       7 UNK         0.1400 
     38 CB          5.7519  -18.7752  -42.4346 C.3       7 UNK        -0.1800 
     39 N           3.7951  -20.0139  -41.5759 N.am      7 UNK        -0.5000 
     40 C           2.8743  -19.1507  -41.1215 C.2       6 UNK         0.5000 
     41 O           2.5959  -18.0955  -41.6930 O.2       6 UNK        -0.5000 
     42 CA          2.1085  -19.5080  -39.8298 C.3       6 UNK         0.1400 
     43 CB          2.6874  -20.7074  -39.0454 C.3       6 UNK        -0.1800 
     44 N           1.9691  -18.3188  -38.9818 N.am      6 UNK        -0.5000 
     45 C           2.9657  -17.6233  -38.4161 C.2       5 UNK         0.5000 
     46 O           4.1422  -17.9906  -38.3853 O.2       5 UNK        -0.5000 
     47 CA          2.5921  -16.2351  -37.8715 C.3       5 UNK         0.1400 
     48 CB          3.4023  -15.8634  -36.6173 C.3       5 UNK        -0.1800 
     49 N           2.8567  -15.2531  -38.9200 N.am      5 UNK        -0.5000 
     50 C           2.0112  -14.9541  -39.9130 C.2       4 UNK         0.5000 
     51 O           0.8525  -15.3723  -39.9746 O.2       4 UNK        -0.5000 
     52 CA          2.5796  -14.0680  -41.0379 C.3       4 UNK         0.1400 
     53 CB          3.2285  -14.9311  -42.1307 C.3       4 UNK        -0.1800 
     54 N           1.5596  -13.2183  -41.6514 N.am      4 UNK        -0.5000 
     55 C           1.0046  -12.1590  -41.0475 C.2       3 UNK         0.5000 
     56 O           1.3135  -11.7919  -39.9123 O.2       3 UNK        -0.5000 
     57 CA         -0.0532  -11.3529  -41.8197 C.3       3 UNK         0.1400 
     58 CB          0.5876  -10.1483  -42.5299 C.3       3 UNK        -0.1800 
     59 N          -0.8102  -12.1497  -42.7904 N.am      3 UNK        -0.5000 
     60 C          -2.1133  -11.9630  -43.0498 C.2       2 UNK         0.5000 
     61 O          -2.8033  -11.1201  -42.4730 O.2       2 UNK        -0.5000 
     62 CA         -2.7515  -12.8419  -44.1424 C.3       2 UNK         0.1400 
     63 CB         -3.9744  -12.1827  -44.8085 C.3       2 UNK        -0.1800 
     64 N          -1.7731  -13.1922  -45.1699 N.am      2 UNK        -0.5000 
     65 C          -1.6487  -14.4033  -45.7242 C.2       1 UNK         0.5000 
     66 O          -2.4044  -15.3420  -45.4743 O.2       1 UNK        -0.5000 
     67 C          -0.4132  -21.2928  -47.8132 C.2       11 UNK         0.5000 
     68 O          -0.9359  -21.9865  -48.6836 O.2       11 UNK        -0.5000 
     69 N          -0.9669  -20.1637  -47.3377 N.am      12 UNK        -0.5000 
     70 CA         -2.2773  -19.6393  -47.7380 C.3       12 UNK         0.1400 
     71 CB         -2.5754  -18.3151  -47.0107 C.3       12 UNK        -0.1800 
     72 C          -3.4188  -20.6337  -47.4711 C.2       12 UNK         0.5000 
     73 O          -4.2594  -20.8385  -48.3462 O.2       12 UNK        -0.5000 
     74 N          -3.4134  -21.2444  -46.2778 N.am      13 UNK        -0.5000 
     75 CA         -4.3751  -22.2668  -45.8698 C.3       13 UNK         0.1400 
     76 CB         -4.2373  -22.5386  -44.3643 C.3       13 UNK        -0.1800 
     77 C          -4.2334  -23.5630  -46.6877 C.2       13 UNK         0.5000 
     78 O          -5.2444  -24.1125  -47.1243 O.2       13 UNK        -0.5000 
     79 N          -2.9879  -24.0004  -46.9233 N.am      14 UNK        -0.5000 
     80 CA         -2.6512  -25.1664  -47.7454 C.3       14 UNK         0.1400 
     81 CB         -1.1493  -25.4640  -47.6229 C.3       14 UNK        -0.1800 
     82 C          -3.0572  -25.0005  -49.2231 C.2       14 UNK         0.5000 
     83 O          -3.5564  -25.9498  -49.8276 O.2       14 UNK        -0.5000 
     84 N          -2.8754  -23.7879  -49.7625 N.am      15 UNK        -0.5000 
     85 CA         -3.2984  -23.3879  -51.1061 C.3       15 UNK         0.1400 
     86 CB         -2.4506  -22.1842  -51.5513 C.3       15 UNK        -0.1800 
     87 C          -4.8030  -23.0560  -51.2043 C.2       15 UNK         0.5000 
     88 O          -5.2746  -22.7472  -52.3002 O.2       15 UNK        -0.5000 
     89 N          -5.5179  -23.0859  -50.0686 N.am      16 UNK        -0.5000 
     90 CA         -6.9395  -22.7762  -49.8906 C.3       16 UNK         0.1400 
     91 CB         -7.8108  -23.8880  -50.5081 C.3       16 UNK        -0.1800 
     92 C          -7.3046  -21.3596  -50.3808 C.2       16 UNK         0.5000 
     93 O          -8.2819  -21.1853  -51.1089 O.2       16 UNK        -0.5000 
     94 N          -6.4798  -20.3798  -49.9828 N.am      17 UNK        -0.5000 
     95 CA         -6.5119  -18.9703  -50.3855 C.3       17 UNK         0.1400 
     96 CB         -7.8090  -18.2793  -49.9141 C.3       17 UNK        -0.1800 
     97 C          -6.2251  -18.7840  -51.8909 C.2       17 UNK         0.5000 
     98 O          -6.8652  -17.9616  -52.5484 O.2       17 UNK        -0.5000 
     99 N          -5.2506  -19.5579  -52.3935 N.am      18 UNK        -0.5000 
    100 CA        -4.7678  -19.6016  -53.7779 C.3       18 UNK         0.1400 
    101 CB        -4.1100  -18.2630  -54.1755 C.3       18 UNK        -0.1800 
    102 C         -5.8475  -20.0707  -54.7748 C.2       18 UNK         0.5000 
    103 O         -5.9781  -19.5088  -55.8648 O.2       18 UNK        -0.5000 
    104 N         -6.5994  -21.1109  -54.3923 N.am      19 UNK        -0.5000 
    105 CA        -7.6513  -21.7279  -55.1998 C.3       19 UNK         0.1400 
    106 CB        -8.6524  -22.4343  -54.2719 C.3       19 UNK        -0.1800 
    107 C         -7.0389  -22.6848  -56.2385 C.2       19 UNK         0.5000 
    108 O         -7.0788  -23.9028  -56.0612 O.2       19 UNK        -0.5000 
    109 N         -6.4191  -22.1023  -57.2737 N.am      20 UNK        -0.5000 
    110 CA        -5.7289  -22.7282  -58.4128 C.3       20 UNK         0.1400 
    111 CB        -6.6757  -23.6498  -59.2059 C.3       20 UNK        -0.1800 
    112 C         -4.4081  -23.4494  -58.0676 C.2       20 UNK         0.5000 
    113 O         -3.5851  -23.6439  -58.9631 O.2       20 UNK        -0.5000 
    114 N         -4.1936  -23.7902  -56.7894 N.am      21 UNK        -0.5000 
    115 CA        -3.0015  -24.4523  -56.2481 C.3       21 UNK         0.1400 
    116 CB        -3.2149  -24.6846  -54.7449 C.3       21 UNK        -0.1800 
    117 C         -1.6865  -23.6826  -56.4872 C.2       21 UNK         0.5000 
    118 O         -0.6282  -24.3031  -56.5957 O.2       21 UNK        -0.5000 
    119 N         -1.7877  -22.3527  -56.5877 N.am      22 UNK        -0.5000 
    120 CA        -0.6954  -21.4406  -56.9570 C.3       22 UNK         0.1400 
    121 C         -0.3767  -21.4067  -58.4830 C.2       22 UNK         0.5000 
    122 N         -1.1301  -22.0721  -59.3515 N.am      22 UNK        -0.7600 
    123 O          0.5889  -20.7671  -58.8908 O.2       22 UNK        -0.5000 
    124 C124       -0.9543  -20.0150  -56.4077 C.3       23 UNK        -0.0398 
    125 S125       -0.9590  -19.9767  -54.5824 S.3       23 UNK        -0.2404 
    126 C126        0.4708  -18.8975  -54.2730 C.3       23 UNK        -0.0205 
    127 H127        2.4657  -11.6814  -44.9725 H         1 UNK         0.0600 
    128 H128        2.7551  -12.2689  -46.6119 H         1 UNK         0.0600 
    129 H129        3.4710  -13.1079  -45.2342 H         1 UNK         0.0600 
    130 H130        0.9721  -13.2865  -47.4301 H         1 UNK         0.3000 
    131 H131       -0.1054  -15.6232  -46.5140 H         1 UNK         0.0600 
    132 H132       -1.9412  -15.1928  -48.2553 H         1 UNK         0.0800 
    133 H133       -1.2960  -13.5915  -48.4668 H         1 UNK         0.0800 
    134 H134       -0.7756  -17.3703  -48.8437 H         1 UNK         0.0800 
    135 H135       -1.5610  -16.6739  -50.2412 H         1 UNK         0.0800 
    136 H136       -0.7924  -17.3053  -52.4610 H         1 UNK         0.1150 
    137 H137        2.3489  -20.2032  -52.7911 H         1 UNK         0.1150 
    138 H138        1.5186  -18.3478  -49.0120 H         1 UNK         0.1150 
    139 H139        3.9160  -20.4459  -50.9628 H         1 UNK         0.0800 
    140 H140        3.7218  -19.5749  -49.4684 H         1 UNK         0.0800 
    141 H141        2.0741  -20.0458  -47.7314 H         1 UNK         0.0800 
    142 H142        3.0241  -21.3630  -47.1245 H         1 UNK         0.0800 
    143 H143        0.9625  -22.8574  -47.3257 H         1 UNK         0.0600 
    144 H144        1.5693  -21.0013  -45.2981 H         1 UNK         0.3000 
    145 H145       -0.9687  -21.9170  -42.9629 H         1 UNK         0.0600 
    146 H146        1.0476  -22.0880  -41.5370 H         1 UNK         0.0600 
    147 H147        0.9204  -23.4841  -42.5930 H         1 UNK         0.0600 
    148 H148        2.0826  -22.2189  -42.9585 H         1 UNK         0.0600 
    149 H149        1.1558  -19.9121  -43.2141 H         1 UNK         0.3000 
    150 H150       -0.9079  -17.4007  -44.5664 H         1 UNK         0.0600 
    151 H151       -1.6255  -17.1453  -42.2243 H         1 UNK         0.0600 
    152 H152       -0.2800  -16.0674  -42.5622 H         1 UNK         0.0600 
    153 H153       -0.0153  -17.5484  -41.6437 H         1 UNK         0.0600 
    154 H154        1.7671  -17.5738  -43.3980 H         1 UNK         0.3000 
    155 H155        3.3411  -18.4060  -46.4934 H         1 UNK         0.0600 
    156 H156        4.5558  -16.2841  -46.2311 H         1 UNK         0.0600 
    157 H157        2.9219  -15.9481  -46.7831 H         1 UNK         0.0600 
    158 H158        3.3483  -15.6867  -45.0945 H         1 UNK         0.0600 
    159 H159        4.4424  -17.5923  -44.0042 H         1 UNK         0.3000 
    160 H160        5.1667  -20.7819  -42.9197 H         1 UNK         0.0600 
    161 H161        5.3280  -17.8027  -42.1819 H         1 UNK         0.0600 
    162 H162        6.4236  -18.6385  -43.2830 H         1 UNK         0.0600 
    163 H163        6.3645  -19.0909  -41.5900 H         1 UNK         0.0600 
    164 H164        3.9414  -20.8678  -41.0568 H         1 UNK         0.3000 
    165 H165        1.0989  -19.7765  -40.1438 H         1 UNK         0.0600 
    166 H166        2.1282  -20.8760  -38.1251 H         1 UNK         0.0600 
    167 H167        2.6249  -21.6275  -39.6270 H         1 UNK         0.0600 
    168 H168        3.7328  -20.5593  -38.7733 H         1 UNK         0.0600 
    169 H169        1.0618  -17.8742  -39.0187 H         1 UNK         0.3000 
    170 H170        1.5331  -16.2259  -37.6040 H         1 UNK         0.0600 
    171 H171        4.4731  -15.8186  -36.8200 H         1 UNK         0.0600 
    172 H172        3.0964  -14.8927  -36.2267 H         1 UNK         0.0600 
    173 H173        3.2481  -16.5964  -35.8244 H         1 UNK         0.0600 
    174 H174        3.8015  -14.8990  -38.9614 H         1 UNK         0.3000 
    175 H175        3.3503  -13.4213  -40.6130 H         1 UNK         0.0600 
    176 H176        3.7075  -14.3126  -42.8895 H         1 UNK         0.0600 
    177 H177        2.4908  -15.5605  -42.6288 H         1 UNK         0.0600 
    178 H178        3.9928  -15.5879  -41.7138 H         1 UNK         0.0600 
    179 H179        1.2805  -13.4809  -42.5919 H         1 UNK         0.3000 
    180 H180       -0.7360  -10.9686  -41.0587 H         1 UNK         0.0600 
    181 H181        1.2682  -10.4646  -43.3198 H         1 UNK         0.0600 
    182 H182        1.1579   -9.5372  -41.8291 H         1 UNK         0.0600 
    183 H183       -0.1700   -9.5051  -42.9777 H         1 UNK         0.0600 
    184 H184       -0.3080  -12.8800  -43.2837 H         1 UNK         0.3000 
    185 H185       -3.0898  -13.7443  -43.6290 H         1 UNK         0.0600 
    186 H186       -4.7516  -11.9599  -44.0766 H         1 UNK         0.0600 
    187 H187       -3.7055  -11.2480  -45.3017 H         1 UNK         0.0600 
    188 H188       -4.4172  -12.8409  -45.5563 H         1 UNK         0.0600 
    189 H189       -1.1083  -12.4735  -45.4196 H         1 UNK         0.3000 
    190 H190       -0.4339  -19.6004  -46.6837 H         1 UNK         0.3000 
    191 H191       -2.2318  -19.4467  -48.8118 H         1 UNK         0.0600 
    192 H192       -1.6980  -17.6799  -46.9180 H         1 UNK         0.0600 
    193 H193       -3.3361  -17.7465  -47.5463 H         1 UNK         0.0600 
    194 H194       -2.9530  -18.4729  -46.0008 H         1 UNK         0.0600 
    195 H195       -2.6989  -20.9928  -45.6063 H         1 UNK         0.3000 
    196 H196       -5.3770  -21.8706  -46.0487 H         1 UNK         0.0600 
    197 H197       -4.9840  -23.2596  -44.0296 H         1 UNK         0.0600 
    198 H198       -4.3822  -21.6264  -43.7849 H         1 UNK         0.0600 
    199 H199       -3.2572  -22.9417  -44.1107 H         1 UNK         0.0600 
    200 H200       -2.2115  -23.5115  -46.4856 H         1 UNK         0.3000 
    201 H201       -3.1997  -26.0215  -47.3451 H         1 UNK         0.0600 
    202 H202       -0.8620  -25.6268  -46.5839 H         1 UNK         0.0600 
    203 H203       -0.5442  -24.6459  -48.0133 H         1 UNK         0.0600 
    204 H204       -0.8834  -26.3631  -48.1799 H         1 UNK         0.0600 
    205 H205       -2.3841  -23.0813  -49.2193 H         1 UNK         0.3000 
    206 H206       -3.1024  -24.2147  -51.7907 H         1 UNK         0.0600 
    207 H207       -1.3853  -22.4105  -51.4995 H         1 UNK         0.0600 
    208 H208       -2.6670  -21.9083  -52.5831 H         1 UNK         0.0600 
    209 H209       -2.6345  -21.3089  -50.9269 H         1 UNK         0.0600 
    210 H210       -5.0264  -23.3259  -49.2174 H         1 UNK         0.3000 
    211 H211       -7.1222  -22.7769  -48.8152 H         1 UNK         0.0600 
    212 H212       -7.6496  -23.9794  -51.5810 H         1 UNK         0.0600 
    213 H213       -8.8718  -23.6938  -50.3478 H         1 UNK         0.0600 
    214 H214       -7.5867  -24.8541  -50.0560 H         1 UNK         0.0600 
    215 H215       -5.6955  -20.6370  -49.3828 H         1 UNK         0.3000 
    216 H216       -5.6829  -18.4922  -49.8616 H         1 UNK         0.0600 
    217 H217       -7.7589  -17.2029  -50.0815 H         1 UNK         0.0600 
    218 H218       -7.9724  -18.4337  -48.8476 H         1 UNK         0.0600 
    219 H219       -8.6857  -18.6497  -50.4458 H         1 UNK         0.0600 
    220 H220       -4.8359  -20.2359  -51.7714 H         1 UNK         0.3000 
    221 H221       -3.9901  -20.3648  -53.8056 H         1 UNK         0.0600 
    222 H222       -4.8335  -17.4488  -54.2197 H         1 UNK         0.0600 
    223 H223       -3.3299  -17.9827  -53.4676 H         1 UNK         0.0600 
    224 H224       -3.6422  -18.3350  -55.1579 H         1 UNK         0.0600 
    225 H225       -6.3757  -21.5718  -53.5150 H         1 UNK         0.3000 
    226 H226       -8.1959  -20.9503  -55.7396 H         1 UNK         0.0600 
    227 H227       -9.1306  -21.7248  -53.5971 H         1 UNK         0.0600 
    228 H228       -9.4433  -22.9191  -54.8454 H         1 UNK         0.0600 
    229 H229       -8.1670  -23.1998  -53.6677 H         1 UNK         0.0600 
    230 H230       -6.3717  -21.0890  -57.2514 H         1 UNK         0.3000 
    231 H231       -5.4537  -21.9030  -59.0714 H         1 UNK         0.0600 
    232 H232       -6.9621  -24.5325  -58.6337 H         1 UNK         0.0600 
    233 H233       -6.1987  -24.0002  -60.1221 H         1 UNK         0.0600 
    234 H234       -7.5865  -23.1256  -59.4951 H         1 UNK         0.0600 
    235 H235       -4.9630  -23.6537  -56.1464 H         1 UNK         0.3000 
    236 H236       -2.9091  -25.4222  -56.7406 H         1 UNK         0.0600 
    237 H237       -4.0894  -25.3088  -54.5601 H         1 UNK         0.0600 
    238 H238       -2.3560  -25.1862  -54.2971 H         1 UNK         0.0600 
    239 H239       -3.3598  -23.7420  -54.2166 H         1 UNK         0.0600 
    240 H240       -2.7001  -21.9367  -56.4841 H         1 UNK         0.3000 
    241 H241        0.2174  -21.8090  -56.4847 H         1 UNK         0.0600 
    242 H242       -1.9285  -22.6248  -59.0557 H         1 UNK         0.3800 
    243 H243       -0.8946  -22.0358  -60.3305 H         1 UNK         0.3800 
    244 H244       -0.2006  -19.3156  -56.7737 H         1 UNK         0.0800 
    245 H245       -1.9119  -19.6350  -56.7669 H         1 UNK         0.0800 
    246 H246        1.3451  -19.2977  -54.7890 H         1 UNK         0.0800 
    247 H247        0.2812  -17.9123  -54.7020 H         1 UNK         0.0800 
@<TRIPOS>BOND
     1    1    2 1    
     2    1  127 1    
     3    1  128 1    
     4    1  129 1    
     5    2    3 2    
     6    2    4 am   BACKBONE|DICT|INTERRES
     7    4    5 1    
     8    4  130 1    
     9    5    6 1    
    10    5   65 1    
    11    5  131 1    
    12    6    7 1    
    13    6  132 1    
    14    6  133 1    
    15    7    8 1    
    16    8    9 1    
    17    8  134 1    
    18    8  135 1    
    19    9   10 ar   
    20    9   14 ar   
    21   10   11 ar   
    22   10  136 1    
    23   11   12 ar   
    24   11  126 1    
    25   12   13 ar   
    26   12  137 1    
    27   13   14 ar   
    28   13   15 1    
    29   14  138 1    
    30   15   16 1    
    31   15  139 1    
    32   15  140 1    
    33   16   17 1    
    34   17   18 1    
    35   17  141 1    
    36   17  142 1    
    37   18   19 1    
    38   18   67 1    
    39   18  143 1    
    40   19   20 am   BACKBONE|DICT|INTERRES
    41   19  144 1    
    42   20   21 2    
    43   20   22 1    
    44   22   23 1    
    45   22   24 1    
    46   22  145 1    
    47   23  146 1    
    48   23  147 1    
    49   23  148 1    
    50   24   25 am   BACKBONE|DICT|INTERRES
    51   24  149 1    
    52   25   26 2    
    53   25   27 1    
    54   27   28 1    
    55   27   29 1    
    56   27  150 1    
    57   28  151 1    
    58   28  152 1    
    59   28  153 1    
    60   29   30 am   BACKBONE|DICT|INTERRES
    61   29  154 1    
    62   30   31 2    
    63   30   32 1    
    64   32   33 1    
    65   32   34 1    
    66   32  155 1    
    67   33  156 1    
    68   33  157 1    
    69   33  158 1    
    70   34   35 am   BACKBONE|DICT|INTERRES
    71   34  159 1    
    72   35   36 2    
    73   35   37 1    
    74   37   38 1    
    75   37   39 1    
    76   37  160 1    
    77   38  161 1    
    78   38  162 1    
    79   38  163 1    
    80   39   40 am   BACKBONE|DICT|INTERRES
    81   39  164 1    
    82   40   41 2    
    83   40   42 1    
    84   42   43 1    
    85   42   44 1    
    86   42  165 1    
    87   43  166 1    
    88   43  167 1    
    89   43  168 1    
    90   44   45 am   BACKBONE|DICT|INTERRES
    91   44  169 1    
    92   45   46 2    
    93   45   47 1    
    94   47   48 1    
    95   47   49 1    
    96   47  170 1    
    97   48  171 1    
    98   48  172 1    
    99   48  173 1    
   100   49   50 am   BACKBONE|DICT|INTERRES
   101   49  174 1    
   102   50   51 2    
   103   50   52 1    
   104   52   53 1    
   105   52   54 1    
   106   52  175 1    
   107   53  176 1    
   108   53  177 1    
   109   53  178 1    
   110   54   55 am   BACKBONE|DICT|INTERRES
   111   54  179 1    
   112   55   56 2    
   113   55   57 1    
   114   57   58 1    
   115   57   59 1    
   116   57  180 1    
   117   58  181 1    
   118   58  182 1    
   119   58  183 1    
   120   59   60 am   BACKBONE|DICT|INTERRES
   121   59  184 1    
   122   60   61 2    
   123   60   62 1    
   124   62   63 1    
   125   62   64 1    
   126   62  185 1    
   127   63  186 1    
   128   63  187 1    
   129   63  188 1    
   130   64   65 am   BACKBONE|DICT|INTERRES
   131   64  189 1    
   132   65   66 2    
   133   67   68 2    
   134   67   69 am   BACKBONE|DICT|INTERRES
   135   69   70 1    
   136   69  190 1    
   137   70   71 1    
   138   70   72 1    
   139   70  191 1    
   140   71  192 1    
   141   71  193 1    
   142   71  194 1    
   143   72   73 2    
   144   72   74 am   BACKBONE|DICT|INTERRES
   145   74   75 1    
   146   74  195 1    
   147   75   76 1    
   148   75   77 1    
   149   75  196 1    
   150   76  197 1    
   151   76  198 1    
   152   76  199 1    
   153   77   78 2    
   154   77   79 am   BACKBONE|DICT|INTERRES
   155   79   80 1    
   156   79  200 1    
   157   80   81 1    
   158   80   82 1    
   159   80  201 1    
   160   81  202 1    
   161   81  203 1    
   162   81  204 1    
   163   82   83 2    
   164   82   84 am   BACKBONE|DICT|INTERRES
   165   84   85 1    
   166   84  205 1    
   167   85   86 1    
   168   85   87 1    
   169   85  206 1    
   170   86  207 1    
   171   86  208 1    
   172   86  209 1    
   173   87   88 2    
   174   87   89 am   BACKBONE|DICT|INTERRES
   175   89   90 1    
   176   89  210 1    
   177   90   91 1    
   178   90   92 1    
   179   90  211 1    
   180   91  212 1    
   181   91  213 1    
   182   91  214 1    
   183   92   93 2    
   184   92   94 am   BACKBONE|DICT|INTERRES
   185   94   95 1    
   186   94  215 1    
   187   95   96 1    
   188   95   97 1    
   189   95  216 1    
   190   96  217 1    
   191   96  218 1    
   192   96  219 1    
   193   97   98 2    
   194   97   99 am   BACKBONE|DICT|INTERRES
   195   99  100 1    
   196   99  220 1    
   197  100  101 1    
   198  100  102 1    
   199  100  221 1    
   200  101  222 1    
   201  101  223 1    
   202  101  224 1    
   203  102  103 2    
   204  102  104 am   BACKBONE|DICT|INTERRES
   205  104  105 1    
   206  104  225 1    
   207  105  106 1    
   208  105  107 1    
   209  105  226 1    
   210  106  227 1    
   211  106  228 1    
   212  106  229 1    
   213  107  108 2    
   214  107  109 am   BACKBONE|DICT|INTERRES
   215  109  110 1    
   216  109  230 1    
   217  110  111 1    
   218  110  112 1    
   219  110  231 1    
   220  111  232 1    
   221  111  233 1    
   222  111  234 1    
   223  112  113 2    
   224  112  114 am   BACKBONE|DICT|INTERRES
   225  114  115 1    
   226  114  235 1    
   227  115  116 1    
   228  115  117 1    
   229  115  236 1    
   230  116  237 1    
   231  116  238 1    
   232  116  239 1    
   233  117  118 2    
   234  117  119 am   BACKBONE|DICT|INTERRES
   235  119  120 1    
   236  119  240 1    
   237  120  121 1    
   238  120  124 1    
   239  120  241 1    
   240  121  122 am   BACKBONE|DICT|INTERRES
   241  121  123 2    
   242  122  242 1    
   243  122  243 1    
   244  124  125 1    
   245  124  244 1    
   246  124  245 1    
   247  125  126 1    
   248  126  246 1    
   249  126  247 1    
@<TRIPOS>SUBSTRUCTURE
     1 UNK         1 GROUP             0       ****    0 ROOT    
