@<TRIPOS>MOLECULE
3R540
247   249    1
SMALL
USER_CHARGES


@<TRIPOS>ATOM
      1 CA          1.4364  -18.0804  -50.2477 C.3       0 UNK        -0.1800 
      2 C           1.2332  -16.6438  -50.7179 C.2       0 UNK         0.5000 
      3 O           1.2224  -16.3969  -51.9211 O.2       0 UNK        -0.5000 
      4 N           1.0714  -15.6624  -49.8180 N.am      1 UNK        -0.5000 
      5 CA          1.1016  -15.7804  -48.3514 C.3       1 UNK         0.1400 
      6 C6          0.3752  -14.5877  -47.6723 C.3       23 UNK        -0.0398 
      7 S7         -1.4372  -14.4210  -47.9383 S.3       23 UNK        -0.2404 
      8 C8         -1.9713  -15.9467  -48.7786 C.3       23 UNK        -0.0205 
      9 C9         -3.4831  -16.1075  -48.7840 C.ar      23 UNK        -0.0193 
     10 C10        -4.2664  -15.4400  -49.7278 C.ar      23 UNK        -0.1150 
     11 C11        -5.6519  -15.6252  -49.7567 C.ar      23 UNK        -0.0193 
     12 C12        -6.2460  -16.5046  -48.8449 C.ar      23 UNK        -0.1150 
     13 C13        -5.4769  -17.1856  -47.8936 C.ar      23 UNK        -0.0193 
     14 C14        -4.0947  -16.9631  -47.8646 C.ar      23 UNK        -0.1150 
     15 C15        -6.1725  -18.1682  -46.9457 C.3       23 UNK        -0.0205 
     16 S16        -5.3315  -18.4471  -45.3434 S.3       23 UNK        -0.2404 
     17 C17        -4.6479  -20.1361  -45.5265 C.3       23 UNK        -0.0398 
     18 CA         -3.2546  -20.1507  -46.1947 C.3       11 UNK         0.1400 
     19 N          -2.2409  -19.4171  -45.4334 N.am      11 UNK        -0.5000 
     20 C          -1.0981  -18.9608  -45.9623 C.2       10 UNK         0.5000 
     21 O          -0.7828  -19.1181  -47.1412 O.2       10 UNK        -0.5000 
     22 CA         -0.1300  -18.2377  -45.0113 C.3       10 UNK         0.1400 
     23 CB         -0.6492  -16.8311  -44.6790 C.3       10 UNK        -0.1800 
     24 N           0.1072  -18.9848  -43.7763 N.am      10 UNK        -0.5000 
     25 C           0.6350  -20.2164  -43.7219 C.2       9 UNK         0.5000 
     26 O           1.0179  -20.8445  -44.7089 O.2       9 UNK        -0.5000 
     27 CA          0.6982  -20.8803  -42.3362 C.3       9 UNK         0.1400 
     28 CB          1.9226  -20.3956  -41.5466 C.3       9 UNK        -0.1800 
     29 N          -0.5184  -20.6457  -41.5584 N.am      9 UNK        -0.5000 
     30 C          -1.7139  -21.1784  -41.8499 C.2       8 UNK         0.5000 
     31 O          -1.9119  -21.9441  -42.7914 O.2       8 UNK        -0.5000 
     32 CA         -2.8986  -20.7414  -40.9701 C.3       8 UNK         0.1400 
     33 CB         -2.9138  -21.5232  -39.6480 C.3       8 UNK        -0.1800 
     34 N          -2.8868  -19.3062  -40.6879 N.am      8 UNK        -0.5000 
     35 C          -2.9900  -18.3504  -41.6225 C.2       7 UNK         0.5000 
     36 O          -3.1392  -18.5816  -42.8206 O.2       7 UNK        -0.5000 
     37 CA         -2.8415  -16.8961  -41.1410 C.3       7 UNK         0.1400 
     38 CB         -4.1947  -16.3399  -40.6743 C.3       7 UNK        -0.1800 
     39 N          -1.8552  -16.7519  -40.0667 N.am      7 UNK        -0.5000 
     40 C          -0.5497  -17.0204  -40.1971 C.2       6 UNK         0.5000 
     41 O          -0.0314  -17.4278  -41.2401 O.2       6 UNK        -0.5000 
     42 CA          0.3101  -16.8644  -38.9359 C.3       6 UNK         0.1400 
     43 CB          0.6657  -18.2410  -38.3524 C.3       6 UNK        -0.1800 
     44 N           1.5379  -16.1476  -39.2628 N.am      6 UNK        -0.5000 
     45 C           1.6689  -14.8161  -39.2170 C.2       5 UNK         0.5000 
     46 O           0.7843  -14.0526  -38.8270 O.2       5 UNK        -0.5000 
     47 CA          3.0171  -14.2373  -39.6823 C.3       5 UNK         0.1400 
     48 CB          4.0018  -14.1538  -38.5057 C.3       5 UNK        -0.1800 
     49 N           3.6298  -15.0061  -40.7680 N.am      5 UNK        -0.5000 
     50 C           3.2023  -14.9857  -42.0367 C.2       4 UNK         0.5000 
     51 O           2.2176  -14.3502  -42.4213 O.2       4 UNK        -0.5000 
     52 CA          4.0253  -15.8040  -43.0490 C.3       4 UNK         0.1400 
     53 CB          3.3004  -17.1051  -43.4217 C.3       4 UNK        -0.1800 
     54 N           4.2895  -15.0313  -44.2621 N.am      4 UNK        -0.5000 
     55 C           5.0903  -13.9552  -44.3166 C.2       3 UNK         0.5000 
     56 O           5.7317  -13.5436  -43.3474 O.2       3 UNK        -0.5000 
     57 CA          5.1894  -13.2110  -45.6690 C.3       3 UNK         0.1400 
     58 CB          6.5252  -12.4576  -45.8428 C.3       3 UNK        -0.1800 
     59 N           4.9163  -14.0620  -46.8324 N.am      3 UNK        -0.5000 
     60 C           5.5837  -15.1617  -47.2144 C.2       2 UNK         0.5000 
     61 O           6.6119  -15.5636  -46.6673 O.2       2 UNK        -0.5000 
     62 CA          4.9882  -15.9499  -48.4030 C.3       2 UNK         0.1400 
     63 CB          5.2563  -17.4660  -48.2897 C.3       2 UNK        -0.1800 
     64 N           3.5560  -15.7107  -48.6431 N.am      2 UNK        -0.5000 
     65 C           2.5362  -15.9393  -47.7981 C.2       1 UNK         0.5000 
     66 O           2.6879  -16.2701  -46.6223 O.2       1 UNK        -0.5000 
     67 C          -2.7989  -21.5764  -46.5658 C.2       11 UNK         0.5000 
     68 O          -3.1747  -22.0512  -47.6363 O.2       11 UNK        -0.5000 
     69 N          -1.9643  -22.2212  -45.7360 N.am      12 UNK        -0.5000 
     70 CA         -1.3211  -23.4973  -46.0666 C.3       12 UNK         0.1400 
     71 CB         -0.6377  -24.0904  -44.8260 C.3       12 UNK        -0.1800 
     72 C          -0.3212  -23.3598  -47.2293 C.2       12 UNK         0.5000 
     73 O          -0.3317  -24.1888  -48.1404 O.2       12 UNK        -0.5000 
     74 N           0.4881  -22.2902  -47.2062 N.am      13 UNK        -0.5000 
     75 CA          1.3955  -21.9214  -48.2935 C.3       13 UNK         0.1400 
     76 CB          2.2990  -20.7597  -47.8500 C.3       13 UNK        -0.1800 
     77 C           0.6397  -21.5732  -49.5883 C.2       13 UNK         0.5000 
     78 O           1.0589  -21.9935  -50.6653 O.2       13 UNK        -0.5000 
     79 N          -0.4826  -20.8523  -49.4566 N.am      14 UNK        -0.5000 
     80 CA         -1.3853  -20.5050  -50.5540 C.3       14 UNK         0.1400 
     81 CB         -2.4588  -19.5354  -50.0442 C.3       14 UNK        -0.1800 
     82 C          -2.0241  -21.7473  -51.1966 C.2       14 UNK         0.5000 
     83 O          -2.0237  -21.8615  -52.4233 O.2       14 UNK        -0.5000 
     84 N          -2.5017  -22.6768  -50.3562 N.am      15 UNK        -0.5000 
     85 CA         -3.0662  -23.9608  -50.7658 C.3       15 UNK         0.1400 
     86 CB         -3.6432  -24.6966  -49.5481 C.3       15 UNK        -0.1800 
     87 C          -2.0587  -24.8444  -51.5199 C.2       15 UNK         0.5000 
     88 O          -2.4210  -25.4472  -52.5303 O.2       15 UNK        -0.5000 
     89 N          -0.8051  -24.8689  -51.0491 N.am      16 UNK        -0.5000 
     90 CA          0.3058  -25.5414  -51.7218 C.3       16 UNK         0.1400 
     91 CB          1.5216  -25.5801  -50.7834 C.3       16 UNK        -0.1800 
     92 C           0.6719  -24.8887  -53.0704 C.2       16 UNK         0.5000 
     93 O           1.0124  -25.6028  -54.0144 O.2       16 UNK        -0.5000 
     94 N           0.5967  -23.5528  -53.1359 N.am      17 UNK        -0.5000 
     95 CA          0.9260  -22.7588  -54.3161 C.3       17 UNK         0.1400 
     96 CB          1.1776  -21.2990  -53.9040 C.3       17 UNK        -0.1800 
     97 C          -0.1366  -22.8358  -55.4272 C.2       17 UNK         0.5000 
     98 O           0.2272  -23.0722  -56.5806 O.2       17 UNK        -0.5000 
     99 N          -1.4123  -22.6012  -55.0856 N.am      18 UNK        -0.5000 
    100 CA        -2.4827  -22.3921  -56.0684 C.3       18 UNK         0.1400 
    101 CB        -2.4248  -20.9449  -56.6029 C.3       18 UNK        -0.1800 
    102 C         -3.8844  -22.7827  -55.5601 C.2       18 UNK         0.5000 
    103 O         -4.8785  -22.2704  -56.0790 O.2       18 UNK        -0.5000 
    104 N         -3.9554  -23.7060  -54.5902 N.am      19 UNK        -0.5000 
    105 CA        -5.1860  -24.2717  -54.0215 C.3       19 UNK         0.1400 
    106 CB        -5.9412  -25.1038  -55.0840 C.3       19 UNK        -0.1800 
    107 C         -6.0723  -23.2211  -53.3120 C.2       19 UNK         0.5000 
    108 O         -5.5639  -22.2095  -52.8223 O.2       19 UNK        -0.5000 
    109 N         -7.3823  -23.4929  -53.2364 N.am      20 UNK        -0.5000 
    110 CA        -8.3817  -22.6829  -52.5327 C.3       20 UNK         0.1400 
    111 CB        -9.7160  -23.4445  -52.5193 C.3       20 UNK        -0.1800 
    112 C         -8.5779  -21.2653  -53.1060 C.2       20 UNK         0.5000 
    113 O         -9.0472  -20.3837  -52.3859 O.2       20 UNK        -0.5000 
    114 N         -8.1893  -21.0523  -54.3697 N.am      21 UNK        -0.5000 
    115 CA        -8.2219  -19.7692  -55.0742 C.3       21 UNK         0.1400 
    116 CB        -8.3139  -20.0487  -56.5856 C.3       21 UNK        -0.1800 
    117 C         -7.0220  -18.8648  -54.7083 C.2       21 UNK         0.5000 
    118 O         -6.4078  -18.2703  -55.5964 O.2       21 UNK        -0.5000 
    119 N         -6.7110  -18.7786  -53.4078 N.am      22 UNK        -0.5000 
    120 CA        -5.5830  -18.0313  -52.8244 C.3       22 UNK         0.1400 
    121 C         -4.1909  -18.5468  -53.2956 C.2       22 UNK         0.5000 
    122 N         -4.0104  -19.8531  -53.4353 N.am      22 UNK        -0.7600 
    123 O         -3.2558  -17.7772  -53.4988 O.2       22 UNK        -0.5000 
    124 C124       -5.7494  -16.4905  -52.9438 C.3       23 UNK        -0.0398 
    125 S125       -7.2308  -15.9002  -52.0529 S.3       23 UNK        -0.2404 
    126 C126       -6.5082  -14.8493  -50.7505 C.3       23 UNK        -0.0205 
    127 H127        2.4022  -18.1978  -49.7583 H         1 UNK         0.0600 
    128 H128        1.4059  -18.7684  -51.0930 H         1 UNK         0.0600 
    129 H129        0.6516  -18.3747  -49.5533 H         1 UNK         0.0600 
    130 H130        0.9190  -14.7257  -50.1647 H         1 UNK         0.3000 
    131 H131        0.5979  -16.6969  -48.0496 H         1 UNK         0.0600 
    132 H132        0.5184  -14.6283  -46.5910 H         1 UNK         0.0800 
    133 H133        0.8371  -13.6493  -47.9838 H         1 UNK         0.0800 
    134 H134       -1.5349  -16.8083  -48.2785 H         1 UNK         0.0800 
    135 H135       -1.6083  -15.9543  -49.8064 H         1 UNK         0.0800 
    136 H136       -3.7946  -14.7711  -50.4339 H         1 UNK         0.1150 
    137 H137       -7.3159  -16.6570  -48.8788 H         1 UNK         0.1150 
    138 H138       -3.4773  -17.4589  -47.1335 H         1 UNK         0.1150 
    139 H139       -7.1743  -17.7978  -46.7228 H         1 UNK         0.0800 
    140 H140       -6.3105  -19.1149  -47.4686 H         1 UNK         0.0800 
    141 H141       -5.3581  -20.7437  -46.0900 H         1 UNK         0.0800 
    142 H142       -4.5885  -20.5854  -44.5336 H         1 UNK         0.0800 
    143 H143       -3.3697  -19.6412  -47.1501 H         1 UNK         0.0600 
    144 H144       -2.4638  -19.2067  -44.4627 H         1 UNK         0.3000 
    145 H145        0.8267  -18.1361  -45.5279 H         1 UNK         0.0600 
    146 H146        0.0725  -16.2647  -44.0906 H         1 UNK         0.0600 
    147 H147       -0.8478  -16.2671  -45.5888 H         1 UNK         0.0600 
    148 H148       -1.5815  -16.8667  -44.1181 H         1 UNK         0.0600 
    149 H149       -0.1435  -18.5232  -42.9074 H         1 UNK         0.3000 
    150 H150        0.8017  -21.9567  -42.4878 H         1 UNK         0.0600 
    151 H151        2.8420  -20.5724  -42.1062 H         1 UNK         0.0600 
    152 H152        2.0131  -20.9231  -40.5970 H         1 UNK         0.0600 
    153 H153        1.8691  -19.3286  -41.3340 H         1 UNK         0.0600 
    154 H154       -0.4547  -19.9798  -40.8036 H         1 UNK         0.3000 
    155 H155       -3.8180  -20.9692  -41.5137 H         1 UNK         0.0600 
    156 H156       -2.0323  -21.3107  -39.0418 H         1 UNK         0.0600 
    157 H157       -2.9350  -22.5983  -39.8314 H         1 UNK         0.0600 
    158 H158       -3.7957  -21.2786  -39.0557 H         1 UNK         0.0600 
    159 H159       -2.7648  -19.0287  -39.7256 H         1 UNK         0.3000 
    160 H160       -2.5023  -16.2975  -41.9883 H         1 UNK         0.0600 
    161 H161       -4.9417  -16.4199  -41.4655 H         1 UNK         0.0600 
    162 H162       -4.1173  -15.2856  -40.4081 H         1 UNK         0.0600 
    163 H163       -4.5763  -16.8793  -39.8066 H         1 UNK         0.0600 
    164 H164       -2.2036  -16.4240  -39.1772 H         1 UNK         0.3000 
    165 H165       -0.2525  -16.3120  -38.1800 H         1 UNK         0.0600 
    166 H166        1.2421  -18.1387  -37.4328 H         1 UNK         0.0600 
    167 H167       -0.2336  -18.8084  -38.1095 H         1 UNK         0.0600 
    168 H168        1.2544  -18.8387  -39.0479 H         1 UNK         0.0600 
    169 H169        2.2904  -16.6938  -39.6542 H         1 UNK         0.3000 
    170 H170        2.8342  -13.2219  -40.0410 H         1 UNK         0.0600 
    171 H171        3.5833  -13.5659  -37.6876 H         1 UNK         0.0600 
    172 H172        4.2432  -15.1412  -38.1100 H         1 UNK         0.0600 
    173 H173        4.9339  -13.6739  -38.8047 H         1 UNK         0.0600 
    174 H174        4.4538  -15.5406  -40.5330 H         1 UNK         0.3000 
    175 H175        4.9858  -16.0663  -42.6005 H         1 UNK         0.0600 
    176 H176        3.1183  -17.7163  -42.5383 H         1 UNK         0.0600 
    177 H177        3.8881  -17.7024  -44.1190 H         1 UNK         0.0600 
    178 H178        2.3360  -16.9047  -43.8865 H         1 UNK         0.0600 
    179 H179        3.7839  -15.3155  -45.0939 H         1 UNK         0.3000 
    180 H180        4.3949  -12.4638  -45.6518 H         1 UNK         0.0600 
    181 H181        7.3808  -13.1316  -45.7925 H         1 UNK         0.0600 
    182 H182        6.6561  -11.7066  -45.0629 H         1 UNK         0.0600 
    183 H183        6.5633  -11.9375  -46.7999 H         1 UNK         0.0600 
    184 H184        4.0868  -13.8259  -47.3573 H         1 UNK         0.3000 
    185 H185        5.5104  -15.5888  -49.2900 H         1 UNK         0.0600 
    186 H186        6.3255  -17.6760  -48.2455 H         1 UNK         0.0600 
    187 H187        4.8023  -17.8908  -47.3936 H         1 UNK         0.0600 
    188 H188        4.8608  -18.0025  -49.1520 H         1 UNK         0.0600 
    189 H189        3.3213  -15.4035  -49.5772 H         1 UNK         0.3000 
    190 H190       -1.7345  -21.8131  -44.8364 H         1 UNK         0.3000 
    191 H191       -2.1000  -24.1943  -46.3827 H         1 UNK         0.0600 
    192 H192       -0.1469  -25.0347  -45.0648 H         1 UNK         0.0600 
    193 H193        0.1203  -23.4197  -44.4219 H         1 UNK         0.0600 
    194 H194       -1.3621  -24.2934  -44.0374 H         1 UNK         0.0600 
    195 H195        0.4733  -21.6759  -46.3968 H         1 UNK         0.3000 
    196 H196        2.0316  -22.7836  -48.5037 H         1 UNK         0.0600 
    197 H197        2.9993  -20.4861  -48.6400 H         1 UNK         0.0600 
    198 H198        2.8875  -21.0321  -46.9738 H         1 UNK         0.0600 
    199 H199        1.7237  -19.8690  -47.5979 H         1 UNK         0.0600 
    200 H200       -0.7170  -20.4863  -48.5388 H         1 UNK         0.3000 
    201 H201       -0.7984  -19.9920  -51.3180 H         1 UNK         0.0600 
    202 H202       -2.0127  -18.7058  -49.5019 H         1 UNK         0.0600 
    203 H203       -3.1749  -20.0260  -49.3875 H         1 UNK         0.0600 
    204 H204       -3.0232  -19.1081  -50.8679 H         1 UNK         0.0600 
    205 H205       -2.5088  -22.4786  -49.3592 H         1 UNK         0.3000 
    206 H206       -3.8890  -23.7446  -51.4439 H         1 UNK         0.0600 
    207 H207       -2.8774  -24.9017  -48.8000 H         1 UNK         0.0600 
    208 H208       -4.4285  -24.1102  -49.0708 H         1 UNK         0.0600 
    209 H209       -4.0826  -25.6511  -49.8402 H         1 UNK         0.0600 
    210 H210       -0.5954  -24.3818  -50.1838 H         1 UNK         0.3000 
    211 H211        0.0024  -26.5708  -51.9236 H         1 UNK         0.0600 
    212 H212        1.8687  -24.5781  -50.5307 H         1 UNK         0.0600 
    213 H213        2.3552  -26.1096  -51.2462 H         1 UNK         0.0600 
    214 H214        1.2843  -26.0952  -49.8523 H         1 UNK         0.0600 
    215 H215        0.3614  -23.0369  -52.2949 H         1 UNK         0.3000 
    216 H216        1.8601  -23.1455  -54.7291 H         1 UNK         0.0600 
    217 H217        1.4379  -20.6877  -54.7689 H         1 UNK         0.0600 
    218 H218        2.0029  -21.2267  -53.1955 H         1 UNK         0.0600 
    219 H219        0.2996  -20.8508  -53.4389 H         1 UNK         0.0600 
    220 H220       -1.6385  -22.4052  -54.1105 H         1 UNK         0.3000 
    221 H221       -2.3093  -23.0605  -56.9140 H         1 UNK         0.0600 
    222 H222       -3.1877  -20.7682  -57.3618 H         1 UNK         0.0600 
    223 H223       -1.4624  -20.7310  -57.0676 H         1 UNK         0.0600 
    224 H224       -2.5782  -20.2165  -55.8073 H         1 UNK         0.0600 
    225 H225       -3.0947  -24.0670  -54.1988 H         1 UNK         0.3000 
    226 H226       -4.8726  -24.9666  -53.2435 H         1 UNK         0.0600 
    227 H227       -6.7196  -25.7188  -54.6315 H         1 UNK         0.0600 
    228 H228       -6.4127  -24.4732  -55.8387 H         1 UNK         0.0600 
    229 H229       -5.2641  -25.7855  -55.5990 H         1 UNK         0.0600 
    230 H230       -7.7217  -24.3394  -53.6696 H         1 UNK         0.3000 
    231 H231       -8.0445  -22.5671  -51.5006 H         1 UNK         0.0600 
    232 H232       -9.6138  -24.4128  -52.0290 H         1 UNK         0.0600 
    233 H233      -10.0911  -23.6157  -53.5291 H         1 UNK         0.0600 
    234 H234      -10.4799  -22.8868  -51.9757 H         1 UNK         0.0600 
    235 H235       -7.7571  -21.8189  -54.8648 H         1 UNK         0.3000 
    236 H236       -9.1255  -19.2304  -54.7819 H         1 UNK         0.0600 
    237 H237       -9.1829  -20.6632  -56.8214 H         1 UNK         0.0600 
    238 H238       -8.4118  -19.1220  -57.1524 H         1 UNK         0.0600 
    239 H239       -7.4262  -20.5675  -56.9507 H         1 UNK         0.0600 
    240 H240       -7.2940  -19.2867  -52.7545 H         1 UNK         0.3000 
    241 H241       -5.5985  -18.2627  -51.7585 H         1 UNK         0.0600 
    242 H242       -3.0949  -20.2000  -53.6681 H         1 UNK         0.3800 
    243 H243       -4.7469  -20.5248  -53.2367 H         1 UNK         0.3800 
    244 H244       -5.8227  -16.1887  -53.9891 H         1 UNK         0.0800 
    245 H245       -4.8733  -15.9762  -52.5473 H         1 UNK         0.0800 
    246 H246       -7.3187  -14.3595  -50.2091 H         1 UNK         0.0800 
    247 H247       -5.9317  -14.0489  -51.2172 H         1 UNK         0.0800 
@<TRIPOS>BOND
     1    1    2 1    
     2    1  127 1    
     3    1  128 1    
     4    1  129 1    
     5    2    3 2    
     6    2    4 am   BACKBONE|DICT|INTERRES
     7    4    5 1    
     8    4  130 1    
     9    5    6 1    
    10    5   65 1    
    11    5  131 1    
    12    6    7 1    
    13    6  132 1    
    14    6  133 1    
    15    7    8 1    
    16    8    9 1    
    17    8  134 1    
    18    8  135 1    
    19    9   10 ar   
    20    9   14 ar   
    21   10   11 ar   
    22   10  136 1    
    23   11   12 ar   
    24   11  126 1    
    25   12   13 ar   
    26   12  137 1    
    27   13   14 ar   
    28   13   15 1    
    29   14  138 1    
    30   15   16 1    
    31   15  139 1    
    32   15  140 1    
    33   16   17 1    
    34   17   18 1    
    35   17  141 1    
    36   17  142 1    
    37   18   19 1    
    38   18   67 1    
    39   18  143 1    
    40   19   20 am   BACKBONE|DICT|INTERRES
    41   19  144 1    
    42   20   21 2    
    43   20   22 1    
    44   22   23 1    
    45   22   24 1    
    46   22  145 1    
    47   23  146 1    
    48   23  147 1    
    49   23  148 1    
    50   24   25 am   BACKBONE|DICT|INTERRES
    51   24  149 1    
    52   25   26 2    
    53   25   27 1    
    54   27   28 1    
    55   27   29 1    
    56   27  150 1    
    57   28  151 1    
    58   28  152 1    
    59   28  153 1    
    60   29   30 am   BACKBONE|DICT|INTERRES
    61   29  154 1    
    62   30   31 2    
    63   30   32 1    
    64   32   33 1    
    65   32   34 1    
    66   32  155 1    
    67   33  156 1    
    68   33  157 1    
    69   33  158 1    
    70   34   35 am   BACKBONE|DICT|INTERRES
    71   34  159 1    
    72   35   36 2    
    73   35   37 1    
    74   37   38 1    
    75   37   39 1    
    76   37  160 1    
    77   38  161 1    
    78   38  162 1    
    79   38  163 1    
    80   39   40 am   BACKBONE|DICT|INTERRES
    81   39  164 1    
    82   40   41 2    
    83   40   42 1    
    84   42   43 1    
    85   42   44 1    
    86   42  165 1    
    87   43  166 1    
    88   43  167 1    
    89   43  168 1    
    90   44   45 am   BACKBONE|DICT|INTERRES
    91   44  169 1    
    92   45   46 2    
    93   45   47 1    
    94   47   48 1    
    95   47   49 1    
    96   47  170 1    
    97   48  171 1    
    98   48  172 1    
    99   48  173 1    
   100   49   50 am   BACKBONE|DICT|INTERRES
   101   49  174 1    
   102   50   51 2    
   103   50   52 1    
   104   52   53 1    
   105   52   54 1    
   106   52  175 1    
   107   53  176 1    
   108   53  177 1    
   109   53  178 1    
   110   54   55 am   BACKBONE|DICT|INTERRES
   111   54  179 1    
   112   55   56 2    
   113   55   57 1    
   114   57   58 1    
   115   57   59 1    
   116   57  180 1    
   117   58  181 1    
   118   58  182 1    
   119   58  183 1    
   120   59   60 am   BACKBONE|DICT|INTERRES
   121   59  184 1    
   122   60   61 2    
   123   60   62 1    
   124   62   63 1    
   125   62   64 1    
   126   62  185 1    
   127   63  186 1    
   128   63  187 1    
   129   63  188 1    
   130   64   65 am   BACKBONE|DICT|INTERRES
   131   64  189 1    
   132   65   66 2    
   133   67   68 2    
   134   67   69 am   BACKBONE|DICT|INTERRES
   135   69   70 1    
   136   69  190 1    
   137   70   71 1    
   138   70   72 1    
   139   70  191 1    
   140   71  192 1    
   141   71  193 1    
   142   71  194 1    
   143   72   73 2    
   144   72   74 am   BACKBONE|DICT|INTERRES
   145   74   75 1    
   146   74  195 1    
   147   75   76 1    
   148   75   77 1    
   149   75  196 1    
   150   76  197 1    
   151   76  198 1    
   152   76  199 1    
   153   77   78 2    
   154   77   79 am   BACKBONE|DICT|INTERRES
   155   79   80 1    
   156   79  200 1    
   157   80   81 1    
   158   80   82 1    
   159   80  201 1    
   160   81  202 1    
   161   81  203 1    
   162   81  204 1    
   163   82   83 2    
   164   82   84 am   BACKBONE|DICT|INTERRES
   165   84   85 1    
   166   84  205 1    
   167   85   86 1    
   168   85   87 1    
   169   85  206 1    
   170   86  207 1    
   171   86  208 1    
   172   86  209 1    
   173   87   88 2    
   174   87   89 am   BACKBONE|DICT|INTERRES
   175   89   90 1    
   176   89  210 1    
   177   90   91 1    
   178   90   92 1    
   179   90  211 1    
   180   91  212 1    
   181   91  213 1    
   182   91  214 1    
   183   92   93 2    
   184   92   94 am   BACKBONE|DICT|INTERRES
   185   94   95 1    
   186   94  215 1    
   187   95   96 1    
   188   95   97 1    
   189   95  216 1    
   190   96  217 1    
   191   96  218 1    
   192   96  219 1    
   193   97   98 2    
   194   97   99 am   BACKBONE|DICT|INTERRES
   195   99  100 1    
   196   99  220 1    
   197  100  101 1    
   198  100  102 1    
   199  100  221 1    
   200  101  222 1    
   201  101  223 1    
   202  101  224 1    
   203  102  103 2    
   204  102  104 am   BACKBONE|DICT|INTERRES
   205  104  105 1    
   206  104  225 1    
   207  105  106 1    
   208  105  107 1    
   209  105  226 1    
   210  106  227 1    
   211  106  228 1    
   212  106  229 1    
   213  107  108 2    
   214  107  109 am   BACKBONE|DICT|INTERRES
   215  109  110 1    
   216  109  230 1    
   217  110  111 1    
   218  110  112 1    
   219  110  231 1    
   220  111  232 1    
   221  111  233 1    
   222  111  234 1    
   223  112  113 2    
   224  112  114 am   BACKBONE|DICT|INTERRES
   225  114  115 1    
   226  114  235 1    
   227  115  116 1    
   228  115  117 1    
   229  115  236 1    
   230  116  237 1    
   231  116  238 1    
   232  116  239 1    
   233  117  118 2    
   234  117  119 am   BACKBONE|DICT|INTERRES
   235  119  120 1    
   236  119  240 1    
   237  120  121 1    
   238  120  124 1    
   239  120  241 1    
   240  121  122 am   BACKBONE|DICT|INTERRES
   241  121  123 2    
   242  122  242 1    
   243  122  243 1    
   244  124  125 1    
   245  124  244 1    
   246  124  245 1    
   247  125  126 1    
   248  126  246 1    
   249  126  247 1    
@<TRIPOS>SUBSTRUCTURE
     1 UNK         1 GROUP             0       ****    0 ROOT    
