@<TRIPOS>MOLECULE
3R540
247   249    1
SMALL
USER_CHARGES


@<TRIPOS>ATOM
      1 CA         -4.8773  -15.8463  -50.7985 C.3       0 UNK        -0.1800 
      2 C          -4.5822  -17.0729  -49.9397 C.2       0 UNK         0.5000 
      3 O          -5.0430  -18.1589  -50.2768 O.2       0 UNK        -0.5000 
      4 N          -3.8465  -16.9574  -48.8269 N.am      1 UNK        -0.5000 
      5 CA         -3.2473  -15.7434  -48.2692 C.3       1 UNK         0.1400 
      6 C6         -1.7098  -15.7196  -48.4584 C.3       23 UNK        -0.0398 
      7 S7         -1.2412  -15.2524  -50.1546 S.3       23 UNK        -0.2404 
      8 C8          0.5404  -14.9476  -49.9614 C.3       23 UNK        -0.0205 
      9 C9          1.3370  -16.2302  -50.1277 C.ar      23 UNK        -0.0193 
     10 C10         1.8291  -16.5808  -51.3867 C.ar      23 UNK        -0.1150 
     11 C11         2.5526  -17.7619  -51.5676 C.ar      23 UNK        -0.0193 
     12 C12         2.7838  -18.5954  -50.4673 C.ar      23 UNK        -0.1150 
     13 C13         2.3212  -18.2414  -49.1944 C.ar      23 UNK        -0.0193 
     14 C14         1.5973  -17.0563  -49.0313 C.ar      23 UNK        -0.1150 
     15 C15         2.6575  -19.1078  -47.9887 C.3       23 UNK        -0.0205 
     16 S16         1.4334  -20.4209  -47.6954 S.3       23 UNK        -0.2404 
     17 C17         0.0743  -19.4948  -46.9056 C.3       23 UNK        -0.0398 
     18 CA         -1.0948  -20.4165  -46.4891 C.3       11 UNK         0.1400 
     19 N          -0.6636  -21.4490  -45.5408 N.am      11 UNK        -0.5000 
     20 C          -1.4051  -22.4709  -45.0938 C.2       10 UNK         0.5000 
     21 O          -2.5669  -22.6769  -45.4453 O.2       10 UNK        -0.5000 
     22 CA         -0.7597  -23.3813  -44.0339 C.3       10 UNK         0.1400 
     23 CB         -0.0669  -24.5712  -44.7135 C.3       10 UNK        -0.1800 
     24 N           0.2015  -22.7064  -43.1532 N.am      10 UNK        -0.5000 
     25 C          -0.0236  -21.6118  -42.4138 C.2       9 UNK         0.5000 
     26 O          -1.0765  -20.9754  -42.4515 O.2       9 UNK        -0.5000 
     27 CA          1.1123  -21.1123  -41.5002 C.3       9 UNK         0.1400 
     28 CB          0.9649  -21.6830  -40.0779 C.3       9 UNK        -0.1800 
     29 N           2.4761  -21.3075  -42.0119 N.am      9 UNK        -0.5000 
     30 C           3.1633  -22.4445  -42.2095 C.2       8 UNK         0.5000 
     31 O           2.6811  -23.5677  -42.0619 O.2       8 UNK        -0.5000 
     32 CA          4.6311  -22.3165  -42.6731 C.3       8 UNK         0.1400 
     33 CB          4.7355  -22.6013  -44.1798 C.3       8 UNK        -0.1800 
     34 N           5.2216  -21.0038  -42.4037 N.am      8 UNK        -0.5000 
     35 C           5.4705  -20.4938  -41.1886 C.2       7 UNK         0.5000 
     36 O           5.3560  -21.1364  -40.1444 O.2       7 UNK        -0.5000 
     37 CA          5.8829  -19.0057  -41.1220 C.3       7 UNK         0.1400 
     38 CB          7.3885  -18.8791  -40.8422 C.3       7 UNK        -0.1800 
     39 N           5.5567  -18.2178  -42.3197 N.am      7 UNK        -0.5000 
     40 C           4.3303  -18.0325  -42.8283 C.2       6 UNK         0.5000 
     41 O           3.3117  -18.5354  -42.3463 O.2       6 UNK        -0.5000 
     42 CA          4.2506  -17.2094  -44.1287 C.3       6 UNK         0.1400 
     43 CB          4.9987  -17.9213  -45.2704 C.3       6 UNK        -0.1800 
     44 N           2.8629  -17.0146  -44.5445 N.am      6 UNK        -0.5000 
     45 C           2.0401  -16.0775  -44.0624 C.2       5 UNK         0.5000 
     46 O           2.3800  -15.2009  -43.2635 O.2       5 UNK        -0.5000 
     47 CA          0.5789  -16.1699  -44.5390 C.3       5 UNK         0.1400 
     48 CB         -0.2440  -17.0615  -43.5991 C.3       5 UNK        -0.1800 
     49 N          -0.0658  -14.8631  -44.6336 N.am      5 UNK        -0.5000 
     50 C           0.2324  -13.9372  -45.5529 C.2       4 UNK         0.5000 
     51 O           1.1025  -14.0937  -46.4103 O.2       4 UNK        -0.5000 
     52 CA         -0.6035  -12.6444  -45.5338 C.3       4 UNK         0.1400 
     53 CB         -0.7136  -11.9798  -46.9211 C.3       4 UNK        -0.1800 
     54 N          -1.9470  -12.8762  -44.9936 N.am      4 UNK        -0.5000 
     55 C          -2.6355  -11.9811  -44.2710 C.2       3 UNK         0.5000 
     56 O          -2.1775  -10.8844  -43.9455 O.2       3 UNK        -0.5000 
     57 CA         -4.0713  -12.3532  -43.8487 C.3       3 UNK         0.1400 
     58 CB         -5.0224  -11.1435  -43.9055 C.3       3 UNK        -0.1800 
     59 N          -4.6253  -13.4231  -44.6804 N.am      3 UNK        -0.5000 
     60 C          -5.1406  -14.5693  -44.2201 C.2       2 UNK         0.5000 
     61 O          -5.2096  -14.8616  -43.0259 O.2       2 UNK        -0.5000 
     62 CA         -5.6686  -15.5687  -45.2695 C.3       2 UNK         0.1400 
     63 CB         -7.1729  -15.3546  -45.4957 C.3       2 UNK        -0.1800 
     64 N          -4.9894  -15.5499  -46.5714 N.am      2 UNK        -0.5000 
     65 C          -3.6715  -15.6671  -46.7915 C.2       1 UNK         0.5000 
     66 O          -2.8292  -15.7177  -45.8947 O.2       1 UNK        -0.5000 
     67 C          -2.2990  -19.5847  -45.9910 C.2       11 UNK         0.5000 
     68 O          -3.0252  -19.0368  -46.8228 O.2       11 UNK        -0.5000 
     69 N          -2.5316  -19.5464  -44.6675 N.am      12 UNK        -0.5000 
     70 CA         -3.7165  -18.9394  -44.0542 C.3       12 UNK         0.1400 
     71 CB         -3.5135  -18.8166  -42.5368 C.3       12 UNK        -0.1800 
     72 C          -5.0110  -19.7231  -44.3540 C.2       12 UNK         0.5000 
     73 O          -6.0874  -19.1286  -44.3871 O.2       12 UNK        -0.5000 
     74 N          -4.8758  -21.0322  -44.6049 N.am      13 UNK        -0.5000 
     75 CA         -5.9295  -21.9346  -45.0714 C.3       13 UNK         0.1400 
     76 CB         -5.8568  -23.2370  -44.2548 C.3       13 UNK        -0.1800 
     77 C          -5.7865  -22.1925  -46.5872 C.2       13 UNK         0.5000 
     78 O          -6.1715  -23.2572  -47.0728 O.2       13 UNK        -0.5000 
     79 N          -5.1873  -21.2245  -47.2977 N.am      14 UNK        -0.5000 
     80 CA         -4.8733  -21.1904  -48.7290 C.3       14 UNK         0.1400 
     81 CB         -6.1539  -21.2895  -49.5823 C.3       14 UNK        -0.1800 
     82 C          -3.8115  -22.2078  -49.1870 C.2       14 UNK         0.5000 
     83 O          -3.5417  -22.2770  -50.3865 O.2       14 UNK        -0.5000 
     84 N          -3.2246  -22.9724  -48.2510 N.am      15 UNK        -0.5000 
     85 CA         -2.3522  -24.1309  -48.4724 C.3       15 UNK         0.1400 
     86 CB         -0.9563  -23.6791  -48.9416 C.3       15 UNK        -0.1800 
     87 C          -3.0301  -25.1538  -49.4066 C.2       15 UNK         0.5000 
     88 O          -2.4792  -25.5171  -50.4491 O.2       15 UNK        -0.5000 
     89 N          -4.2822  -25.4903  -49.0568 N.am      16 UNK        -0.5000 
     90 CA         -5.3099  -26.1669  -49.8574 C.3       16 UNK         0.1400 
     91 CB         -4.8686  -27.5714  -50.3152 C.3       16 UNK        -0.1800 
     92 C          -5.7870  -25.2896  -51.0312 C.2       16 UNK         0.5000 
     93 O          -6.9586  -24.9140  -51.0764 O.2       16 UNK        -0.5000 
     94 N          -4.8558  -24.9472  -51.9250 N.am      17 UNK        -0.5000 
     95 CA         -5.0166  -23.9821  -53.0093 C.3       17 UNK         0.1400 
     96 CB         -5.7666  -24.6333  -54.1868 C.3       17 UNK        -0.1800 
     97 C          -3.6715  -23.3873  -53.4712 C.2       17 UNK         0.5000 
     98 O          -3.6782  -22.5325  -54.3576 O.2       17 UNK        -0.5000 
     99 N          -2.5372  -23.8285  -52.9025 N.am      18 UNK        -0.5000 
    100 CA        -1.2008  -23.4406  -53.3541 C.3       18 UNK         0.1400 
    101 CB        -0.1516  -24.3702  -52.7269 C.3       18 UNK        -0.1800 
    102 C         -0.8540  -21.9614  -53.1049 C.2       18 UNK         0.5000 
    103 O         -0.1319  -21.3860  -53.9157 O.2       18 UNK        -0.5000 
    104 N         -1.3843  -21.3608  -52.0294 N.am      19 UNK        -0.5000 
    105 CA        -1.1984  -19.9373  -51.7298 C.3       19 UNK         0.1400 
    106 CB        -1.3535  -19.6874  -50.2257 C.3       19 UNK        -0.1800 
    107 C         -2.1761  -19.0584  -52.5255 C.2       19 UNK         0.5000 
    108 O         -1.8442  -17.9174  -52.8397 O.2       19 UNK        -0.5000 
    109 N         -3.3469  -19.6080  -52.8799 N.am      20 UNK        -0.5000 
    110 CA        -4.3069  -18.9621  -53.7758 C.3       20 UNK         0.1400 
    111 CB        -5.6570  -19.6915  -53.7114 C.3       20 UNK        -0.1800 
    112 C         -3.7666  -18.8980  -55.2168 C.2       20 UNK         0.5000 
    113 O         -3.9100  -17.8699  -55.8804 O.2       20 UNK        -0.5000 
    114 N         -3.0880  -19.9727  -55.6460 N.am      21 UNK        -0.5000 
    115 CA        -2.3836  -20.0825  -56.9255 C.3       21 UNK         0.1400 
    116 CB        -1.9024  -21.5294  -57.1128 C.3       21 UNK        -0.1800 
    117 C         -1.2132  -19.0891  -57.0932 C.2       21 UNK         0.5000 
    118 O         -0.8267  -18.8123  -58.2297 O.2       21 UNK        -0.5000 
    119 N         -0.6915  -18.5458  -55.9837 N.am      22 UNK        -0.5000 
    120 CA         0.2702  -17.4299  -55.9755 C.3       22 UNK         0.1400 
    121 C         -0.3429  -16.0609  -56.4035 C.2       22 UNK         0.5000 
    122 N         -1.6602  -15.9037  -56.4865 N.am      22 UNK        -0.7600 
    123 O          0.3973  -15.1195  -56.6755 O.2       22 UNK        -0.5000 
    124 C124        0.9998  -17.2814  -54.6143 C.3       23 UNK        -0.0398 
    125 S125        1.8984  -18.7806  -54.0890 S.3       23 UNK        -0.2404 
    126 C126        3.1348  -18.1021  -52.9351 C.3       23 UNK        -0.0205 
    127 H127       -3.9571  -15.3914  -51.1615 H         1 UNK         0.0600 
    128 H128       -5.4441  -15.1045  -50.2365 H         1 UNK         0.0600 
    129 H129       -5.4702  -16.1267  -51.6694 H         1 UNK         0.0600 
    130 H130       -3.6921  -17.7830  -48.2556 H         1 UNK         0.3000 
    131 H131       -3.6601  -14.8462  -48.7319 H         1 UNK         0.0600 
    132 H132       -1.2731  -16.6866  -48.2102 H         1 UNK         0.0800 
    133 H133       -1.2493  -14.9932  -47.7909 H         1 UNK         0.0800 
    134 H134        0.7492  -14.4873  -48.9957 H         1 UNK         0.0800 
    135 H135        0.8512  -14.2198  -50.7123 H         1 UNK         0.0800 
    136 H136        1.6531  -15.9243  -52.2260 H         1 UNK         0.1150 
    137 H137        3.3524  -19.5060  -50.5941 H         1 UNK         0.1150 
    138 H138        1.2445  -16.7678  -48.0515 H         1 UNK         0.1150 
    139 H139        3.6342  -19.5713  -48.1357 H         1 UNK         0.0800 
    140 H140        2.7516  -18.4889  -47.0978 H         1 UNK         0.0800 
    141 H141       -0.2701  -18.7365  -47.6083 H         1 UNK         0.0800 
    142 H142        0.4680  -18.9663  -46.0375 H         1 UNK         0.0800 
    143 H143       -1.4417  -20.9368  -47.3828 H         1 UNK         0.0600 
    144 H144        0.2832  -21.3724  -45.2001 H         1 UNK         0.3000 
    145 H145       -1.5644  -23.7642  -43.4035 H         1 UNK         0.0600 
    146 H146        0.3185  -25.2765  -43.9769 H         1 UNK         0.0600 
    147 H147       -0.7620  -25.1176  -45.3525 H         1 UNK         0.0600 
    148 H148        0.7681  -24.2474  -45.3364 H         1 UNK         0.0600 
    149 H149        1.0900  -23.1760  -43.0037 H         1 UNK         0.3000 
    150 H150        0.9879  -20.0305  -41.4286 H         1 UNK         0.0600 
    151 H151       -0.0102  -21.4327  -39.6579 H         1 UNK         0.0600 
    152 H152        1.7219  -21.2728  -39.4092 H         1 UNK         0.0600 
    153 H153        1.0559  -22.7694  -40.0623 H         1 UNK         0.0600 
    154 H154        2.9624  -20.4341  -42.1954 H         1 UNK         0.3000 
    155 H155        5.2126  -23.0687  -42.1362 H         1 UNK         0.0600 
    156 H156        4.1802  -21.8692  -44.7680 H         1 UNK         0.0600 
    157 H157        4.3349  -23.5870  -44.4209 H         1 UNK         0.0600 
    158 H158        5.7730  -22.5843  -44.5141 H         1 UNK         0.0600 
    159 H159        5.3658  -20.4041  -43.2018 H         1 UNK         0.3000 
    160 H160        5.3412  -18.5636  -40.2835 H         1 UNK         0.0600 
    161 H161        7.9845  -19.2792  -41.6634 H         1 UNK         0.0600 
    162 H162        7.6669  -19.4238  -39.9389 H         1 UNK         0.0600 
    163 H163        7.6768  -17.8385  -40.6922 H         1 UNK         0.0600 
    164 H164        6.3412  -17.7830  -42.7841 H         1 UNK         0.3000 
    165 H165        4.7166  -16.2378  -43.9517 H         1 UNK         0.0600 
    166 H166        4.9104  -17.3661  -46.2047 H         1 UNK         0.0600 
    167 H167        6.0640  -18.0098  -45.0551 H         1 UNK         0.0600 
    168 H168        4.6147  -18.9281  -45.4407 H         1 UNK         0.0600 
    169 H169        2.4842  -17.7288  -45.1445 H         1 UNK         0.3000 
    170 H170        0.5631  -16.6143  -45.5360 H         1 UNK         0.0600 
    171 H171       -0.2606  -16.6680  -42.5820 H         1 UNK         0.0600 
    172 H172       -1.2739  -17.1362  -43.9460 H         1 UNK         0.0600 
    173 H173        0.1620  -18.0730  -43.5530 H         1 UNK         0.0600 
    174 H174       -0.7708  -14.6551  -43.9429 H         1 UNK         0.3000 
    175 H175       -0.0597  -11.9637  -44.8756 H         1 UNK         0.0600 
    176 H176       -1.2479  -12.6122  -47.6300 H         1 UNK         0.0600 
    177 H177       -1.2421  -11.0284  -46.8604 H         1 UNK         0.0600 
    178 H178        0.2711  -11.7713  -47.3411 H         1 UNK         0.0600 
    179 H179       -2.3604  -13.7813  -45.1940 H         1 UNK         0.3000 
    180 H180       -4.0004  -12.6768  -42.8085 H         1 UNK         0.0600 
    181 H181       -6.0277  -11.4191  -43.5865 H         1 UNK         0.0600 
    182 H182       -5.0913  -10.7348  -44.9143 H         1 UNK         0.0600 
    183 H183       -4.6852  -10.3424  -43.2466 H         1 UNK         0.0600 
    184 H184       -4.6122  -13.2674  -45.6782 H         1 UNK         0.3000 
    185 H185       -5.5394  -16.5651  -44.8514 H         1 UNK         0.0600 
    186 H186       -7.5905  -16.1324  -46.1354 H         1 UNK         0.0600 
    187 H187       -7.7196  -15.3871  -44.5521 H         1 UNK         0.0600 
    188 H188       -7.3765  -14.3891  -45.9604 H         1 UNK         0.0600 
    189 H189       -5.5990  -15.5272  -47.3757 H         1 UNK         0.3000 
    190 H190       -1.9101  -20.0427  -44.0358 H         1 UNK         0.3000 
    191 H191       -3.8182  -17.9351  -44.4651 H         1 UNK         0.0600 
    192 H192       -4.3390  -18.2698  -42.0792 H         1 UNK         0.0600 
    193 H193       -2.5969  -18.2800  -42.2950 H         1 UNK         0.0600 
    194 H194       -3.4640  -19.7948  -42.0573 H         1 UNK         0.0600 
    195 H195       -3.9433  -21.4315  -44.6043 H         1 UNK         0.3000 
    196 H196       -6.9121  -21.4868  -44.9113 H         1 UNK         0.0600 
    197 H197       -4.9177  -23.7656  -44.4229 H         1 UNK         0.0600 
    198 H198       -5.9413  -23.0365  -43.1866 H         1 UNK         0.0600 
    199 H199       -6.6689  -23.9147  -44.5211 H         1 UNK         0.0600 
    200 H200       -4.8734  -20.4096  -46.7874 H         1 UNK         0.3000 
    201 H201       -4.4344  -20.2103  -48.9012 H         1 UNK         0.0600 
    202 H202       -5.9351  -21.1041  -50.6344 H         1 UNK         0.0600 
    203 H203       -6.8914  -20.5489  -49.2735 H         1 UNK         0.0600 
    204 H204       -6.6136  -22.2760  -49.5166 H         1 UNK         0.0600 
    205 H205       -3.4647  -22.8053  -47.2803 H         1 UNK         0.3000 
    206 H206       -2.2316  -24.6285  -47.5093 H         1 UNK         0.0600 
    207 H207       -0.4697  -23.0633  -48.1859 H         1 UNK         0.0600 
    208 H208       -0.3067  -24.5356  -49.1244 H         1 UNK         0.0600 
    209 H209       -1.0051  -23.0965  -49.8594 H         1 UNK         0.0600 
    210 H210       -4.6406  -25.0642  -48.2118 H         1 UNK         0.3000 
    211 H211       -6.1650  -26.2967  -49.1919 H         1 UNK         0.0600 
    212 H212       -5.6878  -28.0868  -50.8176 H         1 UNK         0.0600 
    213 H213       -4.5716  -28.1853  -49.4649 H         1 UNK         0.0600 
    214 H214       -4.0318  -27.5407  -51.0128 H         1 UNK         0.0600 
    215 H215       -3.9192  -25.2935  -51.7545 H         1 UNK         0.3000 
    216 H216       -5.6078  -23.1428  -52.6371 H         1 UNK         0.0600 
    217 H217       -5.2211  -25.4919  -54.5799 H         1 UNK         0.0600 
    218 H218       -5.9038  -23.9266  -55.0062 H         1 UNK         0.0600 
    219 H219       -6.7582  -24.9739  -53.8891 H         1 UNK         0.0600 
    220 H220       -2.5649  -24.4565  -52.1085 H         1 UNK         0.3000 
    221 H221       -1.1666  -23.5961  -54.4347 H         1 UNK         0.0600 
    222 H222       -0.3420  -25.4113  -52.9878 H         1 UNK         0.0600 
    223 H223       -0.1401  -24.2966  -51.6411 H         1 UNK         0.0600 
    224 H224        0.8498  -24.1238  -53.0821 H         1 UNK         0.0600 
    225 H225       -2.0304  -21.8758  -51.4357 H         1 UNK         0.3000 
    226 H226       -0.1818  -19.6477  -52.0048 H         1 UNK         0.0600 
    227 H227       -2.3905  -19.7630  -49.9050 H         1 UNK         0.0600 
    228 H228       -0.7636  -20.3986  -49.6506 H         1 UNK         0.0600 
    229 H229       -1.0091  -18.6848  -49.9695 H         1 UNK         0.0600 
    230 H230       -3.5457  -20.5553  -52.5931 H         1 UNK         0.3000 
    231 H231       -4.4616  -17.9380  -53.4289 H         1 UNK         0.0600 
    232 H232       -5.5794  -20.7280  -54.0383 H         1 UNK         0.0600 
    233 H233       -6.3924  -19.2016  -54.3505 H         1 UNK         0.0600 
    234 H234       -6.0556  -19.6871  -52.6968 H         1 UNK         0.0600 
    235 H235       -3.0766  -20.7999  -55.0565 H         1 UNK         0.3000 
    236 H236       -3.1061  -19.8623  -57.7139 H         1 UNK         0.0600 
    237 H237       -1.1766  -21.8129  -56.3512 H         1 UNK         0.0600 
    238 H238       -2.7339  -22.2327  -57.0621 H         1 UNK         0.0600 
    239 H239       -1.4250  -21.6601  -58.0847 H         1 UNK         0.0600 
    240 H240       -1.0461  -18.8355  -55.0836 H         1 UNK         0.3000 
    241 H241        1.0321  -17.6595  -56.7228 H         1 UNK         0.0600 
    242 H242       -2.0312  -15.0109  -56.7700 H         1 UNK         0.3800 
    243 H243       -2.2986  -16.6593  -56.2643 H         1 UNK         0.3800 
    244 H244        0.2923  -17.0074  -53.8328 H         1 UNK         0.0800 
    245 H245        1.7200  -16.4633  -54.6704 H         1 UNK         0.0800 
    246 H246        3.9342  -18.8360  -52.8235 H         1 UNK         0.0800 
    247 H247        3.6027  -17.2178  -53.3699 H         1 UNK         0.0800 
@<TRIPOS>BOND
     1    1    2 1    
     2    1  127 1    
     3    1  128 1    
     4    1  129 1    
     5    2    3 2    
     6    2    4 am   BACKBONE|DICT|INTERRES
     7    4    5 1    
     8    4  130 1    
     9    5    6 1    
    10    5   65 1    
    11    5  131 1    
    12    6    7 1    
    13    6  132 1    
    14    6  133 1    
    15    7    8 1    
    16    8    9 1    
    17    8  134 1    
    18    8  135 1    
    19    9   10 ar   
    20    9   14 ar   
    21   10   11 ar   
    22   10  136 1    
    23   11   12 ar   
    24   11  126 1    
    25   12   13 ar   
    26   12  137 1    
    27   13   14 ar   
    28   13   15 1    
    29   14  138 1    
    30   15   16 1    
    31   15  139 1    
    32   15  140 1    
    33   16   17 1    
    34   17   18 1    
    35   17  141 1    
    36   17  142 1    
    37   18   19 1    
    38   18   67 1    
    39   18  143 1    
    40   19   20 am   BACKBONE|DICT|INTERRES
    41   19  144 1    
    42   20   21 2    
    43   20   22 1    
    44   22   23 1    
    45   22   24 1    
    46   22  145 1    
    47   23  146 1    
    48   23  147 1    
    49   23  148 1    
    50   24   25 am   BACKBONE|DICT|INTERRES
    51   24  149 1    
    52   25   26 2    
    53   25   27 1    
    54   27   28 1    
    55   27   29 1    
    56   27  150 1    
    57   28  151 1    
    58   28  152 1    
    59   28  153 1    
    60   29   30 am   BACKBONE|DICT|INTERRES
    61   29  154 1    
    62   30   31 2    
    63   30   32 1    
    64   32   33 1    
    65   32   34 1    
    66   32  155 1    
    67   33  156 1    
    68   33  157 1    
    69   33  158 1    
    70   34   35 am   BACKBONE|DICT|INTERRES
    71   34  159 1    
    72   35   36 2    
    73   35   37 1    
    74   37   38 1    
    75   37   39 1    
    76   37  160 1    
    77   38  161 1    
    78   38  162 1    
    79   38  163 1    
    80   39   40 am   BACKBONE|DICT|INTERRES
    81   39  164 1    
    82   40   41 2    
    83   40   42 1    
    84   42   43 1    
    85   42   44 1    
    86   42  165 1    
    87   43  166 1    
    88   43  167 1    
    89   43  168 1    
    90   44   45 am   BACKBONE|DICT|INTERRES
    91   44  169 1    
    92   45   46 2    
    93   45   47 1    
    94   47   48 1    
    95   47   49 1    
    96   47  170 1    
    97   48  171 1    
    98   48  172 1    
    99   48  173 1    
   100   49   50 am   BACKBONE|DICT|INTERRES
   101   49  174 1    
   102   50   51 2    
   103   50   52 1    
   104   52   53 1    
   105   52   54 1    
   106   52  175 1    
   107   53  176 1    
   108   53  177 1    
   109   53  178 1    
   110   54   55 am   BACKBONE|DICT|INTERRES
   111   54  179 1    
   112   55   56 2    
   113   55   57 1    
   114   57   58 1    
   115   57   59 1    
   116   57  180 1    
   117   58  181 1    
   118   58  182 1    
   119   58  183 1    
   120   59   60 am   BACKBONE|DICT|INTERRES
   121   59  184 1    
   122   60   61 2    
   123   60   62 1    
   124   62   63 1    
   125   62   64 1    
   126   62  185 1    
   127   63  186 1    
   128   63  187 1    
   129   63  188 1    
   130   64   65 am   BACKBONE|DICT|INTERRES
   131   64  189 1    
   132   65   66 2    
   133   67   68 2    
   134   67   69 am   BACKBONE|DICT|INTERRES
   135   69   70 1    
   136   69  190 1    
   137   70   71 1    
   138   70   72 1    
   139   70  191 1    
   140   71  192 1    
   141   71  193 1    
   142   71  194 1    
   143   72   73 2    
   144   72   74 am   BACKBONE|DICT|INTERRES
   145   74   75 1    
   146   74  195 1    
   147   75   76 1    
   148   75   77 1    
   149   75  196 1    
   150   76  197 1    
   151   76  198 1    
   152   76  199 1    
   153   77   78 2    
   154   77   79 am   BACKBONE|DICT|INTERRES
   155   79   80 1    
   156   79  200 1    
   157   80   81 1    
   158   80   82 1    
   159   80  201 1    
   160   81  202 1    
   161   81  203 1    
   162   81  204 1    
   163   82   83 2    
   164   82   84 am   BACKBONE|DICT|INTERRES
   165   84   85 1    
   166   84  205 1    
   167   85   86 1    
   168   85   87 1    
   169   85  206 1    
   170   86  207 1    
   171   86  208 1    
   172   86  209 1    
   173   87   88 2    
   174   87   89 am   BACKBONE|DICT|INTERRES
   175   89   90 1    
   176   89  210 1    
   177   90   91 1    
   178   90   92 1    
   179   90  211 1    
   180   91  212 1    
   181   91  213 1    
   182   91  214 1    
   183   92   93 2    
   184   92   94 am   BACKBONE|DICT|INTERRES
   185   94   95 1    
   186   94  215 1    
   187   95   96 1    
   188   95   97 1    
   189   95  216 1    
   190   96  217 1    
   191   96  218 1    
   192   96  219 1    
   193   97   98 2    
   194   97   99 am   BACKBONE|DICT|INTERRES
   195   99  100 1    
   196   99  220 1    
   197  100  101 1    
   198  100  102 1    
   199  100  221 1    
   200  101  222 1    
   201  101  223 1    
   202  101  224 1    
   203  102  103 2    
   204  102  104 am   BACKBONE|DICT|INTERRES
   205  104  105 1    
   206  104  225 1    
   207  105  106 1    
   208  105  107 1    
   209  105  226 1    
   210  106  227 1    
   211  106  228 1    
   212  106  229 1    
   213  107  108 2    
   214  107  109 am   BACKBONE|DICT|INTERRES
   215  109  110 1    
   216  109  230 1    
   217  110  111 1    
   218  110  112 1    
   219  110  231 1    
   220  111  232 1    
   221  111  233 1    
   222  111  234 1    
   223  112  113 2    
   224  112  114 am   BACKBONE|DICT|INTERRES
   225  114  115 1    
   226  114  235 1    
   227  115  116 1    
   228  115  117 1    
   229  115  236 1    
   230  116  237 1    
   231  116  238 1    
   232  116  239 1    
   233  117  118 2    
   234  117  119 am   BACKBONE|DICT|INTERRES
   235  119  120 1    
   236  119  240 1    
   237  120  121 1    
   238  120  124 1    
   239  120  241 1    
   240  121  122 am   BACKBONE|DICT|INTERRES
   241  121  123 2    
   242  122  242 1    
   243  122  243 1    
   244  124  125 1    
   245  124  244 1    
   246  124  245 1    
   247  125  126 1    
   248  126  246 1    
   249  126  247 1    
@<TRIPOS>SUBSTRUCTURE
     1 UNK         1 GROUP             0       ****    0 ROOT    
