@<TRIPOS>MOLECULE
3R540
247   249    1
SMALL
USER_CHARGES


@<TRIPOS>ATOM
      1 CA          3.0536  -14.5365  -49.8786 C.3       0 UNK        -0.1800 
      2 C           2.2321  -13.8850  -48.7749 C.2       0 UNK         0.5000 
      3 O           1.6826  -12.8034  -48.9804 O.2       0 UNK        -0.5000 
      4 N           2.1505  -14.5426  -47.6086 N.am      1 UNK        -0.5000 
      5 CA          1.4113  -14.1089  -46.4100 C.3       1 UNK         0.1400 
      6 C6         -0.1303  -14.0605  -46.5952 C.3       23 UNK        -0.0398 
      7 S7         -0.8097  -15.6994  -47.0323 S.3       23 UNK        -0.2404 
      8 C8         -1.1415  -15.4968  -48.8103 C.3       23 UNK        -0.0205 
      9 C9         -0.8820  -16.7826  -49.5799 C.ar      23 UNK        -0.0193 
     10 C10        -1.9332  -17.4805  -50.1793 C.ar      23 UNK        -0.1150 
     11 C11        -1.6851  -18.6376  -50.9246 C.ar      23 UNK        -0.0193 
     12 C12        -0.3712  -19.0980  -51.0660 C.ar      23 UNK        -0.1150 
     13 C13         0.6898  -18.4035  -50.4748 C.ar      23 UNK        -0.0193 
     14 C14         0.4242  -17.2535  -49.7285 C.ar      23 UNK        -0.1150 
     15 C15         2.1306  -18.8478  -50.6883 C.3       23 UNK        -0.0205 
     16 S16         2.5184  -20.4456  -49.9110 S.3       23 UNK        -0.2404 
     17 C17         2.3487  -20.0866  -48.1262 C.3       23 UNK        -0.0398 
     18 CA          1.8009  -21.3187  -47.3643 C.3       11 UNK         0.1400 
     19 N           2.0786  -21.2690  -45.9285 N.am      11 UNK        -0.5000 
     20 C           2.3552  -22.3508  -45.1853 C.2       10 UNK         0.5000 
     21 O           2.2851  -23.5061  -45.6048 O.2       10 UNK        -0.5000 
     22 CA          2.8118  -22.1067  -43.7373 C.3       10 UNK         0.1400 
     23 CB          4.1300  -21.3158  -43.6812 C.3       10 UNK        -0.1800 
     24 N           1.7842  -21.4065  -42.9774 N.am      10 UNK        -0.5000 
     25 C           0.7800  -22.0104  -42.3286 C.2       9 UNK         0.5000 
     26 O           0.6664  -23.2325  -42.2313 O.2       9 UNK        -0.5000 
     27 CA         -0.2824  -21.1034  -41.6749 C.3       9 UNK         0.1400 
     28 CB         -0.0076  -20.9589  -40.1705 C.3       9 UNK        -0.1800 
     29 N          -0.3715  -19.7718  -42.2793 N.am      9 UNK        -0.5000 
     30 C          -0.7566  -19.5347  -43.5408 C.2       8 UNK         0.5000 
     31 O          -1.1271  -20.4181  -44.3111 O.2       8 UNK        -0.5000 
     32 CA         -0.6386  -18.0854  -44.0485 C.3       8 UNK         0.1400 
     33 CB         -1.8652  -17.2600  -43.6387 C.3       8 UNK        -0.1800 
     34 N           0.5839  -17.4304  -43.5783 N.am      8 UNK        -0.5000 
     35 C           1.8217  -17.8140  -43.9209 C.2       7 UNK         0.5000 
     36 O           2.0505  -18.7101  -44.7337 O.2       7 UNK        -0.5000 
     37 CA          3.0005  -17.1324  -43.2059 C.3       7 UNK         0.1400 
     38 CB          3.4907  -15.8949  -43.9678 C.3       7 UNK        -0.1800 
     39 N           2.6641  -16.7614  -41.8324 N.am      7 UNK        -0.5000 
     40 C           2.7543  -17.5963  -40.7890 C.2       6 UNK         0.5000 
     41 O           3.1694  -18.7524  -40.8711 O.2       6 UNK        -0.5000 
     42 CA          2.2774  -17.0551  -39.4285 C.3       6 UNK         0.1400 
     43 CB          3.4149  -16.3121  -38.7127 C.3       6 UNK        -0.1800 
     44 N           1.1147  -16.1718  -39.5394 N.am      6 UNK        -0.5000 
     45 C          -0.1057  -16.5816  -39.9137 C.2       5 UNK         0.5000 
     46 O          -0.3697  -17.7434  -40.2177 O.2       5 UNK        -0.5000 
     47 CA         -1.2124  -15.5150  -40.0047 C.3       5 UNK         0.1400 
     48 CB         -1.9187  -15.3611  -38.6498 C.3       5 UNK        -0.1800 
     49 N          -0.7506  -14.2020  -40.4571 N.am      5 UNK        -0.5000 
     50 C          -0.0926  -13.9476  -41.5960 C.2       4 UNK         0.5000 
     51 O           0.2558  -14.8187  -42.3970 O.2       4 UNK        -0.5000 
     52 CA          0.2687  -12.4785  -41.8879 C.3       4 UNK         0.1400 
     53 CB         -0.2035  -11.4708  -40.8149 C.3       4 UNK        -0.1800 
     54 N           1.7027  -12.3325  -42.1366 N.am      4 UNK        -0.5000 
     55 C           2.7097  -12.6397  -41.3036 C.2       3 UNK         0.5000 
     56 O           2.5388  -13.0804  -40.1656 O.2       3 UNK        -0.5000 
     57 CA          4.1471  -12.4527  -41.8361 C.3       3 UNK         0.1400 
     58 CB          5.0794  -13.5810  -41.3599 C.3       3 UNK        -0.1800 
     59 N           4.1876  -12.3799  -43.3003 N.am      3 UNK        -0.5000 
     60 C           4.1354  -11.2498  -44.0177 C.2       2 UNK         0.5000 
     61 O           4.1147  -10.1230  -43.5225 O.2       2 UNK        -0.5000 
     62 CA          4.0496  -11.4092  -45.5474 C.3       2 UNK         0.1400 
     63 CB          5.4553  -11.4396  -46.1659 C.3       2 UNK        -0.1800 
     64 N           3.3117  -12.6015  -45.9780 N.am      2 UNK        -0.5000 
     65 C           1.9992  -12.8159  -45.7905 C.2       1 UNK         0.5000 
     66 O           1.2793  -12.0509  -45.1478 O.2       1 UNK        -0.5000 
     67 C           0.3125  -21.5759  -47.6534 C.2       11 UNK         0.5000 
     68 O          -0.0124  -22.6248  -48.2060 O.2       11 UNK        -0.5000 
     69 N          -0.5647  -20.6280  -47.2942 N.am      12 UNK        -0.5000 
     70 CA         -1.9862  -20.6235  -47.6664 C.3       12 UNK         0.1400 
     71 CB         -2.6440  -19.3231  -47.1808 C.3       12 UNK        -0.1800 
     72 C          -2.7788  -21.8469  -47.1683 C.2       12 UNK         0.5000 
     73 O          -3.6766  -22.3154  -47.8671 O.2       12 UNK        -0.5000 
     74 N          -2.4165  -22.3540  -45.9839 N.am      13 UNK        -0.5000 
     75 CA         -2.9775  -23.5660  -45.3892 C.3       13 UNK         0.1400 
     76 CB         -2.5380  -23.6500  -43.9211 C.3       13 UNK        -0.1800 
     77 C          -2.5890  -24.8528  -46.1449 C.2       13 UNK         0.5000 
     78 O          -3.3799  -25.7965  -46.1686 O.2       13 UNK        -0.5000 
     79 N          -1.3913  -24.8731  -46.7467 N.am      14 UNK        -0.5000 
     80 CA         -0.9067  -25.9732  -47.5807 C.3       14 UNK         0.1400 
     81 CB          0.6294  -26.0019  -47.5577 C.3       14 UNK        -0.1800 
     82 C          -1.4367  -25.8436  -49.0179 C.2       14 UNK         0.5000 
     83 O          -1.9196  -26.8233  -49.5871 O.2       14 UNK        -0.5000 
     84 N          -1.3885  -24.6214  -49.5622 N.am      15 UNK        -0.5000 
     85 CA         -1.9107  -24.2196  -50.8681 C.3       15 UNK         0.1400 
     86 CB         -1.1705  -22.9479  -51.3135 C.3       15 UNK        -0.1800 
     87 C          -3.4447  -24.0400  -50.8452 C.2       15 UNK         0.5000 
     88 O          -3.9647  -23.0047  -51.2695 O.2       15 UNK        -0.5000 
     89 N          -4.1423  -25.0760  -50.3593 N.am      16 UNK        -0.5000 
     90 CA         -5.5835  -25.1357  -50.0969 C.3       16 UNK         0.1400 
     91 CB         -5.8891  -26.4516  -49.3648 C.3       16 UNK        -0.1800 
     92 C          -6.4860  -24.9753  -51.3377 C.2       16 UNK         0.5000 
     93 O          -7.6950  -24.7978  -51.1842 O.2       16 UNK        -0.5000 
     94 N          -5.8884  -25.0085  -52.5373 N.am      17 UNK        -0.5000 
     95 CA         -6.5034  -24.6304  -53.8101 C.3       17 UNK         0.1400 
     96 CB         -5.4928  -24.8863  -54.9368 C.3       17 UNK        -0.1800 
     97 C          -6.9911  -23.1661  -53.8346 C.2       17 UNK         0.5000 
     98 O          -7.9851  -22.8851  -54.5046 O.2       17 UNK        -0.5000 
     99 N          -6.3105  -22.2904  -53.0725 N.am      18 UNK        -0.5000 
    100 CA        -6.6801  -20.9185  -52.7078 C.3       18 UNK         0.1400 
    101 CB        -7.6925  -20.9570  -51.5443 C.3       18 UNK        -0.1800 
    102 C         -7.1534  -20.0566  -53.8958 C.2       18 UNK         0.5000 
    103 O         -6.3181  -19.5198  -54.6219 O.2       18 UNK        -0.5000 
    104 N         -8.4770  -19.9616  -54.0898 N.am      19 UNK        -0.5000 
    105 CA        -9.1377  -19.2366  -55.1779 C.3       19 UNK         0.1400 
    106 CB       -10.6593  -19.3467  -55.0001 C.3       19 UNK        -0.1800 
    107 C         -8.7252  -19.6981  -56.5903 C.2       19 UNK         0.5000 
    108 O         -8.7261  -18.8820  -57.5130 O.2       19 UNK        -0.5000 
    109 N         -8.3225  -20.9687  -56.7354 N.am      20 UNK        -0.5000 
    110 CA        -7.7365  -21.5332  -57.9531 C.3       20 UNK         0.1400 
    111 CB        -8.0110  -23.0466  -57.9868 C.3       20 UNK        -0.1800 
    112 C         -6.2343  -21.1872  -58.0672 C.2       20 UNK         0.5000 
    113 O         -5.3951  -22.0826  -58.1927 O.2       20 UNK        -0.5000 
    114 N         -5.9275  -19.8829  -57.9896 N.am      21 UNK        -0.5000 
    115 CA        -4.6105  -19.2435  -58.1170 C.3       21 UNK         0.1400 
    116 CB        -4.1659  -19.2672  -59.5939 C.3       21 UNK        -0.1800 
    117 C         -3.5267  -19.8046  -57.1681 C.2       21 UNK         0.5000 
    118 O         -2.3436  -19.7901  -57.5141 O.2       21 UNK        -0.5000 
    119 N         -3.9508  -20.3085  -56.0015 N.am      22 UNK        -0.5000 
    120 CA        -3.1326  -21.0247  -55.0079 C.3       22 UNK         0.1400 
    121 C         -2.4610  -22.3278  -55.5467 C.2       22 UNK         0.5000 
    122 N         -2.9666  -22.9380  -56.6139 N.am      22 UNK        -0.7600 
    123 O         -1.4898  -22.8170  -54.9779 O.2       22 UNK        -0.5000 
    124 C124       -2.1552  -20.0813  -54.2511 C.3       23 UNK        -0.0398 
    125 S125       -3.0642  -18.8053  -53.3091 S.3       23 UNK        -0.2404 
    126 C126       -2.8427  -19.3647  -51.5911 C.3       23 UNK        -0.0205 
    127 H127        2.4153  -14.7723  -50.7302 H         1 UNK         0.0600 
    128 H128        3.5274  -15.4592  -49.5428 H         1 UNK         0.0600 
    129 H129        3.8361  -13.8565  -50.2153 H         1 UNK         0.0600 
    130 H130        2.6257  -15.4290  -47.5181 H         1 UNK         0.3000 
    131 H131        1.5883  -14.8834  -45.6676 H         1 UNK         0.0600 
    132 H132       -0.6146  -13.7625  -45.6636 H         1 UNK         0.0800 
    133 H133       -0.4180  -13.3133  -47.3356 H         1 UNK         0.0800 
    134 H134       -2.1720  -15.1636  -48.9408 H         1 UNK         0.0800 
    135 H135       -0.5132  -14.7120  -49.2309 H         1 UNK         0.0800 
    136 H136       -2.9456  -17.1156  -50.0778 H         1 UNK         0.1150 
    137 H137       -0.1690  -19.9840  -51.6506 H         1 UNK         0.1150 
    138 H138        1.2375  -16.7103  -49.2725 H         1 UNK         0.1150 
    139 H139        2.3148  -18.9297  -51.7603 H         1 UNK         0.0800 
    140 H140        2.8303  -18.0966  -50.3186 H         1 UNK         0.0800 
    141 H141        1.7307  -19.2034  -47.9599 H         1 UNK         0.0800 
    142 H142        3.3413  -19.8311  -47.7532 H         1 UNK         0.0800 
    143 H143        2.3415  -22.1819  -47.7612 H         1 UNK         0.0600 
    144 H144        2.1163  -20.3461  -45.4993 H         1 UNK         0.3000 
    145 H145        3.0006  -23.0799  -43.2787 H         1 UNK         0.0600 
    146 H146        4.4679  -21.1917  -42.6521 H         1 UNK         0.0600 
    147 H147        4.0384  -20.3230  -44.1202 H         1 UNK         0.0600 
    148 H148        4.9194  -21.8396  -44.2216 H         1 UNK         0.0600 
    149 H149        1.7894  -20.3981  -43.0249 H         1 UNK         0.3000 
    150 H150       -1.2501  -21.5931  -41.7991 H         1 UNK         0.0600 
    151 H151        0.0676  -21.9345  -39.6886 H         1 UNK         0.0600 
    152 H152       -0.8110  -20.4146  -39.6741 H         1 UNK         0.0600 
    153 H153        0.9252  -20.4254  -39.9831 H         1 UNK         0.0600 
    154 H154       -0.1446  -18.9867  -41.6752 H         1 UNK         0.3000 
    155 H155       -0.5998  -18.1159  -45.1389 H         1 UNK         0.0600 
    156 H156       -2.7750  -17.6749  -44.0736 H         1 UNK         0.0600 
    157 H157       -1.7811  -16.2283  -43.9813 H         1 UNK         0.0600 
    158 H158       -1.9961  -17.2480  -42.5578 H         1 UNK         0.0600 
    159 H159        0.4673  -16.6328  -42.9599 H         1 UNK         0.3000 
    160 H160        3.8217  -17.8525  -43.1958 H         1 UNK         0.0600 
    161 H161        2.8356  -15.0408  -43.8007 H         1 UNK         0.0600 
    162 H162        3.5470  -16.0855  -45.0402 H         1 UNK         0.0600 
    163 H163        4.4939  -15.6172  -43.6470 H         1 UNK         0.0600 
    164 H164        2.2421  -15.8539  -41.6897 H         1 UNK         0.3000 
    165 H165        1.9927  -17.9124  -38.8146 H         1 UNK         0.0600 
    166 H166        3.1110  -15.9919  -37.7160 H         1 UNK         0.0600 
    167 H167        4.2885  -16.9546  -38.5953 H         1 UNK         0.0600 
    168 H168        3.7301  -15.4277  -39.2668 H         1 UNK         0.0600 
    169 H169        1.2629  -15.1903  -39.3456 H         1 UNK         0.3000 
    170 H170       -1.9492  -15.8647  -40.7285 H         1 UNK         0.0600 
    171 H171       -1.2445  -14.9707  -37.8864 H         1 UNK         0.0600 
    172 H172       -2.7715  -14.6859  -38.7228 H         1 UNK         0.0600 
    173 H173       -2.2963  -16.3210  -38.2947 H         1 UNK         0.0600 
    174 H174       -0.9647  -13.4227  -39.8522 H         1 UNK         0.3000 
    175 H175       -0.2348  -12.2255  -42.8218 H         1 UNK         0.0600 
    176 H176        0.2434  -11.6634  -39.8389 H         1 UNK         0.0600 
    177 H177        0.0606  -10.4522  -41.0996 H         1 UNK         0.0600 
    178 H178       -1.2878  -11.4954  -40.6988 H         1 UNK         0.0600 
    179 H179        1.9354  -12.0228  -43.0718 H         1 UNK         0.3000 
    180 H180        4.5220  -11.5178  -41.4148 H         1 UNK         0.0600 
    181 H181        6.0706  -13.4926  -41.8049 H         1 UNK         0.0600 
    182 H182        4.6852  -14.5665  -41.6038 H         1 UNK         0.0600 
    183 H183        5.2095  -13.5452  -40.2776 H         1 UNK         0.0600 
    184 H184        4.1993  -13.2574  -43.7974 H         1 UNK         0.3000 
    185 H185        3.5247  -10.5351  -45.9385 H         1 UNK         0.0600 
    186 H186        5.4068  -11.4621  -47.2548 H         1 UNK         0.0600 
    187 H187        6.0248  -10.5523  -45.8859 H         1 UNK         0.0600 
    188 H188        6.0224  -12.3111  -45.8361 H         1 UNK         0.0600 
    189 H189        3.8270  -13.2734  -46.5276 H         1 UNK         0.3000 
    190 H190       -0.2331  -19.8259  -46.7812 H         1 UNK         0.3000 
    191 H191       -2.0277  -20.6330  -48.7570 H         1 UNK         0.0600 
    192 H192       -2.0743  -18.4487  -47.4903 H         1 UNK         0.0600 
    193 H193       -2.7361  -19.2945  -46.0957 H         1 UNK         0.0600 
    194 H194       -3.6476  -19.2205  -47.5948 H         1 UNK         0.0600 
    195 H195       -1.7291  -21.8406  -45.4376 H         1 UNK         0.3000 
    196 H196       -4.0659  -23.4822  -45.4152 H         1 UNK         0.0600 
    197 H197       -2.8589  -22.7708  -43.3623 H         1 UNK         0.0600 
    198 H198       -1.4540  -23.7265  -43.8353 H         1 UNK         0.0600 
    199 H199       -2.9697  -24.5239  -43.4316 H         1 UNK         0.0600 
    200 H200       -0.8264  -24.0335  -46.7364 H         1 UNK         0.3000 
    201 H201       -1.2643  -26.9209  -47.1722 H         1 UNK         0.0600 
    202 H202        1.0045  -26.1318  -46.5424 H         1 UNK         0.0600 
    203 H203        1.0616  -25.0829  -47.9549 H         1 UNK         0.0600 
    204 H204        1.0125  -26.8297  -48.1555 H         1 UNK         0.0600 
    205 H205       -0.9618  -23.8748  -49.0150 H         1 UNK         0.3000 
    206 H206       -1.6888  -25.0059  -51.5922 H         1 UNK         0.0600 
    207 H207       -1.3324  -22.1268  -50.6155 H         1 UNK         0.0600 
    208 H208       -0.0959  -23.1185  -51.3806 H         1 UNK         0.0600 
    209 H209       -1.5093  -22.6234  -52.2961 H         1 UNK         0.0600 
    210 H210       -3.6034  -25.8824  -50.0601 H         1 UNK         0.3000 
    211 H211       -5.8218  -24.3081  -49.4257 H         1 UNK         0.0600 
    212 H212       -5.6413  -27.3183  -49.9787 H         1 UNK         0.0600 
    213 H213       -6.9463  -26.5224  -49.1057 H         1 UNK         0.0600 
    214 H214       -5.3234  -26.5254  -48.4353 H         1 UNK         0.0600 
    215 H215       -4.8938  -25.1765  -52.5517 H         1 UNK         0.3000 
    216 H216       -7.3729  -25.2711  -53.9696 H         1 UNK         0.0600 
    217 H217       -5.8858  -24.5772  -55.9050 H         1 UNK         0.0600 
    218 H218       -5.2460  -25.9454  -55.0111 H         1 UNK         0.0600 
    219 H219       -4.5657  -24.3389  -54.7693 H         1 UNK         0.0600 
    220 H220       -5.5007  -22.6460  -52.5735 H         1 UNK         0.3000 
    221 H221       -5.7705  -20.4461  -52.3339 H         1 UNK         0.0600 
    222 H222       -8.5890  -21.5244  -51.7969 H         1 UNK         0.0600 
    223 H223       -7.2497  -21.4243  -50.6643 H         1 UNK         0.0600 
    224 H224       -8.0008  -19.9519  -51.2535 H         1 UNK         0.0600 
    225 H225       -9.0813  -20.4781  -53.4677 H         1 UNK         0.3000 
    226 H226       -8.8570  -18.1856  -55.0860 H         1 UNK         0.0600 
    227 H227      -10.9765  -18.9339  -54.0423 H         1 UNK         0.0600 
    228 H228      -11.1854  -18.7949  -55.7803 H         1 UNK         0.0600 
    229 H229      -10.9947  -20.3836  -55.0479 H         1 UNK         0.0600 
    230 H230       -8.3074  -21.5673  -55.9135 H         1 UNK         0.3000 
    231 H231       -8.2301  -21.0951  -58.8230 H         1 UNK         0.0600 
    232 H232       -7.6145  -23.4979  -58.8970 H         1 UNK         0.0600 
    233 H233       -9.0812  -23.2520  -57.9626 H         1 UNK         0.0600 
    234 H234       -7.5556  -23.5573  -57.1398 H         1 UNK         0.0600 
    235 H235       -6.7049  -19.2475  -57.8470 H         1 UNK         0.3000 
    236 H236       -4.7496  -18.2009  -57.8283 H         1 UNK         0.0600 
    237 H237       -3.9637  -20.2831  -59.9352 H         1 UNK         0.0600 
    238 H238       -4.9309  -18.8414  -60.2431 H         1 UNK         0.0600 
    239 H239       -3.2570  -18.6830  -59.7427 H         1 UNK         0.0600 
    240 H240       -4.9281  -20.1874  -55.7519 H         1 UNK         0.3000 
    241 H241       -3.8430  -21.3955  -54.2690 H         1 UNK         0.0600 
    242 H242       -3.7696  -22.5581  -57.1056 H         1 UNK         0.3800 
    243 H243       -2.5297  -23.7799  -56.9522 H         1 UNK         0.3800 
    244 H244       -1.4789  -19.5871  -54.9492 H         1 UNK         0.0800 
    245 H245       -1.5166  -20.6393  -53.5673 H         1 UNK         0.0800 
    246 H246       -3.7652  -19.1702  -51.0421 H         1 UNK         0.0800 
    247 H247       -2.7005  -20.4443  -51.5519 H         1 UNK         0.0800 
@<TRIPOS>BOND
     1    1    2 1    
     2    1  127 1    
     3    1  128 1    
     4    1  129 1    
     5    2    3 2    
     6    2    4 am   BACKBONE|DICT|INTERRES
     7    4    5 1    
     8    4  130 1    
     9    5    6 1    
    10    5   65 1    
    11    5  131 1    
    12    6    7 1    
    13    6  132 1    
    14    6  133 1    
    15    7    8 1    
    16    8    9 1    
    17    8  134 1    
    18    8  135 1    
    19    9   10 ar   
    20    9   14 ar   
    21   10   11 ar   
    22   10  136 1    
    23   11   12 ar   
    24   11  126 1    
    25   12   13 ar   
    26   12  137 1    
    27   13   14 ar   
    28   13   15 1    
    29   14  138 1    
    30   15   16 1    
    31   15  139 1    
    32   15  140 1    
    33   16   17 1    
    34   17   18 1    
    35   17  141 1    
    36   17  142 1    
    37   18   19 1    
    38   18   67 1    
    39   18  143 1    
    40   19   20 am   BACKBONE|DICT|INTERRES
    41   19  144 1    
    42   20   21 2    
    43   20   22 1    
    44   22   23 1    
    45   22   24 1    
    46   22  145 1    
    47   23  146 1    
    48   23  147 1    
    49   23  148 1    
    50   24   25 am   BACKBONE|DICT|INTERRES
    51   24  149 1    
    52   25   26 2    
    53   25   27 1    
    54   27   28 1    
    55   27   29 1    
    56   27  150 1    
    57   28  151 1    
    58   28  152 1    
    59   28  153 1    
    60   29   30 am   BACKBONE|DICT|INTERRES
    61   29  154 1    
    62   30   31 2    
    63   30   32 1    
    64   32   33 1    
    65   32   34 1    
    66   32  155 1    
    67   33  156 1    
    68   33  157 1    
    69   33  158 1    
    70   34   35 am   BACKBONE|DICT|INTERRES
    71   34  159 1    
    72   35   36 2    
    73   35   37 1    
    74   37   38 1    
    75   37   39 1    
    76   37  160 1    
    77   38  161 1    
    78   38  162 1    
    79   38  163 1    
    80   39   40 am   BACKBONE|DICT|INTERRES
    81   39  164 1    
    82   40   41 2    
    83   40   42 1    
    84   42   43 1    
    85   42   44 1    
    86   42  165 1    
    87   43  166 1    
    88   43  167 1    
    89   43  168 1    
    90   44   45 am   BACKBONE|DICT|INTERRES
    91   44  169 1    
    92   45   46 2    
    93   45   47 1    
    94   47   48 1    
    95   47   49 1    
    96   47  170 1    
    97   48  171 1    
    98   48  172 1    
    99   48  173 1    
   100   49   50 am   BACKBONE|DICT|INTERRES
   101   49  174 1    
   102   50   51 2    
   103   50   52 1    
   104   52   53 1    
   105   52   54 1    
   106   52  175 1    
   107   53  176 1    
   108   53  177 1    
   109   53  178 1    
   110   54   55 am   BACKBONE|DICT|INTERRES
   111   54  179 1    
   112   55   56 2    
   113   55   57 1    
   114   57   58 1    
   115   57   59 1    
   116   57  180 1    
   117   58  181 1    
   118   58  182 1    
   119   58  183 1    
   120   59   60 am   BACKBONE|DICT|INTERRES
   121   59  184 1    
   122   60   61 2    
   123   60   62 1    
   124   62   63 1    
   125   62   64 1    
   126   62  185 1    
   127   63  186 1    
   128   63  187 1    
   129   63  188 1    
   130   64   65 am   BACKBONE|DICT|INTERRES
   131   64  189 1    
   132   65   66 2    
   133   67   68 2    
   134   67   69 am   BACKBONE|DICT|INTERRES
   135   69   70 1    
   136   69  190 1    
   137   70   71 1    
   138   70   72 1    
   139   70  191 1    
   140   71  192 1    
   141   71  193 1    
   142   71  194 1    
   143   72   73 2    
   144   72   74 am   BACKBONE|DICT|INTERRES
   145   74   75 1    
   146   74  195 1    
   147   75   76 1    
   148   75   77 1    
   149   75  196 1    
   150   76  197 1    
   151   76  198 1    
   152   76  199 1    
   153   77   78 2    
   154   77   79 am   BACKBONE|DICT|INTERRES
   155   79   80 1    
   156   79  200 1    
   157   80   81 1    
   158   80   82 1    
   159   80  201 1    
   160   81  202 1    
   161   81  203 1    
   162   81  204 1    
   163   82   83 2    
   164   82   84 am   BACKBONE|DICT|INTERRES
   165   84   85 1    
   166   84  205 1    
   167   85   86 1    
   168   85   87 1    
   169   85  206 1    
   170   86  207 1    
   171   86  208 1    
   172   86  209 1    
   173   87   88 2    
   174   87   89 am   BACKBONE|DICT|INTERRES
   175   89   90 1    
   176   89  210 1    
   177   90   91 1    
   178   90   92 1    
   179   90  211 1    
   180   91  212 1    
   181   91  213 1    
   182   91  214 1    
   183   92   93 2    
   184   92   94 am   BACKBONE|DICT|INTERRES
   185   94   95 1    
   186   94  215 1    
   187   95   96 1    
   188   95   97 1    
   189   95  216 1    
   190   96  217 1    
   191   96  218 1    
   192   96  219 1    
   193   97   98 2    
   194   97   99 am   BACKBONE|DICT|INTERRES
   195   99  100 1    
   196   99  220 1    
   197  100  101 1    
   198  100  102 1    
   199  100  221 1    
   200  101  222 1    
   201  101  223 1    
   202  101  224 1    
   203  102  103 2    
   204  102  104 am   BACKBONE|DICT|INTERRES
   205  104  105 1    
   206  104  225 1    
   207  105  106 1    
   208  105  107 1    
   209  105  226 1    
   210  106  227 1    
   211  106  228 1    
   212  106  229 1    
   213  107  108 2    
   214  107  109 am   BACKBONE|DICT|INTERRES
   215  109  110 1    
   216  109  230 1    
   217  110  111 1    
   218  110  112 1    
   219  110  231 1    
   220  111  232 1    
   221  111  233 1    
   222  111  234 1    
   223  112  113 2    
   224  112  114 am   BACKBONE|DICT|INTERRES
   225  114  115 1    
   226  114  235 1    
   227  115  116 1    
   228  115  117 1    
   229  115  236 1    
   230  116  237 1    
   231  116  238 1    
   232  116  239 1    
   233  117  118 2    
   234  117  119 am   BACKBONE|DICT|INTERRES
   235  119  120 1    
   236  119  240 1    
   237  120  121 1    
   238  120  124 1    
   239  120  241 1    
   240  121  122 am   BACKBONE|DICT|INTERRES
   241  121  123 2    
   242  122  242 1    
   243  122  243 1    
   244  124  125 1    
   245  124  244 1    
   246  124  245 1    
   247  125  126 1    
   248  126  246 1    
   249  126  247 1    
@<TRIPOS>SUBSTRUCTURE
     1 UNK         1 GROUP             0       ****    0 ROOT    
