@<TRIPOS>MOLECULE
3R540
247   249    1
SMALL
USER_CHARGES


@<TRIPOS>ATOM
      1 CA         -1.3563  -13.7541  -50.8928 C.3       0 UNK        -0.1800 
      2 C          -0.0206  -13.5357  -50.1996 C.2       0 UNK         0.5000 
      3 O           0.3708  -12.3922  -49.9669 O.2       0 UNK        -0.5000 
      4 N           0.6822  -14.6274  -49.8690 N.am      1 UNK        -0.5000 
      5 CA          2.0083  -14.6043  -49.2375 C.3       1 UNK         0.1400 
      6 C6          2.8181  -15.8974  -49.5430 C.3       23 UNK        -0.0398 
      7 S7          2.3877  -17.3829  -48.5600 S.3       23 UNK        -0.2404 
      8 C8          1.5608  -18.4616  -49.7762 C.3       23 UNK        -0.0205 
      9 C9          0.1793  -17.9649  -50.1822 C.ar      23 UNK        -0.0193 
     10 C10        -0.1977  -17.9576  -51.5292 C.ar      23 UNK        -0.1150 
     11 C11        -1.4698  -17.5182  -51.9069 C.ar      23 UNK        -0.0193 
     12 C12        -2.3675  -17.0884  -50.9269 C.ar      23 UNK        -0.1150 
     13 C13        -2.0027  -17.0845  -49.5792 C.ar      23 UNK        -0.0193 
     14 C14        -0.7313  -17.5308  -49.2137 C.ar      23 UNK        -0.1150 
     15 C15        -2.9683  -16.5584  -48.5299 C.3       23 UNK        -0.0205 
     16 S16        -3.8869  -17.8954  -47.7117 S.3       23 UNK        -0.2404 
     17 C17        -2.6571  -18.5462  -46.5280 C.3       23 UNK        -0.0398 
     18 CA         -2.1463  -19.9573  -46.9107 C.3       11 UNK         0.1400 
     19 N          -0.9137  -20.3273  -46.2108 N.am      11 UNK        -0.5000 
     20 C          -0.2121  -21.4476  -46.4384 C.2       10 UNK         0.5000 
     21 O          -0.4700  -22.2376  -47.3448 O.2       10 UNK        -0.5000 
     22 CA          0.9418  -21.7756  -45.4704 C.3       10 UNK         0.1400 
     23 CB          2.2685  -21.2120  -45.9988 C.3       10 UNK        -0.1800 
     24 N           0.6998  -21.3102  -44.1006 N.am      10 UNK        -0.5000 
     25 C          -0.2851  -21.7659  -43.3102 C.2       9 UNK         0.5000 
     26 O          -1.0576  -22.6654  -43.6384 O.2       9 UNK        -0.5000 
     27 CA         -0.4925  -21.0543  -41.9595 C.3       9 UNK         0.1400 
     28 CB          0.4777  -21.5807  -40.8922 C.3       9 UNK        -0.1800 
     29 N          -0.3697  -19.6012  -42.0811 N.am      9 UNK        -0.5000 
     30 C          -1.2099  -18.8387  -42.7955 C.2       8 UNK         0.5000 
     31 O          -2.2306  -19.2745  -43.3286 O.2       8 UNK        -0.5000 
     32 CA         -0.8079  -17.3673  -43.0133 C.3       8 UNK         0.1400 
     33 CB         -1.2644  -16.4833  -41.8447 C.3       8 UNK        -0.1800 
     34 N           0.6344  -17.2167  -43.2185 N.am      8 UNK        -0.5000 
     35 C           1.2983  -17.6827  -44.2852 C.2       7 UNK         0.5000 
     36 O           0.7336  -18.1696  -45.2617 O.2       7 UNK        -0.5000 
     37 CA          2.8384  -17.6541  -44.2342 C.3       7 UNK         0.1400 
     38 CB          3.4144  -16.3756  -44.8476 C.3       7 UNK        -0.1800 
     39 N           3.3460  -17.7982  -42.8739 N.am      7 UNK        -0.5000 
     40 C           3.4189  -18.9633  -42.2204 C.2       6 UNK         0.5000 
     41 O           3.0940  -20.0418  -42.7162 O.2       6 UNK        -0.5000 
     42 CA          3.8982  -18.8998  -40.7580 C.3       6 UNK         0.1400 
     43 CB          5.4309  -18.9665  -40.6884 C.3       6 UNK        -0.1800 
     44 N           3.4334  -17.6934  -40.0675 N.am      6 UNK        -0.5000 
     45 C           2.1501  -17.4497  -39.7680 C.2       5 UNK         0.5000 
     46 O           1.2357  -18.2363  -40.0126 O.2       5 UNK        -0.5000 
     47 CA          1.8272  -16.0820  -39.1353 C.3       5 UNK         0.1400 
     48 CB          1.9849  -16.1464  -37.6090 C.3       5 UNK        -0.1800 
     49 N           2.6286  -14.9696  -39.6599 N.am      5 UNK        -0.5000 
     50 C           2.6552  -14.5764  -40.9402 C.2       4 UNK         0.5000 
     51 O           2.0613  -15.1632  -41.8481 O.2       4 UNK        -0.5000 
     52 CA          3.5111  -13.3448  -41.2668 C.3       4 UNK         0.1400 
     53 CB          5.0084  -13.6977  -41.2558 C.3       4 UNK        -0.1800 
     54 N           3.1425  -12.8524  -42.5904 N.am      4 UNK        -0.5000 
     55 C           3.1532  -11.5765  -42.9928 C.2       3 UNK         0.5000 
     56 O           3.4991  -10.6408  -42.2701 O.2       3 UNK        -0.5000 
     57 CA          2.7222  -11.2867  -44.4471 C.3       3 UNK         0.1400 
     58 CB          3.9286  -10.8311  -45.2834 C.3       3 UNK        -0.1800 
     59 N           2.1168  -12.4445  -45.1078 N.am      3 UNK        -0.5000 
     60 C           0.8375  -12.8180  -45.0168 C.2       2 UNK         0.5000 
     61 O          -0.0114  -12.1665  -44.4064 O.2       2 UNK        -0.5000 
     62 CA          0.4591  -14.1555  -45.6960 C.3       2 UNK         0.1400 
     63 CB         -1.0201  -14.5253  -45.4922 C.3       2 UNK        -0.1800 
     64 N           0.7672  -14.2598  -47.1271 N.am      2 UNK        -0.5000 
     65 C           1.9686  -14.2639  -47.7273 C.2       1 UNK         0.5000 
     66 O           3.0291  -14.0430  -47.1413 O.2       1 UNK        -0.5000 
     67 C          -3.2437  -21.0196  -46.7011 C.2       11 UNK         0.5000 
     68 O          -3.8268  -21.4977  -47.6732 O.2       11 UNK        -0.5000 
     69 N          -3.4859  -21.3813  -45.4345 N.am      12 UNK        -0.5000 
     70 CA         -4.4793  -22.3773  -45.0410 C.3       12 UNK         0.1400 
     71 CB         -4.6860  -22.3125  -43.5200 C.3       12 UNK        -0.1800 
     72 C          -4.1062  -23.8027  -45.4867 C.2       12 UNK         0.5000 
     73 O          -4.9630  -24.5136  -46.0116 O.2       12 UNK        -0.5000 
     74 N          -2.8445  -24.1894  -45.2608 N.am      13 UNK        -0.5000 
     75 CA         -2.3129  -25.5156  -45.5573 C.3       13 UNK         0.1400 
     76 CB         -1.1367  -25.8146  -44.6078 C.3       13 UNK        -0.1800 
     77 C          -1.9305  -25.6586  -47.0415 C.2       13 UNK         0.5000 
     78 O          -2.7322  -26.1583  -47.8305 O.2       13 UNK        -0.5000 
     79 N          -0.7024  -25.2501  -47.3870 N.am      14 UNK        -0.5000 
     80 CA         -0.0586  -25.4616  -48.6855 C.3       14 UNK         0.1400 
     81 CB          1.3908  -24.9539  -48.6210 C.3       14 UNK        -0.1800 
     82 C          -0.8027  -24.8374  -49.8793 C.2       14 UNK         0.5000 
     83 O          -0.9198  -25.4872  -50.9192 O.2       14 UNK        -0.5000 
     84 N          -1.3069  -23.6084  -49.7088 N.am      15 UNK        -0.5000 
     85 CA         -2.0903  -22.9029  -50.7274 C.3       15 UNK         0.1400 
     86 CB         -1.8745  -21.3862  -50.5996 C.3       15 UNK        -0.1800 
     87 C          -3.5901  -23.2584  -50.6831 C.2       15 UNK         0.5000 
     88 O          -4.3376  -22.7514  -51.5155 O.2       15 UNK        -0.5000 
     89 N          -4.0132  -24.1069  -49.7325 N.am      16 UNK        -0.5000 
     90 CA         -5.3641  -24.6582  -49.5732 C.3       16 UNK         0.1400 
     91 CB         -5.6292  -25.7116  -50.6686 C.3       16 UNK        -0.1800 
     92 C          -6.4741  -23.5863  -49.4829 C.2       16 UNK         0.5000 
     93 O          -7.5165  -23.7198  -50.1263 O.2       16 UNK        -0.5000 
     94 N          -6.2134  -22.5398  -48.6874 N.am      17 UNK        -0.5000 
     95 CA         -7.0279  -21.3383  -48.4887 C.3       17 UNK         0.1400 
     96 CB         -8.4188  -21.6775  -47.9119 C.3       17 UNK        -0.1800 
     97 C          -7.0709  -20.4592  -49.7545 C.2       17 UNK         0.5000 
     98 O          -8.1468  -20.0398  -50.1855 O.2       17 UNK        -0.5000 
     99 N          -5.8781  -20.1926  -50.3070 N.am      18 UNK        -0.5000 
    100 CA        -5.6034  -19.3600  -51.4838 C.3       18 UNK         0.1400 
    101 CB        -5.9526  -17.8835  -51.2008 C.3       18 UNK        -0.1800 
    102 C         -6.2642  -19.8951  -52.7730 C.2       18 UNK         0.5000 
    103 O         -6.9059  -19.1396  -53.5066 O.2       18 UNK        -0.5000 
    104 N         -6.0962  -21.1965  -53.0185 N.am      19 UNK        -0.5000 
    105 CA        -6.5837  -21.9220  -54.1860 C.3       19 UNK         0.1400 
    106 CB        -7.4414  -23.0975  -53.6867 C.3       19 UNK        -0.1800 
    107 C         -5.3985  -22.4226  -55.0326 C.2       19 UNK         0.5000 
    108 O         -4.2395  -22.2546  -54.6477 O.2       19 UNK        -0.5000 
    109 N         -5.7187  -23.0458  -56.1760 N.am      20 UNK        -0.5000 
    110 CA        -4.7910  -23.6317  -57.1488 C.3       20 UNK         0.1400 
    111 CB        -4.0577  -24.8525  -56.5457 C.3       20 UNK        -0.1800 
    112 C         -3.8562  -22.5660  -57.7568 C.2       20 UNK         0.5000 
    113 O         -4.3320  -21.7168  -58.5123 O.2       20 UNK        -0.5000 
    114 N         -2.5603  -22.6110  -57.4227 N.am      21 UNK        -0.5000 
    115 CA        -1.5103  -21.7060  -57.8984 C.3       21 UNK         0.1400 
    116 CB        -0.1532  -22.4204  -57.7602 C.3       21 UNK        -0.1800 
    117 C         -1.5319  -20.3252  -57.2007 C.2       21 UNK         0.5000 
    118 O         -0.4940  -19.8509  -56.7347 O.2       21 UNK        -0.5000 
    119 N         -2.7116  -19.7022  -57.1547 N.am      22 UNK        -0.5000 
    120 CA        -2.9717  -18.3603  -56.6244 C.3       22 UNK         0.1400 
    121 C         -3.7896  -17.5481  -57.6604 C.2       22 UNK         0.5000 
    122 N         -3.4932  -16.2667  -57.8295 N.am      22 UNK        -0.7600 
    123 O         -4.7151  -18.0578  -58.2890 O.2       22 UNK        -0.5000 
    124 C124       -3.7213  -18.4099  -55.2686 C.3       23 UNK        -0.0398 
    125 S125       -2.6850  -19.0114  -53.8933 S.3       23 UNK        -0.2404 
    126 C126       -1.8736  -17.4692  -53.3713 C.3       23 UNK        -0.0205 
    127 H127       -1.2820  -14.5485  -51.6349 H         1 UNK         0.0600 
    128 H128       -1.6753  -12.8472  -51.4067 H         1 UNK         0.0600 
    129 H129       -2.1228  -14.0218  -50.1661 H         1 UNK         0.0600 
    130 H130        0.3079  -15.5461  -50.0693 H         1 UNK         0.3000 
    131 H131        2.5630  -13.7863  -49.7027 H         1 UNK         0.0600 
    132 H132        2.7548  -16.1334  -50.6061 H         1 UNK         0.0800 
    133 H133        3.8756  -15.7006  -49.3601 H         1 UNK         0.0800 
    134 H134        1.4488  -19.4539  -49.3369 H         1 UNK         0.0800 
    135 H135        2.2075  -18.5802  -50.6468 H         1 UNK         0.0800 
    136 H136        0.4966  -18.2939  -52.2865 H         1 UNK         0.1150 
    137 H137       -3.3443  -16.7329  -51.2191 H         1 UNK         0.1150 
    138 H138       -0.4383  -17.5315  -48.1739 H         1 UNK         0.1150 
    139 H139       -2.4372  -15.9582  -47.7921 H         1 UNK         0.0800 
    140 H140       -3.6890  -15.8847  -48.9959 H         1 UNK         0.0800 
    141 H141       -3.1251  -18.5464  -45.5446 H         1 UNK         0.0800 
    142 H142       -1.8230  -17.8507  -46.4481 H         1 UNK         0.0800 
    143 H143       -1.8894  -19.9352  -47.9686 H         1 UNK         0.0600 
    144 H144       -0.5649  -19.6772  -45.5156 H         1 UNK         0.3000 
    145 H145        1.0353  -22.8626  -45.4299 H         1 UNK         0.0600 
    146 H146        3.0871  -21.3981  -45.3033 H         1 UNK         0.0600 
    147 H147        2.5338  -21.6801  -46.9476 H         1 UNK         0.0600 
    148 H148        2.2115  -20.1393  -46.1774 H         1 UNK         0.0600 
    149 H149        1.3327  -20.6083  -43.7353 H         1 UNK         0.3000 
    150 H150       -1.5081  -21.2749  -41.6239 H         1 UNK         0.0600 
    151 H151        0.3536  -22.6551  -40.7517 H         1 UNK         0.0600 
    152 H152        0.2993  -21.1030  -39.9286 H         1 UNK         0.0600 
    153 H153        1.5178  -21.4055  -41.1630 H         1 UNK         0.0600 
    154 H154        0.4078  -19.1595  -41.6015 H         1 UNK         0.3000 
    155 H155       -1.3148  -17.0203  -43.9149 H         1 UNK         0.0600 
    156 H156       -0.8457  -16.8176  -40.8965 H         1 UNK         0.0600 
    157 H157       -2.3503  -16.5030  -41.7462 H         1 UNK         0.0600 
    158 H158       -0.9684  -15.4447  -41.9950 H         1 UNK         0.0600 
    159 H159        1.1575  -16.7388  -42.4915 H         1 UNK         0.3000 
    160 H160        3.2025  -18.4919  -44.8313 H         1 UNK         0.0600 
    161 H161        3.1153  -15.4826  -44.3009 H         1 UNK         0.0600 
    162 H162        3.0781  -16.2733  -45.8768 H         1 UNK         0.0600 
    163 H163        4.5038  -16.4042  -44.8683 H         1 UNK         0.0600 
    164 H164        3.5724  -16.9472  -42.3803 H         1 UNK         0.3000 
    165 H165        3.4933  -19.7705  -40.2376 H         1 UNK         0.0600 
    166 H166        5.7776  -18.9954  -39.6553 H         1 UNK         0.0600 
    167 H167        5.8046  -19.8653  -41.1809 H         1 UNK         0.0600 
    168 H168        5.8953  -18.1079  -41.1752 H         1 UNK         0.0600 
    169 H169        4.1272  -16.9990  -39.8323 H         1 UNK         0.3000 
    170 H170        0.7813  -15.8611  -39.3563 H         1 UNK         0.0600 
    171 H171        1.3826  -16.9524  -37.1875 H         1 UNK         0.0600 
    172 H172        3.0209  -16.3238  -37.3177 H         1 UNK         0.0600 
    173 H173        1.6574  -15.2190  -37.1387 H         1 UNK         0.0600 
    174 H174        3.1568  -14.4428  -38.9791 H         1 UNK         0.3000 
    175 H175        3.3051  -12.5800  -40.5151 H         1 UNK         0.0600 
    176 H176        5.2441  -14.4707  -41.9886 H         1 UNK         0.0600 
    177 H177        5.6195  -12.8245  -41.4850 H         1 UNK         0.0600 
    178 H178        5.3227  -14.0629  -40.2775 H         1 UNK         0.0600 
    179 H179        2.7709  -13.5583  -43.2105 H         1 UNK         0.3000 
    180 H180        1.9978  -10.4702  -44.4191 H         1 UNK         0.0600 
    181 H181        4.6903  -11.6094  -45.3459 H         1 UNK         0.0600 
    182 H182        4.3963   -9.9462  -44.8498 H         1 UNK         0.0600 
    183 H183        3.6286  -10.5740  -46.2995 H         1 UNK         0.0600 
    184 H184        2.7255  -13.0084  -45.6988 H         1 UNK         0.3000 
    185 H185        1.0421  -14.9195  -45.1864 H         1 UNK         0.0600 
    186 H186       -1.2953  -14.4907  -44.4373 H         1 UNK         0.0600 
    187 H187       -1.6835  -13.8466  -46.0294 H         1 UNK         0.0600 
    188 H188       -1.2175  -15.5388  -45.8381 H         1 UNK         0.0600 
    189 H189       -0.0272  -14.4123  -47.7293 H         1 UNK         0.3000 
    190 H190       -2.9531  -20.9451  -44.6915 H         1 UNK         0.3000 
    191 H191       -5.4253  -22.1167  -45.5207 H         1 UNK         0.0600 
    192 H192       -3.7663  -22.5327  -42.9768 H         1 UNK         0.0600 
    193 H193       -5.4393  -23.0323  -43.1973 H         1 UNK         0.0600 
    194 H194       -5.0267  -21.3240  -43.2111 H         1 UNK         0.0600 
    195 H195       -2.2117  -23.5420  -44.7956 H         1 UNK         0.3000 
    196 H196       -3.0877  -26.2577  -45.3527 H         1 UNK         0.0600 
    197 H197       -0.6999  -26.7912  -44.8203 H         1 UNK         0.0600 
    198 H198       -1.4704  -25.8291  -43.5701 H         1 UNK         0.0600 
    199 H199       -0.3420  -25.0722  -44.6840 H         1 UNK         0.0600 
    200 H200       -0.1396  -24.7945  -46.6855 H         1 UNK         0.3000 
    201 H201       -0.0275  -26.5401  -48.8537 H         1 UNK         0.0600 
    202 H202        1.9556  -25.4675  -47.8428 H         1 UNK         0.0600 
    203 H203        1.4354  -23.8835  -48.4175 H         1 UNK         0.0600 
    204 H204        1.9078  -25.1290  -49.5653 H         1 UNK         0.0600 
    205 H205       -1.1419  -23.1262  -48.8264 H         1 UNK         0.3000 
    206 H206       -1.7237  -23.1934  -51.7141 H         1 UNK         0.0600 
    207 H207       -0.8287  -21.1346  -50.4222 H         1 UNK         0.0600 
    208 H208       -2.1798  -20.8787  -51.5149 H         1 UNK         0.0600 
    209 H209       -2.4697  -20.9625  -49.7962 H         1 UNK         0.0600 
    210 H210       -3.3247  -24.4738  -49.0871 H         1 UNK         0.3000 
    211 H211       -5.3698  -25.1785  -48.6149 H         1 UNK         0.0600 
    212 H212       -5.6302  -25.2676  -51.6639 H         1 UNK         0.0600 
    213 H213       -6.5940  -26.1985  -50.5227 H         1 UNK         0.0600 
    214 H214       -4.8682  -26.4919  -50.6524 H         1 UNK         0.0600 
    215 H215       -5.2903  -22.4898  -48.2617 H         1 UNK         0.3000 
    216 H216       -6.5077  -20.7474  -47.7334 H         1 UNK         0.0600 
    217 H217       -8.9515  -20.7689  -47.6291 H         1 UNK         0.0600 
    218 H218       -8.3344  -22.2959  -47.0183 H         1 UNK         0.0600 
    219 H219       -9.0439  -22.2075  -48.6306 H         1 UNK         0.0600 
    220 H220       -5.0684  -20.6280  -49.8872 H         1 UNK         0.3000 
    221 H221       -4.5261  -19.4173  -51.6409 H         1 UNK         0.0600 
    222 H222       -7.0263  -17.7348  -51.0839 H         1 UNK         0.0600 
    223 H223       -5.4672  -17.5291  -50.2924 H         1 UNK         0.0600 
    224 H224       -5.6222  -17.2429  -52.0191 H         1 UNK         0.0600 
    225 H225       -5.4747  -21.7349  -52.4134 H         1 UNK         0.3000 
    226 H226       -7.1985  -21.2759  -54.8153 H         1 UNK         0.0600 
    227 H227       -8.2567  -22.7471  -53.0531 H         1 UNK         0.0600 
    228 H228       -7.8892  -23.6484  -54.5141 H         1 UNK         0.0600 
    229 H229       -6.8498  -23.8022  -53.1018 H         1 UNK         0.0600 
    230 H230       -6.6953  -23.1078  -56.4270 H         1 UNK         0.3000 
    231 H231       -5.4030  -23.9991  -57.9738 H         1 UNK         0.0600 
    232 H232       -4.7711  -25.6106  -56.2223 H         1 UNK         0.0600 
    233 H233       -3.4466  -24.5904  -55.6817 H         1 UNK         0.0600 
    234 H234       -3.4057  -25.3218  -57.2836 H         1 UNK         0.0600 
    235 H235       -2.2760  -23.2981  -56.7400 H         1 UNK         0.3000 
    236 H236       -1.6744  -21.5205  -58.9620 H         1 UNK         0.0600 
    237 H237        0.6551  -21.8117  -58.1677 H         1 UNK         0.0600 
    238 H238        0.0854  -22.6302  -56.7168 H         1 UNK         0.0600 
    239 H239       -0.1476  -23.3659  -58.3028 H         1 UNK         0.0600 
    240 H240       -3.5019  -20.1477  -57.6115 H         1 UNK         0.3000 
    241 H241       -2.0247  -17.8374  -56.4775 H         1 UNK         0.0600 
    242 H242       -4.0275  -15.7255  -58.4919 H         1 UNK         0.3800 
    243 H243       -2.7432  -15.8222  -57.3224 H         1 UNK         0.3800 
    244 H244       -4.1163  -17.4287  -54.9996 H         1 UNK         0.0800 
    245 H245       -4.5914  -19.0643  -55.3460 H         1 UNK         0.0800 
    246 H246       -0.9995  -17.2951  -54.0006 H         1 UNK         0.0800 
    247 H247       -2.5380  -16.6188  -53.5297 H         1 UNK         0.0800 
@<TRIPOS>BOND
     1    1    2 1    
     2    1  127 1    
     3    1  128 1    
     4    1  129 1    
     5    2    3 2    
     6    2    4 am   BACKBONE|DICT|INTERRES
     7    4    5 1    
     8    4  130 1    
     9    5    6 1    
    10    5   65 1    
    11    5  131 1    
    12    6    7 1    
    13    6  132 1    
    14    6  133 1    
    15    7    8 1    
    16    8    9 1    
    17    8  134 1    
    18    8  135 1    
    19    9   10 ar   
    20    9   14 ar   
    21   10   11 ar   
    22   10  136 1    
    23   11   12 ar   
    24   11  126 1    
    25   12   13 ar   
    26   12  137 1    
    27   13   14 ar   
    28   13   15 1    
    29   14  138 1    
    30   15   16 1    
    31   15  139 1    
    32   15  140 1    
    33   16   17 1    
    34   17   18 1    
    35   17  141 1    
    36   17  142 1    
    37   18   19 1    
    38   18   67 1    
    39   18  143 1    
    40   19   20 am   BACKBONE|DICT|INTERRES
    41   19  144 1    
    42   20   21 2    
    43   20   22 1    
    44   22   23 1    
    45   22   24 1    
    46   22  145 1    
    47   23  146 1    
    48   23  147 1    
    49   23  148 1    
    50   24   25 am   BACKBONE|DICT|INTERRES
    51   24  149 1    
    52   25   26 2    
    53   25   27 1    
    54   27   28 1    
    55   27   29 1    
    56   27  150 1    
    57   28  151 1    
    58   28  152 1    
    59   28  153 1    
    60   29   30 am   BACKBONE|DICT|INTERRES
    61   29  154 1    
    62   30   31 2    
    63   30   32 1    
    64   32   33 1    
    65   32   34 1    
    66   32  155 1    
    67   33  156 1    
    68   33  157 1    
    69   33  158 1    
    70   34   35 am   BACKBONE|DICT|INTERRES
    71   34  159 1    
    72   35   36 2    
    73   35   37 1    
    74   37   38 1    
    75   37   39 1    
    76   37  160 1    
    77   38  161 1    
    78   38  162 1    
    79   38  163 1    
    80   39   40 am   BACKBONE|DICT|INTERRES
    81   39  164 1    
    82   40   41 2    
    83   40   42 1    
    84   42   43 1    
    85   42   44 1    
    86   42  165 1    
    87   43  166 1    
    88   43  167 1    
    89   43  168 1    
    90   44   45 am   BACKBONE|DICT|INTERRES
    91   44  169 1    
    92   45   46 2    
    93   45   47 1    
    94   47   48 1    
    95   47   49 1    
    96   47  170 1    
    97   48  171 1    
    98   48  172 1    
    99   48  173 1    
   100   49   50 am   BACKBONE|DICT|INTERRES
   101   49  174 1    
   102   50   51 2    
   103   50   52 1    
   104   52   53 1    
   105   52   54 1    
   106   52  175 1    
   107   53  176 1    
   108   53  177 1    
   109   53  178 1    
   110   54   55 am   BACKBONE|DICT|INTERRES
   111   54  179 1    
   112   55   56 2    
   113   55   57 1    
   114   57   58 1    
   115   57   59 1    
   116   57  180 1    
   117   58  181 1    
   118   58  182 1    
   119   58  183 1    
   120   59   60 am   BACKBONE|DICT|INTERRES
   121   59  184 1    
   122   60   61 2    
   123   60   62 1    
   124   62   63 1    
   125   62   64 1    
   126   62  185 1    
   127   63  186 1    
   128   63  187 1    
   129   63  188 1    
   130   64   65 am   BACKBONE|DICT|INTERRES
   131   64  189 1    
   132   65   66 2    
   133   67   68 2    
   134   67   69 am   BACKBONE|DICT|INTERRES
   135   69   70 1    
   136   69  190 1    
   137   70   71 1    
   138   70   72 1    
   139   70  191 1    
   140   71  192 1    
   141   71  193 1    
   142   71  194 1    
   143   72   73 2    
   144   72   74 am   BACKBONE|DICT|INTERRES
   145   74   75 1    
   146   74  195 1    
   147   75   76 1    
   148   75   77 1    
   149   75  196 1    
   150   76  197 1    
   151   76  198 1    
   152   76  199 1    
   153   77   78 2    
   154   77   79 am   BACKBONE|DICT|INTERRES
   155   79   80 1    
   156   79  200 1    
   157   80   81 1    
   158   80   82 1    
   159   80  201 1    
   160   81  202 1    
   161   81  203 1    
   162   81  204 1    
   163   82   83 2    
   164   82   84 am   BACKBONE|DICT|INTERRES
   165   84   85 1    
   166   84  205 1    
   167   85   86 1    
   168   85   87 1    
   169   85  206 1    
   170   86  207 1    
   171   86  208 1    
   172   86  209 1    
   173   87   88 2    
   174   87   89 am   BACKBONE|DICT|INTERRES
   175   89   90 1    
   176   89  210 1    
   177   90   91 1    
   178   90   92 1    
   179   90  211 1    
   180   91  212 1    
   181   91  213 1    
   182   91  214 1    
   183   92   93 2    
   184   92   94 am   BACKBONE|DICT|INTERRES
   185   94   95 1    
   186   94  215 1    
   187   95   96 1    
   188   95   97 1    
   189   95  216 1    
   190   96  217 1    
   191   96  218 1    
   192   96  219 1    
   193   97   98 2    
   194   97   99 am   BACKBONE|DICT|INTERRES
   195   99  100 1    
   196   99  220 1    
   197  100  101 1    
   198  100  102 1    
   199  100  221 1    
   200  101  222 1    
   201  101  223 1    
   202  101  224 1    
   203  102  103 2    
   204  102  104 am   BACKBONE|DICT|INTERRES
   205  104  105 1    
   206  104  225 1    
   207  105  106 1    
   208  105  107 1    
   209  105  226 1    
   210  106  227 1    
   211  106  228 1    
   212  106  229 1    
   213  107  108 2    
   214  107  109 am   BACKBONE|DICT|INTERRES
   215  109  110 1    
   216  109  230 1    
   217  110  111 1    
   218  110  112 1    
   219  110  231 1    
   220  111  232 1    
   221  111  233 1    
   222  111  234 1    
   223  112  113 2    
   224  112  114 am   BACKBONE|DICT|INTERRES
   225  114  115 1    
   226  114  235 1    
   227  115  116 1    
   228  115  117 1    
   229  115  236 1    
   230  116  237 1    
   231  116  238 1    
   232  116  239 1    
   233  117  118 2    
   234  117  119 am   BACKBONE|DICT|INTERRES
   235  119  120 1    
   236  119  240 1    
   237  120  121 1    
   238  120  124 1    
   239  120  241 1    
   240  121  122 am   BACKBONE|DICT|INTERRES
   241  121  123 2    
   242  122  242 1    
   243  122  243 1    
   244  124  125 1    
   245  124  244 1    
   246  124  245 1    
   247  125  126 1    
   248  126  246 1    
   249  126  247 1    
@<TRIPOS>SUBSTRUCTURE
     1 UNK         1 GROUP             0       ****    0 ROOT    
