@<TRIPOS>MOLECULE
3R540
247   249    1
SMALL
USER_CHARGES


@<TRIPOS>ATOM
      1 CA          3.2119  -11.5513  -51.8296 C.3       0 UNK        -0.1800 
      2 C           3.0664  -11.6923  -50.3214 C.2       0 UNK         0.5000 
      3 O           3.6089  -10.8809  -49.5713 O.2       0 UNK        -0.5000 
      4 N           2.3154  -12.7035  -49.8697 N.am      1 UNK        -0.5000 
      5 CA          2.0789  -13.0456  -48.4595 C.3       1 UNK         0.1400 
      6 C6          1.7983  -14.5603  -48.2852 C.3       23 UNK        -0.0398 
      7 S7          3.2639  -15.5885  -48.6426 S.3       23 UNK        -0.2404 
      8 C8          2.9687  -16.1378  -50.3548 C.3       23 UNK        -0.0205 
      9 C9          1.8232  -17.1338  -50.4640 C.ar      23 UNK        -0.0193 
     10 C10         0.6311  -16.7763  -51.1000 C.ar      23 UNK        -0.1150 
     11 C11        -0.4063  -17.7035  -51.2373 C.ar      23 UNK        -0.0193 
     12 C12        -0.2555  -18.9908  -50.7117 C.ar      23 UNK        -0.1150 
     13 C13         0.9353  -19.3629  -50.0789 C.ar      23 UNK        -0.0193 
     14 C14         1.9720  -18.4308  -49.9661 C.ar      23 UNK        -0.1150 
     15 C15         1.1199  -20.7791  -49.5521 C.3       23 UNK        -0.0205 
     16 S16         1.4502  -20.7947  -47.7625 S.3       23 UNK        -0.2404 
     17 C17         1.5259  -22.5825  -47.4193 C.3       23 UNK        -0.0398 
     18 CA          0.2786  -23.1831  -46.7250 C.3       11 UNK         0.1400 
     19 N           0.1617  -22.8098  -45.3098 N.am      11 UNK        -0.5000 
     20 C          -0.5855  -23.5006  -44.4342 C.2       10 UNK         0.5000 
     21 O          -1.2406  -24.4966  -44.7420 O.2       10 UNK        -0.5000 
     22 CA         -0.6443  -22.9902  -42.9844 C.3       10 UNK         0.1400 
     23 CB          0.6483  -23.3308  -42.2279 C.3       10 UNK        -0.1800 
     24 N          -0.9161  -21.5570  -42.8939 N.am      10 UNK        -0.5000 
     25 C          -2.0476  -20.9706  -43.3101 C.2       9 UNK         0.5000 
     26 O          -2.9947  -21.5842  -43.8009 O.2       9 UNK        -0.5000 
     27 CA         -2.1172  -19.4359  -43.2023 C.3       9 UNK         0.1400 
     28 CB         -2.4781  -18.9973  -41.7756 C.3       9 UNK        -0.1800 
     29 N          -0.8711  -18.7915  -43.6129 N.am      9 UNK        -0.5000 
     30 C          -0.3475  -18.8688  -44.8439 C.2       8 UNK         0.5000 
     31 O          -0.8965  -19.4416  -45.7827 O.2       8 UNK        -0.5000 
     32 CA          1.0457  -18.2481  -45.0370 C.3       8 UNK         0.1400 
     33 CB          0.9534  -16.7284  -45.2370 C.3       8 UNK        -0.1800 
     34 N           1.9352  -18.5574  -43.9176 N.am      8 UNK        -0.5000 
     35 C           2.4045  -19.7829  -43.6384 C.2       7 UNK         0.5000 
     36 O           2.1686  -20.7822  -44.3182 O.2       7 UNK        -0.5000 
     37 CA          3.2475  -19.9196  -42.3566 C.3       7 UNK         0.1400 
     38 CB          4.7090  -19.5310  -42.6252 C.3       7 UNK        -0.1800 
     39 N           2.7257  -19.1122  -41.2523 N.am      7 UNK        -0.5000 
     40 C           1.5586  -19.3424  -40.6338 C.2       6 UNK         0.5000 
     41 O           0.8223  -20.2916  -40.8985 O.2       6 UNK        -0.5000 
     42 CA          1.1141  -18.3074  -39.5815 C.3       6 UNK         0.1400 
     43 CB          1.7056  -18.6478  -38.2057 C.3       6 UNK        -0.1800 
     44 N           1.4619  -16.9260  -39.9339 N.am      6 UNK        -0.5000 
     45 C           1.0412  -16.2955  -41.0386 C.2       5 UNK         0.5000 
     46 O           0.3262  -16.8285  -41.8895 O.2       5 UNK        -0.5000 
     47 CA          1.5620  -14.8600  -41.2503 C.3       5 UNK         0.1400 
     48 CB          3.0423  -14.8872  -41.6660 C.3       5 UNK        -0.1800 
     49 N           0.8158  -14.1280  -42.2747 N.am      5 UNK        -0.5000 
     50 C          -0.4695  -13.7588  -42.1913 C.2       4 UNK         0.5000 
     51 O          -1.1769  -13.9539  -41.2003 O.2       4 UNK        -0.5000 
     52 CA         -1.0315  -13.0214  -43.4273 C.3       4 UNK         0.1400 
     53 CB         -2.4450  -12.4461  -43.2010 C.3       4 UNK        -0.1800 
     54 N          -0.1268  -11.9793  -43.9309 N.am      4 UNK        -0.5000 
     55 C           0.3433  -10.9182  -43.2513 C.2       3 UNK         0.5000 
     56 O           0.0695  -10.6752  -42.0754 O.2       3 UNK        -0.5000 
     57 CA          1.2883   -9.9594  -44.0048 C.3       3 UNK         0.1400 
     58 CB          2.7513  -10.2675  -43.6488 C.3       3 UNK        -0.1800 
     59 N           1.1386  -10.0068  -45.4598 N.am      3 UNK        -0.5000 
     60 C           0.0615   -9.5923  -46.1420 C.2       2 UNK         0.5000 
     61 O          -0.9118   -9.0510  -45.6165 O.2       2 UNK        -0.5000 
     62 CA          0.0622   -9.8345  -47.6653 C.3       2 UNK         0.1400 
     63 CB          0.3463   -8.5262  -48.4192 C.3       2 UNK        -0.1800 
     64 N           1.0191  -10.8513  -48.1138 N.am      2 UNK        -0.5000 
     65 C           0.9774  -12.1593  -47.8256 C.2       1 UNK         0.5000 
     66 O           0.1280  -12.6535  -47.0811 O.2       1 UNK        -0.5000 
     67 C          -1.0362  -22.9587  -47.5060 C.2       11 UNK         0.5000 
     68 O          -1.3365  -23.7374  -48.4129 O.2       11 UNK        -0.5000 
     69 N          -1.8163  -21.9382  -47.1164 N.am      12 UNK        -0.5000 
     70 CA         -3.1670  -21.6886  -47.6162 C.3       12 UNK         0.1400 
     71 CB         -3.6727  -20.3260  -47.1211 C.3       12 UNK        -0.1800 
     72 C          -4.1400  -22.8100  -47.2182 C.2       12 UNK         0.5000 
     73 O          -4.8370  -23.3334  -48.0851 O.2       12 UNK        -0.5000 
     74 N          -4.1341  -23.1991  -45.9342 N.am      13 UNK        -0.5000 
     75 CA         -4.9404  -24.2974  -45.3914 C.3       13 UNK         0.1400 
     76 CB         -4.7943  -24.3375  -43.8629 C.3       13 UNK        -0.1800 
     77 C          -4.5957  -25.6672  -46.0074 C.2       13 UNK         0.5000 
     78 O          -5.4963  -26.4747  -46.2384 O.2       13 UNK        -0.5000 
     79 N          -3.3068  -25.8862  -46.2999 N.am      14 UNK        -0.5000 
     80 CA         -2.7975  -27.0513  -47.0262 C.3       14 UNK         0.1400 
     81 CB         -1.2801  -27.1469  -46.8026 C.3       14 UNK        -0.1800 
     82 C          -3.1108  -27.0229  -48.5378 C.2       14 UNK         0.5000 
     83 O          -2.9488  -28.0503  -49.1975 O.2       14 UNK        -0.5000 
     84 N          -3.5294  -25.8580  -49.0573 N.am      15 UNK        -0.5000 
     85 CA         -3.8013  -25.5434  -50.4622 C.3       15 UNK         0.1400 
     86 CB         -5.0408  -26.3083  -50.9676 C.3       15 UNK        -0.1800 
     87 C          -2.5592  -25.7309  -51.3564 C.2       15 UNK         0.5000 
     88 O          -2.6608  -26.2672  -52.4611 O.2       15 UNK        -0.5000 
     89 N          -1.3982  -25.2772  -50.8613 N.am      16 UNK        -0.5000 
     90 CA         -0.0905  -25.4225  -51.5102 C.3       16 UNK         0.1400 
     91 CB          0.9980  -24.9257  -50.5494 C.3       16 UNK        -0.1800 
     92 C           0.0197  -24.6900  -52.8618 C.2       16 UNK         0.5000 
     93 O           0.7645  -25.1323  -53.7365 O.2       16 UNK        -0.5000 
     94 N          -0.7449  -23.6017  -53.0111 N.am      17 UNK        -0.5000 
     95 CA         -0.8631  -22.8043  -54.2322 C.3       17 UNK         0.1400 
     96 CB         -0.9467  -21.3225  -53.8311 C.3       17 UNK        -0.1800 
     97 C          -2.0669  -23.2314  -55.1021 C.2       17 UNK         0.5000 
     98 O          -2.4653  -22.4783  -55.9920 O.2       17 UNK        -0.5000 
     99 N          -2.6457  -24.4108  -54.8219 N.am      18 UNK        -0.5000 
    100 CA        -3.8452  -25.0241  -55.4093 C.3       18 UNK         0.1400 
    101 CB        -3.7364  -25.1859  -56.9381 C.3       18 UNK        -0.1800 
    102 C         -5.1434  -24.3097  -54.9935 C.2       18 UNK         0.5000 
    103 O         -6.0448  -24.9529  -54.4551 O.2       18 UNK        -0.5000 
    104 N         -5.1967  -22.9911  -55.2020 N.am      19 UNK        -0.5000 
    105 CA        -6.1844  -22.0955  -54.6148 C.3       19 UNK         0.1400 
    106 CB        -6.4813  -20.9536  -55.5994 C.3       19 UNK        -0.1800 
    107 C         -5.5925  -21.5492  -53.3092 C.2       19 UNK         0.5000 
    108 O         -4.4901  -21.0002  -53.3363 O.2       19 UNK        -0.5000 
    109 N         -6.3220  -21.6951  -52.1960 N.am      20 UNK        -0.5000 
    110 CA        -5.8903  -21.2813  -50.8551 C.3       20 UNK         0.1400 
    111 CB        -6.9666  -21.6848  -49.8359 C.3       20 UNK        -0.1800 
    112 C         -5.5857  -19.7754  -50.7424 C.2       20 UNK         0.5000 
    113 O         -4.6144  -19.3913  -50.0936 O.2       20 UNK        -0.5000 
    114 N         -6.4093  -18.9599  -51.4104 N.am      21 UNK        -0.5000 
    115 CA        -6.2779  -17.5047  -51.4764 C.3       21 UNK         0.1400 
    116 CB        -7.6905  -16.8999  -51.5524 C.3       21 UNK        -0.1800 
    117 C         -5.4113  -17.0280  -52.6612 C.2       21 UNK         0.5000 
    118 O         -5.2998  -15.8171  -52.8593 O.2       21 UNK        -0.5000 
    119 N         -4.8353  -17.9640  -53.4323 N.am      22 UNK        -0.5000 
    120 CA        -4.1340  -17.7402  -54.7089 C.3       22 UNK         0.1400 
    121 C         -5.0708  -17.2394  -55.8544 C.2       22 UNK         0.5000 
    122 N         -4.5452  -17.0270  -57.0542 N.am      22 UNK        -0.7600 
    123 O         -6.2798  -17.0828  -55.6956 O.2       22 UNK        -0.5000 
    124 C124       -2.8465  -16.8773  -54.5495 C.3       23 UNK        -0.0398 
    125 S125       -1.4917  -17.7928  -53.7476 S.3       23 UNK        -0.2404 
    126 C126       -1.6663  -17.3258  -51.9993 C.3       23 UNK        -0.0205 
    127 H127        2.8175  -10.5892  -52.1563 H         1 UNK         0.0600 
    128 H128        4.2638  -11.6034  -52.1106 H         1 UNK         0.0600 
    129 H129        2.6782  -12.3377  -52.3638 H         1 UNK         0.0600 
    130 H130        1.8543  -13.3008  -50.5395 H         1 UNK         0.3000 
    131 H131        2.9883  -12.8214  -47.8977 H         1 UNK         0.0600 
    132 H132        0.9488  -14.8771  -48.8914 H         1 UNK         0.0800 
    133 H133        1.5272  -14.7755  -47.2523 H         1 UNK         0.0800 
    134 H134        3.8789  -16.6094  -50.7278 H         1 UNK         0.0800 
    135 H135        2.7975  -15.2721  -50.9950 H         1 UNK         0.0800 
    136 H136        0.5179  -15.7841  -51.5134 H         1 UNK         0.1150 
    137 H137       -1.0565  -19.7085  -50.8235 H         1 UNK         0.1150 
    138 H138        2.8977  -18.7154  -49.4856 H         1 UNK         0.1150 
    139 H139        0.2347  -21.3820  -49.7593 H         1 UNK         0.0800 
    140 H140        1.9510  -21.2494  -50.0794 H         1 UNK         0.0800 
    141 H141        1.7285  -23.1151  -48.3475 H         1 UNK         0.0800 
    142 H142        2.4034  -22.7591  -46.7959 H         1 UNK         0.0800 
    143 H143        0.4410  -24.2629  -46.7356 H         1 UNK         0.0600 
    144 H144        0.6923  -22.0009  -44.9991 H         1 UNK         0.3000 
    145 H145       -1.4663  -23.5104  -42.4882 H         1 UNK         0.0600 
    146 H146        0.5698  -23.0622  -41.1744 H         1 UNK         0.0600 
    147 H147        0.8581  -24.4000  -42.2753 H         1 UNK         0.0600 
    148 H148        1.5102  -22.8086  -42.6425 H         1 UNK         0.0600 
    149 H149       -0.2045  -20.9870  -42.4478 H         1 UNK         0.3000 
    150 H150       -2.9058  -19.0899  -43.8734 H         1 UNK         0.0600 
    151 H151       -3.4333  -19.4239  -41.4672 H         1 UNK         0.0600 
    152 H152       -2.5668  -17.9128  -41.7069 H         1 UNK         0.0600 
    153 H153       -1.7277  -19.3168  -41.0528 H         1 UNK         0.0600 
    154 H154       -0.3767  -18.2488  -42.9092 H         1 UNK         0.3000 
    155 H155        1.4870  -18.6684  -45.9398 H         1 UNK         0.0600 
    156 H156        1.9401  -16.2919  -45.3920 H         1 UNK         0.0600 
    157 H157        0.4921  -16.2270  -44.3876 H         1 UNK         0.0600 
    158 H158        0.3488  -16.4977  -46.1147 H         1 UNK         0.0600 
    159 H159        2.1190  -17.8088  -43.2674 H         1 UNK         0.3000 
    160 H160        3.2241  -20.9682  -42.0524 H         1 UNK         0.0600 
    161 H161        4.8030  -18.4820  -42.9089 H         1 UNK         0.0600 
    162 H162        5.1284  -20.1291  -43.4353 H         1 UNK         0.0600 
    163 H163        5.3294  -19.6980  -41.7446 H         1 UNK         0.0600 
    164 H164        3.2714  -18.3115  -40.9706 H         1 UNK         0.3000 
    165 H165        0.0262  -18.3637  -39.5069 H         1 UNK         0.0600 
    166 H166        2.7938  -18.5739  -38.2047 H         1 UNK         0.0600 
    167 H167        1.3222  -17.9792  -37.4348 H         1 UNK         0.0600 
    168 H168        1.4453  -19.6651  -37.9100 H         1 UNK         0.0600 
    169 H169        2.0561  -16.4326  -39.2832 H         1 UNK         0.3000 
    170 H170        1.4660  -14.3182  -40.3073 H         1 UNK         0.0600 
    171 H171        3.6587  -15.3773  -40.9115 H         1 UNK         0.0600 
    172 H172        3.1869  -15.4216  -42.6061 H         1 UNK         0.0600 
    173 H173        3.4342  -13.8775  -41.7918 H         1 UNK         0.0600 
    174 H174        1.3128  -13.9224  -43.1277 H         1 UNK         0.3000 
    175 H175       -1.1061  -13.7696  -44.2180 H         1 UNK         0.0600 
    176 H176       -2.8201  -11.9600  -44.1017 H         1 UNK         0.0600 
    177 H177       -3.1510  -13.2355  -42.9406 H         1 UNK         0.0600 
    178 H178       -2.4607  -11.7133  -42.3937 H         1 UNK         0.0600 
    179 H179        0.1433  -12.0759  -44.9024 H         1 UNK         0.3000 
    180 H180        1.0599   -8.9443  -43.6733 H         1 UNK         0.0600 
    181 H181        3.4300   -9.5515  -44.1126 H         1 UNK         0.0600 
    182 H182        2.9113  -10.2129  -42.5710 H         1 UNK         0.0600 
    183 H183        3.0430  -11.2673  -43.9729 H         1 UNK         0.0600 
    184 H184        1.8977  -10.4194  -45.9810 H         1 UNK         0.3000 
    185 H185       -0.9384  -10.1766  -47.9372 H         1 UNK         0.0600 
    186 H186        0.2640   -8.6661  -49.4972 H         1 UNK         0.0600 
    187 H187       -0.3657   -7.7489  -48.1386 H         1 UNK         0.0600 
    188 H188        1.3470   -8.1487  -48.2047 H         1 UNK         0.0600 
    189 H189        1.7841  -10.5314  -48.6977 H         1 UNK         0.3000 
    190 H190       -1.4649  -21.2887  -46.4195 H         1 UNK         0.3000 
    191 H191       -3.1219  -21.6551  -48.7068 H         1 UNK         0.0600 
    192 H192       -4.6972  -20.1459  -47.4481 H         1 UNK         0.0600 
    193 H193       -3.0601  -19.5156  -47.5165 H         1 UNK         0.0600 
    194 H194       -3.6601  -20.2563  -46.0341 H         1 UNK         0.0600 
    195 H195       -3.5540  -22.6949  -45.2684 H         1 UNK         0.3000 
    196 H196       -5.9854  -24.0859  -45.6268 H         1 UNK         0.0600 
    197 H197       -5.3939  -25.1406  -43.4327 H         1 UNK         0.0600 
    198 H198       -5.1295  -23.4039  -43.4110 H         1 UNK         0.0600 
    199 H199       -3.7592  -24.5016  -43.5619 H         1 UNK         0.0600 
    200 H200       -2.6189  -25.2041  -45.9949 H         1 UNK         0.3000 
    201 H201       -3.2621  -27.9474  -46.6100 H         1 UNK         0.0600 
    202 H202       -1.0381  -27.1947  -45.7407 H         1 UNK         0.0600 
    203 H203       -0.7591  -26.2893  -47.2283 H         1 UNK         0.0600 
    204 H204       -0.8707  -28.0433  -47.2699 H         1 UNK         0.0600 
    205 H205       -3.6392  -25.0761  -48.4231 H         1 UNK         0.3000 
    206 H206       -4.0386  -24.4792  -50.4962 H         1 UNK         0.0600 
    207 H207       -5.9010  -26.1313  -50.3219 H         1 UNK         0.0600 
    208 H208       -5.3172  -25.9831  -51.9709 H         1 UNK         0.0600 
    209 H209       -4.8664  -27.3837  -51.0091 H         1 UNK         0.0600 
    210 H210       -1.4040  -24.8240  -49.9495 H         1 UNK         0.3000 
    211 H211        0.0713  -26.4864  -51.6947 H         1 UNK         0.0600 
    212 H212        0.8949  -23.8571  -50.3620 H         1 UNK         0.0600 
    213 H213        1.9930  -25.0925  -50.9639 H         1 UNK         0.0600 
    214 H214        0.9509  -25.4445  -49.5916 H         1 UNK         0.0600 
    215 H215       -1.3316  -23.3257  -52.2373 H         1 UNK         0.3000 
    216 H216        0.0308  -22.9325  -54.8456 H         1 UNK         0.0600 
    217 H217       -0.9937  -20.6785  -54.7098 H         1 UNK         0.0600 
    218 H218       -0.0713  -21.0176  -53.2573 H         1 UNK         0.0600 
    219 H219       -1.8293  -21.1156  -53.2256 H         1 UNK         0.0600 
    220 H220       -2.2652  -24.9379  -54.0440 H         1 UNK         0.3000 
    221 H221       -3.8925  -26.0282  -54.9848 H         1 UNK         0.0600 
    222 H222       -3.7361  -24.2277  -57.4577 H         1 UNK         0.0600 
    223 H223       -2.8259  -25.7179  -57.2136 H         1 UNK         0.0600 
    224 H224       -4.5787  -25.7609  -57.3246 H         1 UNK         0.0600 
    225 H225       -4.3643  -22.5512  -55.5852 H         1 UNK         0.3000 
    226 H226       -7.1150  -22.6278  -54.4071 H         1 UNK         0.0600 
    227 H227       -7.1804  -20.2352  -55.1692 H         1 UNK         0.0600 
    228 H228       -5.5766  -20.4090  -55.8721 H         1 UNK         0.0600 
    229 H229       -6.9284  -21.3347  -56.5175 H         1 UNK         0.0600 
    230 H230       -7.2169  -22.1597  -52.2542 H         1 UNK         0.3000 
    231 H231       -4.9719  -21.8223  -50.6177 H         1 UNK         0.0600 
    232 H232       -6.6868  -21.3755  -48.8279 H         1 UNK         0.0600 
    233 H233       -7.1016  -22.7665  -49.8142 H         1 UNK         0.0600 
    234 H234       -7.9309  -21.2284  -50.0621 H         1 UNK         0.0600 
    235 H235       -7.1706  -19.3677  -51.9332 H         1 UNK         0.3000 
    236 H236       -5.8039  -17.1393  -50.5630 H         1 UNK         0.0600 
    237 H237       -8.2052  -17.1965  -52.4671 H         1 UNK         0.0600 
    238 H238       -8.3007  -17.2144  -50.7055 H         1 UNK         0.0600 
    239 H239       -7.6542  -15.8100  -51.5351 H         1 UNK         0.0600 
    240 H240       -4.9441  -18.9370  -53.1747 H         1 UNK         0.3000 
    241 H241       -3.8289  -18.7360  -55.0336 H         1 UNK         0.0600 
    242 H242       -5.1501  -16.7203  -57.8005 H         1 UNK         0.3800 
    243 H243       -3.5681  -17.1827  -57.2464 H         1 UNK         0.3800 
    244 H244       -3.0396  -15.9462  -54.0177 H         1 UNK         0.0800 
    245 H245       -2.4542  -16.5730  -55.5198 H         1 UNK         0.0800 
    246 H246       -1.8508  -16.2539  -51.9146 H         1 UNK         0.0800 
    247 H247       -2.5338  -17.8299  -51.5701 H         1 UNK         0.0800 
@<TRIPOS>BOND
     1    1    2 1    
     2    1  127 1    
     3    1  128 1    
     4    1  129 1    
     5    2    3 2    
     6    2    4 am   BACKBONE|DICT|INTERRES
     7    4    5 1    
     8    4  130 1    
     9    5    6 1    
    10    5   65 1    
    11    5  131 1    
    12    6    7 1    
    13    6  132 1    
    14    6  133 1    
    15    7    8 1    
    16    8    9 1    
    17    8  134 1    
    18    8  135 1    
    19    9   10 ar   
    20    9   14 ar   
    21   10   11 ar   
    22   10  136 1    
    23   11   12 ar   
    24   11  126 1    
    25   12   13 ar   
    26   12  137 1    
    27   13   14 ar   
    28   13   15 1    
    29   14  138 1    
    30   15   16 1    
    31   15  139 1    
    32   15  140 1    
    33   16   17 1    
    34   17   18 1    
    35   17  141 1    
    36   17  142 1    
    37   18   19 1    
    38   18   67 1    
    39   18  143 1    
    40   19   20 am   BACKBONE|DICT|INTERRES
    41   19  144 1    
    42   20   21 2    
    43   20   22 1    
    44   22   23 1    
    45   22   24 1    
    46   22  145 1    
    47   23  146 1    
    48   23  147 1    
    49   23  148 1    
    50   24   25 am   BACKBONE|DICT|INTERRES
    51   24  149 1    
    52   25   26 2    
    53   25   27 1    
    54   27   28 1    
    55   27   29 1    
    56   27  150 1    
    57   28  151 1    
    58   28  152 1    
    59   28  153 1    
    60   29   30 am   BACKBONE|DICT|INTERRES
    61   29  154 1    
    62   30   31 2    
    63   30   32 1    
    64   32   33 1    
    65   32   34 1    
    66   32  155 1    
    67   33  156 1    
    68   33  157 1    
    69   33  158 1    
    70   34   35 am   BACKBONE|DICT|INTERRES
    71   34  159 1    
    72   35   36 2    
    73   35   37 1    
    74   37   38 1    
    75   37   39 1    
    76   37  160 1    
    77   38  161 1    
    78   38  162 1    
    79   38  163 1    
    80   39   40 am   BACKBONE|DICT|INTERRES
    81   39  164 1    
    82   40   41 2    
    83   40   42 1    
    84   42   43 1    
    85   42   44 1    
    86   42  165 1    
    87   43  166 1    
    88   43  167 1    
    89   43  168 1    
    90   44   45 am   BACKBONE|DICT|INTERRES
    91   44  169 1    
    92   45   46 2    
    93   45   47 1    
    94   47   48 1    
    95   47   49 1    
    96   47  170 1    
    97   48  171 1    
    98   48  172 1    
    99   48  173 1    
   100   49   50 am   BACKBONE|DICT|INTERRES
   101   49  174 1    
   102   50   51 2    
   103   50   52 1    
   104   52   53 1    
   105   52   54 1    
   106   52  175 1    
   107   53  176 1    
   108   53  177 1    
   109   53  178 1    
   110   54   55 am   BACKBONE|DICT|INTERRES
   111   54  179 1    
   112   55   56 2    
   113   55   57 1    
   114   57   58 1    
   115   57   59 1    
   116   57  180 1    
   117   58  181 1    
   118   58  182 1    
   119   58  183 1    
   120   59   60 am   BACKBONE|DICT|INTERRES
   121   59  184 1    
   122   60   61 2    
   123   60   62 1    
   124   62   63 1    
   125   62   64 1    
   126   62  185 1    
   127   63  186 1    
   128   63  187 1    
   129   63  188 1    
   130   64   65 am   BACKBONE|DICT|INTERRES
   131   64  189 1    
   132   65   66 2    
   133   67   68 2    
   134   67   69 am   BACKBONE|DICT|INTERRES
   135   69   70 1    
   136   69  190 1    
   137   70   71 1    
   138   70   72 1    
   139   70  191 1    
   140   71  192 1    
   141   71  193 1    
   142   71  194 1    
   143   72   73 2    
   144   72   74 am   BACKBONE|DICT|INTERRES
   145   74   75 1    
   146   74  195 1    
   147   75   76 1    
   148   75   77 1    
   149   75  196 1    
   150   76  197 1    
   151   76  198 1    
   152   76  199 1    
   153   77   78 2    
   154   77   79 am   BACKBONE|DICT|INTERRES
   155   79   80 1    
   156   79  200 1    
   157   80   81 1    
   158   80   82 1    
   159   80  201 1    
   160   81  202 1    
   161   81  203 1    
   162   81  204 1    
   163   82   83 2    
   164   82   84 am   BACKBONE|DICT|INTERRES
   165   84   85 1    
   166   84  205 1    
   167   85   86 1    
   168   85   87 1    
   169   85  206 1    
   170   86  207 1    
   171   86  208 1    
   172   86  209 1    
   173   87   88 2    
   174   87   89 am   BACKBONE|DICT|INTERRES
   175   89   90 1    
   176   89  210 1    
   177   90   91 1    
   178   90   92 1    
   179   90  211 1    
   180   91  212 1    
   181   91  213 1    
   182   91  214 1    
   183   92   93 2    
   184   92   94 am   BACKBONE|DICT|INTERRES
   185   94   95 1    
   186   94  215 1    
   187   95   96 1    
   188   95   97 1    
   189   95  216 1    
   190   96  217 1    
   191   96  218 1    
   192   96  219 1    
   193   97   98 2    
   194   97   99 am   BACKBONE|DICT|INTERRES
   195   99  100 1    
   196   99  220 1    
   197  100  101 1    
   198  100  102 1    
   199  100  221 1    
   200  101  222 1    
   201  101  223 1    
   202  101  224 1    
   203  102  103 2    
   204  102  104 am   BACKBONE|DICT|INTERRES
   205  104  105 1    
   206  104  225 1    
   207  105  106 1    
   208  105  107 1    
   209  105  226 1    
   210  106  227 1    
   211  106  228 1    
   212  106  229 1    
   213  107  108 2    
   214  107  109 am   BACKBONE|DICT|INTERRES
   215  109  110 1    
   216  109  230 1    
   217  110  111 1    
   218  110  112 1    
   219  110  231 1    
   220  111  232 1    
   221  111  233 1    
   222  111  234 1    
   223  112  113 2    
   224  112  114 am   BACKBONE|DICT|INTERRES
   225  114  115 1    
   226  114  235 1    
   227  115  116 1    
   228  115  117 1    
   229  115  236 1    
   230  116  237 1    
   231  116  238 1    
   232  116  239 1    
   233  117  118 2    
   234  117  119 am   BACKBONE|DICT|INTERRES
   235  119  120 1    
   236  119  240 1    
   237  120  121 1    
   238  120  124 1    
   239  120  241 1    
   240  121  122 am   BACKBONE|DICT|INTERRES
   241  121  123 2    
   242  122  242 1    
   243  122  243 1    
   244  124  125 1    
   245  124  244 1    
   246  124  245 1    
   247  125  126 1    
   248  126  246 1    
   249  126  247 1    
@<TRIPOS>SUBSTRUCTURE
     1 UNK         1 GROUP             0       ****    0 ROOT    
