@<TRIPOS>MOLECULE
3R540
247   249    1
SMALL
USER_CHARGES


@<TRIPOS>ATOM
      1 CA          5.1034  -13.1496  -54.5895 C.3       0 UNK        -0.1800 
      2 C           4.1027  -13.1890  -53.4425 C.2       0 UNK         0.5000 
      3 O           3.5311  -12.1534  -53.1001 O.2       0 UNK        -0.5000 
      4 N           3.8949  -14.3791  -52.8618 N.am      1 UNK        -0.5000 
      5 CA          3.0060  -14.6709  -51.7267 C.3       1 UNK         0.1400 
      6 C6          1.5093  -14.3464  -52.0105 C.3       23 UNK        -0.0398 
      7 S7          0.7850  -15.3209  -53.3792 S.3       23 UNK        -0.2404 
      8 C8          0.7878  -17.0425  -52.7566 C.3       23 UNK        -0.0205 
      9 C9          0.5051  -17.1538  -51.2641 C.ar      23 UNK        -0.0193 
     10 C10        -0.7230  -16.7352  -50.7395 C.ar      23 UNK        -0.1150 
     11 C11        -0.9496  -16.7690  -49.3604 C.ar      23 UNK        -0.0193 
     12 C12         0.0609  -17.2197  -48.5121 C.ar      23 UNK        -0.1150 
     13 C13         1.2552  -17.7196  -49.0280 C.ar      23 UNK        -0.0193 
     14 C14         1.4813  -17.6701  -50.4046 C.ar      23 UNK        -0.1150 
     15 C15         2.2636  -18.3638  -48.0908 C.3       23 UNK        -0.0205 
     16 S16         2.1434  -20.1852  -48.1085 S.3       23 UNK        -0.2404 
     17 C17         0.3415  -20.4779  -47.9877 C.3       23 UNK        -0.0398 
     18 CA          0.0118  -21.8396  -47.3406 C.3       11 UNK         0.1400 
     19 N           0.2142  -21.8357  -45.8888 N.am      11 UNK        -0.5000 
     20 C           0.1725  -22.9185  -45.1014 C.2       10 UNK         0.5000 
     21 O          -0.1044  -24.0459  -45.5117 O.2       10 UNK        -0.5000 
     22 CA          0.4570  -22.7034  -43.6051 C.3       10 UNK         0.1400 
     23 CB          1.9313  -22.3445  -43.3622 C.3       10 UNK        -0.1800 
     24 N          -0.4051  -21.6731  -43.0308 N.am      10 UNK        -0.5000 
     25 C          -1.7195  -21.8250  -42.8156 C.2       9 UNK         0.5000 
     26 O          -2.3290  -22.8769  -43.0123 O.2       9 UNK        -0.5000 
     27 CA         -2.4921  -20.5861  -42.3222 C.3       9 UNK         0.1400 
     28 CB         -2.3969  -20.4595  -40.7944 C.3       9 UNK        -0.1800 
     29 N          -2.0454  -19.3385  -42.9451 N.am      9 UNK        -0.5000 
     30 C          -2.0964  -19.0897  -44.2613 C.2       8 UNK         0.5000 
     31 O          -2.5465  -19.8799  -45.0878 O.2       8 UNK        -0.5000 
     32 CA         -1.4810  -17.7692  -44.7488 C.3       8 UNK         0.1400 
     33 CB         -2.4313  -16.5855  -44.5195 C.3       8 UNK        -0.1800 
     34 N          -0.1788  -17.4922  -44.1434 N.am      8 UNK        -0.5000 
     35 C           0.8999  -18.2795  -44.2582 C.2       7 UNK         0.5000 
     36 O           0.9276  -19.3076  -44.9297 O.2       7 UNK        -0.5000 
     37 CA          2.1393  -17.8883  -43.4396 C.3       7 UNK         0.1400 
     38 CB          2.9345  -16.7721  -44.1315 C.3       7 UNK        -0.1800 
     39 N           1.7749  -17.4805  -42.0847 N.am      7 UNK        -0.5000 
     40 C           1.3191  -18.3219  -41.1454 C.2       6 UNK         0.5000 
     41 O           1.2089  -19.5375  -41.3087 O.2       6 UNK        -0.5000 
     42 CA          0.8776  -17.6885  -39.8136 C.3       6 UNK         0.1400 
     43 CB          2.0811  -17.4968  -38.8788 C.3       6 UNK        -0.1800 
     44 N           0.1999  -16.4043  -40.0026 N.am      6 UNK        -0.5000 
     45 C          -0.9990  -16.2643  -40.5853 C.2       5 UNK         0.5000 
     46 O          -1.6724  -17.2075  -40.9987 O.2       5 UNK        -0.5000 
     47 CA         -1.5098  -14.8249  -40.7778 C.3       5 UNK         0.1400 
     48 CB         -2.2143  -14.3271  -39.5070 C.3       5 UNK        -0.1800 
     49 N          -0.4577  -13.8763  -41.1561 N.am      5 UNK        -0.5000 
     50 C           0.2567  -13.9463  -42.2869 C.2       4 UNK         0.5000 
     51 O           0.1579  -14.8639  -43.1032 O.2       4 UNK        -0.5000 
     52 CA          1.2862  -12.8287  -42.5257 C.3       4 UNK         0.1400 
     53 CB          2.6865  -13.2887  -42.0919 C.3       4 UNK        -0.1800 
     54 N           1.3290  -12.4231  -43.9314 N.am      4 UNK        -0.5000 
     55 C           0.3461  -11.7661  -44.5642 C.2       3 UNK         0.5000 
     56 O          -0.6960  -11.4106  -44.0111 O.2       3 UNK        -0.5000 
     57 CA          0.5602  -11.4136  -46.0493 C.3       3 UNK         0.1400 
     58 CB          0.7519   -9.8963  -46.2125 C.3       3 UNK        -0.1800 
     59 N           1.7181  -12.0913  -46.6409 N.am      3 UNK        -0.5000 
     60 C           1.6437  -13.1692  -47.4297 C.2       2 UNK         0.5000 
     61 O           0.5925  -13.7459  -47.7188 O.2       2 UNK        -0.5000 
     62 CA          2.9722  -13.6941  -47.9909 C.3       2 UNK         0.1400 
     63 CB          3.5470  -14.7953  -47.0873 C.3       2 UNK        -0.1800 
     64 N           2.7283  -14.2402  -49.3218 N.am      2 UNK        -0.5000 
     65 C           3.5081  -14.0575  -50.3944 C.2       1 UNK         0.5000 
     66 O           4.5934  -13.4718  -50.3430 O.2       1 UNK        -0.5000 
     67 C          -1.3915  -22.3221  -47.7544 C.2       11 UNK         0.5000 
     68 O          -1.4993  -23.0114  -48.7670 O.2       11 UNK        -0.5000 
     69 N          -2.4297  -22.0371  -46.9567 N.am      12 UNK        -0.5000 
     70 CA         -3.7905  -22.5382  -47.1736 C.3       12 UNK         0.1400 
     71 CB         -4.7537  -21.8646  -46.1857 C.3       12 UNK        -0.1800 
     72 C          -3.9200  -24.0753  -47.1003 C.2       12 UNK         0.5000 
     73 O          -4.8872  -24.6142  -47.6384 O.2       12 UNK        -0.5000 
     74 N          -2.9504  -24.7508  -46.4686 N.am      13 UNK        -0.5000 
     75 CA         -2.8295  -26.2059  -46.4531 C.3       13 UNK         0.1400 
     76 CB         -2.4868  -26.6696  -45.0280 C.3       13 UNK        -0.1800 
     77 C          -1.7623  -26.6850  -47.4533 C.2       13 UNK         0.5000 
     78 O          -2.0198  -27.6250  -48.2055 O.2       13 UNK        -0.5000 
     79 N          -0.5790  -26.0545  -47.4289 N.am      14 UNK        -0.5000 
     80 CA          0.6036  -26.4797  -48.1800 C.3       14 UNK         0.1400 
     81 CB          1.8508  -25.8086  -47.5830 C.3       14 UNK        -0.1800 
     82 C           0.5150  -26.2094  -49.6923 C.2       14 UNK         0.5000 
     83 O           0.8712  -27.0838  -50.4834 O.2       14 UNK        -0.5000 
     84 N           0.0575  -25.0086  -50.0647 N.am      15 UNK        -0.5000 
     85 CA         -0.1300  -24.5816  -51.4521 C.3       15 UNK         0.1400 
     86 CB          0.3200  -23.1181  -51.5967 C.3       15 UNK        -0.1800 
     87 C          -1.5963  -24.7527  -51.8789 C.2       15 UNK         0.5000 
     88 O          -1.8551  -25.1253  -53.0245 O.2       15 UNK        -0.5000 
     89 N          -2.5219  -24.4981  -50.9412 N.am      16 UNK        -0.5000 
     90 CA         -3.9723  -24.6510  -51.0502 C.3       16 UNK         0.1400 
     91 CB         -4.3542  -26.1467  -51.0483 C.3       16 UNK        -0.1800 
     92 C          -4.5341  -23.8536  -52.2390 C.2       16 UNK         0.5000 
     93 O          -4.5204  -22.6229  -52.1892 O.2       16 UNK        -0.5000 
     94 N          -4.9745  -24.5485  -53.2958 N.am      17 UNK        -0.5000 
     95 CA         -5.5015  -23.9729  -54.5341 C.3       17 UNK         0.1400 
     96 CB         -5.9570  -25.1080  -55.4623 C.3       17 UNK        -0.1800 
     97 C          -4.5146  -23.0414  -55.2649 C.2       17 UNK         0.5000 
     98 O          -4.9570  -22.0781  -55.8902 O.2       17 UNK        -0.5000 
     99 N          -3.2035  -23.2945  -55.1313 N.am      18 UNK        -0.5000 
    100 CA        -2.1446  -22.4457  -55.6882 C.3       18 UNK         0.1400 
    101 CB        -0.8174  -23.2185  -55.6925 C.3       18 UNK        -0.1800 
    102 C         -1.9987  -21.0913  -54.9613 C.2       18 UNK         0.5000 
    103 O         -1.4758  -20.1460  -55.5516 O.2       18 UNK        -0.5000 
    104 N         -2.4878  -21.0110  -53.7165 N.am      19 UNK        -0.5000 
    105 CA        -2.5990  -19.7835  -52.9259 C.3       19 UNK         0.1400 
    106 CB        -2.0905  -20.0738  -51.5017 C.3       19 UNK        -0.1800 
    107 C         -4.0477  -19.2524  -52.8964 C.2       19 UNK         0.5000 
    108 O         -4.3184  -18.2887  -52.1797 O.2       19 UNK        -0.5000 
    109 N         -4.9669  -19.9104  -53.6252 N.am      20 UNK        -0.5000 
    110 CA        -6.4229  -19.7043  -53.6311 C.3       20 UNK         0.1400 
    111 CB        -6.7736  -18.3655  -54.3113 C.3       20 UNK        -0.1800 
    112 C         -7.0556  -19.8450  -52.2271 C.2       20 UNK         0.5000 
    113 O         -8.0130  -19.1387  -51.9019 O.2       20 UNK        -0.5000 
    114 N         -6.4496  -20.7066  -51.3931 N.am      21 UNK        -0.5000 
    115 CA        -6.6915  -20.9000  -49.9575 C.3       21 UNK         0.1400 
    116 CB        -8.0527  -21.5872  -49.7328 C.3       21 UNK        -0.1800 
    117 C         -6.5309  -19.6127  -49.1123 C.2       21 UNK         0.5000 
    118 O         -7.0391  -19.5532  -47.9919 O.2       21 UNK        -0.5000 
    119 N         -5.8497  -18.6029  -49.6728 N.am      22 UNK        -0.5000 
    120 CA        -5.7242  -17.2293  -49.1635 C.3       22 UNK         0.1400 
    121 C         -7.0764  -16.4576  -49.0650 C.2       22 UNK         0.5000 
    122 N         -8.1038  -16.8349  -49.8196 N.am      22 UNK        -0.7600 
    123 O         -7.1945  -15.4860  -48.3230 O.2       22 UNK        -0.5000 
    124 C124       -4.8480  -17.1269  -47.8853 C.3       23 UNK        -0.0398 
    125 S125       -3.1851  -17.8235  -48.1578 S.3       23 UNK        -0.2404 
    126 C126       -2.2909  -16.3615  -48.7762 C.3       23 UNK        -0.0205 
    127 H127        4.6182  -12.7941  -55.4985 H         1 UNK         0.0600 
    128 H128        5.5273  -14.1332  -54.7934 H         1 UNK         0.0600 
    129 H129        5.9215  -12.4702  -54.3501 H         1 UNK         0.0600 
    130 H130        4.4248  -15.1718  -53.1944 H         1 UNK         0.3000 
    131 H131        3.0935  -15.7462  -51.5797 H         1 UNK         0.0600 
    132 H132        0.8836  -14.5008  -51.1324 H         1 UNK         0.0800 
    133 H133        1.3853  -13.2904  -52.2504 H         1 UNK         0.0800 
    134 H134        1.7525  -17.4921  -52.9964 H         1 UNK         0.0800 
    135 H135        0.0430  -17.6180  -53.3071 H         1 UNK         0.0800 
    136 H136       -1.4940  -16.3731  -51.4052 H         1 UNK         0.1150 
    137 H137       -0.1058  -17.2390  -47.4476 H         1 UNK         0.1150 
    138 H138        2.4143  -18.0434  -50.8029 H         1 UNK         0.1150 
    139 H139        3.2746  -18.0659  -48.3718 H         1 UNK         0.0800 
    140 H140        2.1125  -18.0114  -47.0707 H         1 UNK         0.0800 
    141 H141       -0.0569  -20.4110  -49.0025 H         1 UNK         0.0800 
    142 H142       -0.1357  -19.6808  -47.4175 H         1 UNK         0.0800 
    143 H143        0.7063  -22.5752  -47.7507 H         1 UNK         0.0600 
    144 H144        0.4511  -20.9336  -45.4767 H         1 UNK         0.3000 
    145 H145        0.2544  -23.6449  -43.0900 H         1 UNK         0.0600 
    146 H146        2.2039  -21.3976  -43.8282 H         1 UNK         0.0600 
    147 H147        2.1443  -22.2624  -42.2962 H         1 UNK         0.0600 
    148 H148        2.5910  -23.1121  -43.7686 H         1 UNK         0.0600 
    149 H149        0.0239  -20.7798  -42.8233 H         1 UNK         0.3000 
    150 H150       -3.5420  -20.7275  -42.5869 H         1 UNK         0.0600 
    151 H151       -2.7362  -21.3727  -40.3039 H         1 UNK         0.0600 
    152 H152       -3.0189  -19.6430  -40.4273 H         1 UNK         0.0600 
    153 H153       -1.3730  -20.2719  -40.4697 H         1 UNK         0.0600 
    154 H154       -1.7006  -18.6146  -42.3206 H         1 UNK         0.3000 
    155 H155       -1.3316  -17.8740  -45.8210 H         1 UNK         0.0600 
    156 H156       -2.6182  -16.4174  -43.4593 H         1 UNK         0.0600 
    157 H157       -2.0215  -15.6661  -44.9385 H         1 UNK         0.0600 
    158 H158       -3.3943  -16.7618  -45.0002 H         1 UNK         0.0600 
    159 H159       -0.0987  -16.6280  -43.6125 H         1 UNK         0.3000 
    160 H160        2.7856  -18.7659  -43.3675 H         1 UNK         0.0600 
    161 H161        3.3163  -17.1150  -45.0932 H         1 UNK         0.0600 
    162 H162        2.3231  -15.8887  -44.3166 H         1 UNK         0.0600 
    163 H163        3.7946  -16.4695  -43.5343 H         1 UNK         0.0600 
    164 H164        1.7821  -16.4913  -41.8882 H         1 UNK         0.3000 
    165 H165        0.1780  -18.3763  -39.3338 H         1 UNK         0.0600 
    166 H166        1.7679  -17.1179  -37.9058 H         1 UNK         0.0600 
    167 H167        2.5959  -18.4432  -38.7074 H         1 UNK         0.0600 
    168 H168        2.8084  -16.7978  -39.2937 H         1 UNK         0.0600 
    169 H169        0.6857  -15.5767  -39.6900 H         1 UNK         0.3000 
    170 H170       -2.2438  -14.8429  -41.5859 H         1 UNK         0.0600 
    171 H171       -3.0155  -15.0068  -39.2133 H         1 UNK         0.0600 
    172 H172       -1.5242  -14.2503  -38.6659 H         1 UNK         0.0600 
    173 H173       -2.6640  -13.3464  -39.6636 H         1 UNK         0.0600 
    174 H174       -0.3100  -13.0976  -40.5302 H         1 UNK         0.3000 
    175 H175        1.0074  -11.9582  -41.9281 H         1 UNK         0.0600 
    176 H176        3.0348  -14.1370  -42.6811 H         1 UNK         0.0600 
    177 H177        3.4154  -12.4853  -42.2005 H         1 UNK         0.0600 
    178 H178        2.6933  -13.5914  -41.0440 H         1 UNK         0.0600 
    179 H179        2.1317  -12.7174  -44.4650 H         1 UNK         0.3000 
    180 H180       -0.3525  -11.6936  -46.5797 H         1 UNK         0.0600 
    181 H181        1.6402   -9.5429  -45.6875 H         1 UNK         0.0600 
    182 H182       -0.1036   -9.3472  -45.8168 H         1 UNK         0.0600 
    183 H183        0.8518   -9.6231  -47.2632 H         1 UNK         0.0600 
    184 H184        2.6199  -11.6727  -46.4617 H         1 UNK         0.3000 
    185 H185        3.6796  -12.8637  -48.0445 H         1 UNK         0.0600 
    186 H186        4.4809  -15.1890  -47.4887 H         1 UNK         0.0600 
    187 H187        3.7562  -14.4141  -46.0872 H         1 UNK         0.0600 
    188 H188        2.8492  -15.6263  -46.9854 H         1 UNK         0.0600 
    189 H189        1.8353  -14.7079  -49.4138 H         1 UNK         0.3000 
    190 H190       -2.2989  -21.4120  -46.1642 H         1 UNK         0.3000 
    191 H191       -4.0856  -22.2441  -48.1824 H         1 UNK         0.0600 
    192 H192       -4.4661  -22.0578  -45.1513 H         1 UNK         0.0600 
    193 H193       -5.7740  -22.2262  -46.3200 H         1 UNK         0.0600 
    194 H194       -4.7754  -20.7846  -46.3342 H         1 UNK         0.0600 
    195 H195       -2.1839  -24.2313  -46.0586 H         1 UNK         0.3000 
    196 H196       -3.7777  -26.6703  -46.7320 H         1 UNK         0.0600 
    197 H197       -2.3879  -27.7549  -44.9838 H         1 UNK         0.0600 
    198 H198       -3.2700  -26.3851  -44.3251 H         1 UNK         0.0600 
    199 H199       -1.5500  -26.2390  -44.6729 H         1 UNK         0.0600 
    200 H200       -0.4356  -25.3069  -46.7530 H         1 UNK         0.3000 
    201 H201        0.7131  -27.5581  -48.0464 H         1 UNK         0.0600 
    202 H202        1.9678  -26.0619  -46.5291 H         1 UNK         0.0600 
    203 H203        1.8028  -24.7224  -47.6609 H         1 UNK         0.0600 
    204 H204        2.7550  -26.1351  -48.0983 H         1 UNK         0.0600 
    205 H205       -0.2837  -24.3695  -49.3550 H         1 UNK         0.3000 
    206 H206        0.4845  -25.1873  -52.1214 H         1 UNK         0.0600 
    207 H207        1.3746  -23.0061  -51.3446 H         1 UNK         0.0600 
    208 H208        0.1912  -22.7608  -52.6177 H         1 UNK         0.0600 
    209 H209       -0.2466  -22.4523  -50.9481 H         1 UNK         0.0600 
    210 H210       -2.1937  -24.0952  -50.0671 H         1 UNK         0.3000 
    211 H211       -4.4029  -24.1942  -50.1604 H         1 UNK         0.0600 
    212 H212       -3.9053  -26.6915  -51.8794 H         1 UNK         0.0600 
    213 H213       -5.4356  -26.2781  -51.1032 H         1 UNK         0.0600 
    214 H214       -4.0218  -26.6252  -50.1267 H         1 UNK         0.0600 
    215 H215       -4.9090  -25.5554  -53.2615 H         1 UNK         0.3000 
    216 H216       -6.3764  -23.3755  -54.2694 H         1 UNK         0.0600 
    217 H217       -6.3796  -24.7118  -56.3867 H         1 UNK         0.0600 
    218 H218       -6.7270  -25.7190  -54.9909 H         1 UNK         0.0600 
    219 H219       -5.1275  -25.7621  -55.7341 H         1 UNK         0.0600 
    220 H220       -2.9068  -24.0823  -54.5645 H         1 UNK         0.3000 
    221 H221       -2.4014  -22.2245  -56.7265 H         1 UNK         0.0600 
    222 H222       -0.5077  -23.4981  -54.6872 H         1 UNK         0.0600 
    223 H223       -0.8964  -24.1316  -56.2826 H         1 UNK         0.0600 
    224 H224       -0.0167  -22.6190  -56.1275 H         1 UNK         0.0600 
    225 H225       -2.9324  -21.8274  -53.3129 H         1 UNK         0.3000 
    226 H226       -1.9814  -18.9916  -53.3526 H         1 UNK         0.0600 
    227 H227       -1.0252  -20.3010  -51.5106 H         1 UNK         0.0600 
    228 H228       -2.2235  -19.2133  -50.8455 H         1 UNK         0.0600 
    229 H229       -2.6136  -20.9149  -51.0450 H         1 UNK         0.0600 
    230 H230       -4.6446  -20.6767  -54.2013 H         1 UNK         0.3000 
    231 H231       -6.8452  -20.5069  -54.2371 H         1 UNK         0.0600 
    232 H232       -7.8515  -18.2617  -54.4401 H         1 UNK         0.0600 
    233 H233       -6.3219  -18.2970  -55.3009 H         1 UNK         0.0600 
    234 H234       -6.4304  -17.5120  -53.7258 H         1 UNK         0.0600 
    235 H235       -5.6751  -21.2518  -51.7670 H         1 UNK         0.3000 
    236 H236       -5.9159  -21.5847  -49.6136 H         1 UNK         0.0600 
    237 H237       -8.1830  -21.8681  -48.6871 H         1 UNK         0.0600 
    238 H238       -8.1355  -22.4991  -50.3241 H         1 UNK         0.0600 
    239 H239       -8.8833  -20.9344  -50.0029 H         1 UNK         0.0600 
    240 H240       -5.4447  -18.7401  -50.5926 H         1 UNK         0.3000 
    241 H241       -5.1888  -16.6955  -49.9490 H         1 UNK         0.0600 
    242 H242       -8.0237  -17.6229  -50.4530 H         1 UNK         0.3800 
    243 H243       -8.9729  -16.3285  -49.7616 H         1 UNK         0.3800 
    244 H244       -4.7417  -16.0901  -47.5624 H         1 UNK         0.0800 
    245 H245       -5.3162  -17.6581  -47.0557 H         1 UNK         0.0800 
    246 H246       -2.8933  -15.8529  -49.5300 H         1 UNK         0.0800 
    247 H247       -2.1375  -15.6519  -47.9615 H         1 UNK         0.0800 
@<TRIPOS>BOND
     1    1    2 1    
     2    1  127 1    
     3    1  128 1    
     4    1  129 1    
     5    2    3 2    
     6    2    4 am   BACKBONE|DICT|INTERRES
     7    4    5 1    
     8    4  130 1    
     9    5    6 1    
    10    5   65 1    
    11    5  131 1    
    12    6    7 1    
    13    6  132 1    
    14    6  133 1    
    15    7    8 1    
    16    8    9 1    
    17    8  134 1    
    18    8  135 1    
    19    9   10 ar   
    20    9   14 ar   
    21   10   11 ar   
    22   10  136 1    
    23   11   12 ar   
    24   11  126 1    
    25   12   13 ar   
    26   12  137 1    
    27   13   14 ar   
    28   13   15 1    
    29   14  138 1    
    30   15   16 1    
    31   15  139 1    
    32   15  140 1    
    33   16   17 1    
    34   17   18 1    
    35   17  141 1    
    36   17  142 1    
    37   18   19 1    
    38   18   67 1    
    39   18  143 1    
    40   19   20 am   BACKBONE|DICT|INTERRES
    41   19  144 1    
    42   20   21 2    
    43   20   22 1    
    44   22   23 1    
    45   22   24 1    
    46   22  145 1    
    47   23  146 1    
    48   23  147 1    
    49   23  148 1    
    50   24   25 am   BACKBONE|DICT|INTERRES
    51   24  149 1    
    52   25   26 2    
    53   25   27 1    
    54   27   28 1    
    55   27   29 1    
    56   27  150 1    
    57   28  151 1    
    58   28  152 1    
    59   28  153 1    
    60   29   30 am   BACKBONE|DICT|INTERRES
    61   29  154 1    
    62   30   31 2    
    63   30   32 1    
    64   32   33 1    
    65   32   34 1    
    66   32  155 1    
    67   33  156 1    
    68   33  157 1    
    69   33  158 1    
    70   34   35 am   BACKBONE|DICT|INTERRES
    71   34  159 1    
    72   35   36 2    
    73   35   37 1    
    74   37   38 1    
    75   37   39 1    
    76   37  160 1    
    77   38  161 1    
    78   38  162 1    
    79   38  163 1    
    80   39   40 am   BACKBONE|DICT|INTERRES
    81   39  164 1    
    82   40   41 2    
    83   40   42 1    
    84   42   43 1    
    85   42   44 1    
    86   42  165 1    
    87   43  166 1    
    88   43  167 1    
    89   43  168 1    
    90   44   45 am   BACKBONE|DICT|INTERRES
    91   44  169 1    
    92   45   46 2    
    93   45   47 1    
    94   47   48 1    
    95   47   49 1    
    96   47  170 1    
    97   48  171 1    
    98   48  172 1    
    99   48  173 1    
   100   49   50 am   BACKBONE|DICT|INTERRES
   101   49  174 1    
   102   50   51 2    
   103   50   52 1    
   104   52   53 1    
   105   52   54 1    
   106   52  175 1    
   107   53  176 1    
   108   53  177 1    
   109   53  178 1    
   110   54   55 am   BACKBONE|DICT|INTERRES
   111   54  179 1    
   112   55   56 2    
   113   55   57 1    
   114   57   58 1    
   115   57   59 1    
   116   57  180 1    
   117   58  181 1    
   118   58  182 1    
   119   58  183 1    
   120   59   60 am   BACKBONE|DICT|INTERRES
   121   59  184 1    
   122   60   61 2    
   123   60   62 1    
   124   62   63 1    
   125   62   64 1    
   126   62  185 1    
   127   63  186 1    
   128   63  187 1    
   129   63  188 1    
   130   64   65 am   BACKBONE|DICT|INTERRES
   131   64  189 1    
   132   65   66 2    
   133   67   68 2    
   134   67   69 am   BACKBONE|DICT|INTERRES
   135   69   70 1    
   136   69  190 1    
   137   70   71 1    
   138   70   72 1    
   139   70  191 1    
   140   71  192 1    
   141   71  193 1    
   142   71  194 1    
   143   72   73 2    
   144   72   74 am   BACKBONE|DICT|INTERRES
   145   74   75 1    
   146   74  195 1    
   147   75   76 1    
   148   75   77 1    
   149   75  196 1    
   150   76  197 1    
   151   76  198 1    
   152   76  199 1    
   153   77   78 2    
   154   77   79 am   BACKBONE|DICT|INTERRES
   155   79   80 1    
   156   79  200 1    
   157   80   81 1    
   158   80   82 1    
   159   80  201 1    
   160   81  202 1    
   161   81  203 1    
   162   81  204 1    
   163   82   83 2    
   164   82   84 am   BACKBONE|DICT|INTERRES
   165   84   85 1    
   166   84  205 1    
   167   85   86 1    
   168   85   87 1    
   169   85  206 1    
   170   86  207 1    
   171   86  208 1    
   172   86  209 1    
   173   87   88 2    
   174   87   89 am   BACKBONE|DICT|INTERRES
   175   89   90 1    
   176   89  210 1    
   177   90   91 1    
   178   90   92 1    
   179   90  211 1    
   180   91  212 1    
   181   91  213 1    
   182   91  214 1    
   183   92   93 2    
   184   92   94 am   BACKBONE|DICT|INTERRES
   185   94   95 1    
   186   94  215 1    
   187   95   96 1    
   188   95   97 1    
   189   95  216 1    
   190   96  217 1    
   191   96  218 1    
   192   96  219 1    
   193   97   98 2    
   194   97   99 am   BACKBONE|DICT|INTERRES
   195   99  100 1    
   196   99  220 1    
   197  100  101 1    
   198  100  102 1    
   199  100  221 1    
   200  101  222 1    
   201  101  223 1    
   202  101  224 1    
   203  102  103 2    
   204  102  104 am   BACKBONE|DICT|INTERRES
   205  104  105 1    
   206  104  225 1    
   207  105  106 1    
   208  105  107 1    
   209  105  226 1    
   210  106  227 1    
   211  106  228 1    
   212  106  229 1    
   213  107  108 2    
   214  107  109 am   BACKBONE|DICT|INTERRES
   215  109  110 1    
   216  109  230 1    
   217  110  111 1    
   218  110  112 1    
   219  110  231 1    
   220  111  232 1    
   221  111  233 1    
   222  111  234 1    
   223  112  113 2    
   224  112  114 am   BACKBONE|DICT|INTERRES
   225  114  115 1    
   226  114  235 1    
   227  115  116 1    
   228  115  117 1    
   229  115  236 1    
   230  116  237 1    
   231  116  238 1    
   232  116  239 1    
   233  117  118 2    
   234  117  119 am   BACKBONE|DICT|INTERRES
   235  119  120 1    
   236  119  240 1    
   237  120  121 1    
   238  120  124 1    
   239  120  241 1    
   240  121  122 am   BACKBONE|DICT|INTERRES
   241  121  123 2    
   242  122  242 1    
   243  122  243 1    
   244  124  125 1    
   245  124  244 1    
   246  124  245 1    
   247  125  126 1    
   248  126  246 1    
   249  126  247 1    
@<TRIPOS>SUBSTRUCTURE
     1 UNK         1 GROUP             0       ****    0 ROOT    
