@<TRIPOS>MOLECULE
3R540
247   249    1
SMALL
USER_CHARGES


@<TRIPOS>ATOM
      1 CA         -2.8524  -18.1762  -46.8607 C.3       0 UNK        -0.1800 
      2 C          -4.2679  -17.9216  -47.3604 C.2       0 UNK         0.5000 
      3 O          -4.9797  -18.8841  -47.6399 O.2       0 UNK        -0.5000 
      4 N          -4.7276  -16.6720  -47.5213 N.am      1 UNK        -0.5000 
      5 CA         -4.0854  -15.3800  -47.2341 C.3       1 UNK         0.1400 
      6 C6         -2.7469  -15.1350  -48.0163 C.3       23 UNK        -0.0398 
      7 S7         -1.1773  -15.1846  -47.0682 S.3       23 UNK        -0.2404 
      8 C8          0.0678  -14.8051  -48.3357 C.3       23 UNK        -0.0205 
      9 C9          0.1820  -15.8987  -49.3863 C.ar      23 UNK        -0.0193 
     10 C10        -0.2515  -15.6588  -50.6939 C.ar      23 UNK        -0.1150 
     11 C11        -0.1145  -16.6414  -51.6769 C.ar      23 UNK        -0.0193 
     12 C12         0.4690  -17.8657  -51.3457 C.ar      23 UNK        -0.1150 
     13 C13         0.8816  -18.1301  -50.0378 C.ar      23 UNK        -0.0193 
     14 C14         0.7397  -17.1403  -49.0602 C.ar      23 UNK        -0.1150 
     15 C15         1.5001  -19.4792  -49.7029 C.3       23 UNK        -0.0205 
     16 S16         0.3066  -20.8463  -49.8626 S.3       23 UNK        -0.2404 
     17 C17        -0.7554  -20.6579  -48.3895 C.3       23 UNK        -0.0398 
     18 CA         -0.8003  -21.9689  -47.5590 C.3       11 UNK         0.1400 
     19 N           0.2289  -22.0264  -46.5148 N.am      11 UNK        -0.5000 
     20 C           0.5759  -23.1571  -45.8815 C.2       10 UNK         0.5000 
     21 O           0.0706  -24.2536  -46.1226 O.2       10 UNK        -0.5000 
     22 CA          1.6359  -23.0493  -44.7714 C.3       10 UNK         0.1400 
     23 CB          3.0386  -22.8589  -45.3680 C.3       10 UNK        -0.1800 
     24 N           1.3528  -21.9814  -43.8131 N.am      10 UNK        -0.5000 
     25 C           0.2764  -21.9372  -43.0147 C.2       9 UNK         0.5000 
     26 O          -0.5921  -22.8083  -42.9865 O.2       9 UNK        -0.5000 
     27 CA          0.1101  -20.6813  -42.1380 C.3       9 UNK         0.1400 
     28 CB          1.0072  -20.7492  -40.8934 C.3       9 UNK        -0.1800 
     29 N           0.3749  -19.4438  -42.8713 N.am      9 UNK        -0.5000 
     30 C          -0.3030  -19.0529  -43.9600 C.2       8 UNK         0.5000 
     31 O          -1.2473  -19.6737  -44.4404 O.2       8 UNK        -0.5000 
     32 CA          0.2054  -17.7939  -44.6732 C.3       8 UNK         0.1400 
     33 CB         -0.2761  -16.5319  -43.9462 C.3       8 UNK        -0.1800 
     34 N           1.6632  -17.8004  -44.7922 N.am      8 UNK        -0.5000 
     35 C           2.3376  -18.6850  -45.5418 C.2       7 UNK         0.5000 
     36 O           1.7945  -19.5519  -46.2255 O.2       7 UNK        -0.5000 
     37 CA          3.8729  -18.6274  -45.4756 C.3       7 UNK         0.1400 
     38 CB          4.4200  -17.5555  -46.4291 C.3       7 UNK        -0.1800 
     39 N           4.3625  -18.3885  -44.1164 N.am      7 UNK        -0.5000 
     40 C           4.2336  -19.2709  -43.1148 C.2       6 UNK         0.5000 
     41 O           3.7193  -20.3807  -43.2469 O.2       6 UNK        -0.5000 
     42 CA          4.7239  -18.8300  -41.7240 C.3       6 UNK         0.1400 
     43 CB          6.2186  -19.1408  -41.5566 C.3       6 UNK        -0.1800 
     44 N           4.4873  -17.4144  -41.4268 N.am      6 UNK        -0.5000 
     45 C           3.2851  -16.8224  -41.3831 C.2       5 UNK         0.5000 
     46 O           2.2351  -17.3957  -41.6774 O.2       5 UNK        -0.5000 
     47 CA          3.2506  -15.3414  -40.9631 C.3       5 UNK         0.1400 
     48 CB          4.4456  -14.9222  -40.0833 C.3       5 UNK        -0.1800 
     49 N           3.2250  -14.5034  -42.1593 N.am      5 UNK        -0.5000 
     50 C           2.1199  -13.9878  -42.7089 C.2       4 UNK         0.5000 
     51 O           0.9914  -14.0948  -42.2218 O.2       4 UNK        -0.5000 
     52 CA          2.3140  -13.2225  -44.0276 C.3       4 UNK         0.1400 
     53 CB          2.8773  -14.1254  -45.1421 C.3       4 UNK        -0.1800 
     54 N           1.0339  -12.6703  -44.4556 N.am      4 UNK        -0.5000 
     55 C           0.8654  -11.5605  -45.1810 C.2       3 UNK         0.5000 
     56 O           1.8014  -10.8642  -45.5776 O.2       3 UNK        -0.5000 
     57 CA         -0.5801  -11.1592  -45.5365 C.3       3 UNK         0.1400 
     58 CB         -0.7178  -10.8660  -47.0409 C.3       3 UNK        -0.1800 
     59 N          -1.5569  -12.1935  -45.1825 N.am      3 UNK        -0.5000 
     60 C          -2.4307  -12.1251  -44.1677 C.2       2 UNK         0.5000 
     61 O          -2.4510  -11.2055  -43.3486 O.2       2 UNK        -0.5000 
     62 CA         -3.4749  -13.2576  -44.0846 C.3       2 UNK         0.1400 
     63 CB         -4.7871  -12.8193  -43.4061 C.3       2 UNK        -0.1800 
     64 N          -3.7555  -13.7745  -45.4246 N.am      2 UNK        -0.5000 
     65 C          -4.0506  -15.0442  -45.7221 C.2       1 UNK         0.5000 
     66 O          -4.2706  -15.9094  -44.8715 O.2       1 UNK        -0.5000 
     67 C          -2.2122  -22.2670  -47.0089 C.2       11 UNK         0.5000 
     68 O          -2.9940  -22.9158  -47.7052 O.2       11 UNK        -0.5000 
     69 N          -2.5116  -21.8404  -45.7733 N.am      12 UNK        -0.5000 
     70 CA         -3.7607  -22.1506  -45.0765 C.3       12 UNK         0.1400 
     71 CB         -3.8911  -21.2928  -43.8100 C.3       12 UNK        -0.1800 
     72 C          -3.8824  -23.6473  -44.7429 C.2       12 UNK         0.5000 
     73 O          -4.9261  -24.2407  -45.0178 O.2       12 UNK        -0.5000 
     74 N          -2.8011  -24.2424  -44.2149 N.am      13 UNK        -0.5000 
     75 CA         -2.6889  -25.6748  -43.9154 C.3       13 UNK         0.1400 
     76 CB         -1.3723  -25.9444  -43.1723 C.3       13 UNK        -0.1800 
     77 C          -2.7973  -26.5706  -45.1645 C.2       13 UNK         0.5000 
     78 O          -3.2975  -27.6912  -45.0682 O.2       13 UNK        -0.5000 
     79 N          -2.3872  -26.0377  -46.3223 N.am      14 UNK        -0.5000 
     80 CA         -2.5504  -26.6298  -47.6509 C.3       14 UNK         0.1400 
     81 CB         -1.4409  -26.0857  -48.5659 C.3       14 UNK        -0.1800 
     82 C          -3.9627  -26.4208  -48.2522 C.2       14 UNK         0.5000 
     83 O          -4.1266  -26.5591  -49.4648 O.2       14 UNK        -0.5000 
     84 N          -4.9546  -26.1119  -47.4026 N.am      15 UNK        -0.5000 
     85 CA         -6.3759  -25.9126  -47.6992 C.3       15 UNK         0.1400 
     86 CB         -7.0121  -27.1870  -48.2947 C.3       15 UNK        -0.1800 
     87 C          -6.6302  -24.6450  -48.5358 C.2       15 UNK         0.5000 
     88 O          -7.3496  -24.6937  -49.5353 O.2       15 UNK        -0.5000 
     89 N          -6.0331  -23.5309  -48.0870 N.am      16 UNK        -0.5000 
     90 CA         -6.0917  -22.1898  -48.6806 C.3       16 UNK         0.1400 
     91 CB         -7.5151  -21.6033  -48.5859 C.3       16 UNK        -0.1800 
     92 C          -5.5160  -22.1667  -50.1102 C.2       16 UNK         0.5000 
     93 O          -6.1598  -21.6875  -51.0466 O.2       16 UNK        -0.5000 
     94 N          -4.2925  -22.6960  -50.2434 N.am      17 UNK        -0.5000 
     95 CA         -3.5599  -22.8506  -51.5029 C.3       17 UNK         0.1400 
     96 CB         -2.2901  -23.6735  -51.2500 C.3       17 UNK        -0.1800 
     97 C          -3.2080  -21.5253  -52.2019 C.2       17 UNK         0.5000 
     98 O          -2.9325  -21.5350  -53.4021 O.2       17 UNK        -0.5000 
     99 N          -3.2646  -20.4065  -51.4650 N.am      18 UNK        -0.5000 
    100 CA        -3.0251  -19.0441  -51.9451 C.3       18 UNK         0.1400 
    101 CB        -3.1702  -18.0676  -50.7718 C.3       18 UNK        -0.1800 
    102 C         -3.9251  -18.6075  -53.1185 C.2       18 UNK         0.5000 
    103 O         -3.5271  -17.7396  -53.8950 O.2       18 UNK        -0.5000 
    104 N         -5.0980  -19.2412  -53.2546 N.am      19 UNK        -0.5000 
    105 CA        -6.0138  -19.0702  -54.3822 C.3       19 UNK         0.1400 
    106 CB        -7.3256  -19.8037  -54.0640 C.3       19 UNK        -0.1800 
    107 C         -5.4388  -19.5547  -55.7313 C.2       19 UNK         0.5000 
    108 O         -5.8945  -19.0839  -56.7744 O.2       19 UNK        -0.5000 
    109 N         -4.4659  -20.4766  -55.6929 N.am      20 UNK        -0.5000 
    110 CA        -3.8056  -21.0473  -56.8665 C.3       20 UNK         0.1400 
    111 CB        -3.9902  -22.5729  -56.8478 C.3       20 UNK        -0.1800 
    112 C         -2.3098  -20.6942  -56.9131 C.2       20 UNK         0.5000 
    113 O         -1.7917  -20.4174  -57.9955 O.2       20 UNK        -0.5000 
    114 N         -1.6370  -20.7104  -55.7531 N.am      21 UNK        -0.5000 
    115 CA        -0.1813  -20.5959  -55.6113 C.3       21 UNK         0.1400 
    116 CB         0.1950  -20.8291  -54.1405 C.3       21 UNK        -0.1800 
    117 C          0.4367  -19.2833  -56.1335 C.2       21 UNK         0.5000 
    118 O          1.5931  -19.2975  -56.5578 O.2       21 UNK        -0.5000 
    119 N         -0.3374  -18.1917  -56.1169 N.am      22 UNK        -0.5000 
    120 CA         0.0401  -16.8901  -56.6983 C.3       22 UNK         0.1400 
    121 C         -0.5174  -16.6765  -58.1385 C.2       22 UNK         0.5000 
    122 N         -1.1497  -17.6570  -58.7735 N.am      22 UNK        -0.7600 
    123 O         -0.3581  -15.6000  -58.7078 O.2       22 UNK        -0.5000 
    124 C124       -0.3195  -15.7078  -55.7590 C.3       23 UNK        -0.0398 
    125 S125        0.6246  -15.7361  -54.1947 S.3       23 UNK        -0.2404 
    126 C126       -0.6405  -16.4050  -53.0822 C.3       23 UNK        -0.0205 
    127 H127       -2.1193  -17.9389  -47.6297 H         1 UNK         0.0600 
    128 H128       -2.6307  -17.5979  -45.9668 H         1 UNK         0.0600 
    129 H129       -2.7357  -19.2260  -46.6019 H         1 UNK         0.0600 
    130 H130       -5.6830  -16.5825  -47.8357 H         1 UNK         0.3000 
    131 H131       -4.8032  -14.6684  -47.6460 H         1 UNK         0.0600 
    132 H132       -2.7918  -14.1468  -48.4763 H         1 UNK         0.0800 
    133 H133       -2.6670  -15.8249  -48.8564 H         1 UNK         0.0800 
    134 H134        1.0353  -14.6787  -47.8478 H         1 UNK         0.0800 
    135 H135       -0.1681  -13.8460  -48.7982 H         1 UNK         0.0800 
    136 H136       -0.6965  -14.7073  -50.9490 H         1 UNK         0.1150 
    137 H137        0.5887  -18.6252  -52.1029 H         1 UNK         0.1150 
    138 H138        1.0670  -17.3300  -48.0477 H         1 UNK         0.1150 
    139 H139        2.3263  -19.6620  -50.3911 H         1 UNK         0.0800 
    140 H140        1.9372  -19.4805  -48.7069 H         1 UNK         0.0800 
    141 H141       -1.7436  -20.3841  -48.7623 H         1 UNK         0.0800 
    142 H142       -0.4223  -19.8163  -47.7808 H         1 UNK         0.0800 
    143 H143       -0.5932  -22.7987  -48.2381 H         1 UNK         0.0600 
    144 H144        0.7059  -21.1583  -46.2852 H         1 UNK         0.3000 
    145 H145        1.6316  -23.9924  -44.2210 H         1 UNK         0.0600 
    146 H146        3.8024  -22.8768  -44.5905 H         1 UNK         0.0600 
    147 H147        3.2742  -23.6562  -46.0739 H         1 UNK         0.0600 
    148 H148        3.1269  -21.9121  -45.9007 H         1 UNK         0.0600 
    149 H149        2.0456  -21.2419  -43.7415 H         1 UNK         0.3000 
    150 H150       -0.9289  -20.6469  -41.8040 H         1 UNK         0.0600 
    151 H151        0.7837  -21.6376  -40.3014 H         1 UNK         0.0600 
    152 H152        0.8561  -19.8819  -40.2504 H         1 UNK         0.0600 
    153 H153        2.0635  -20.7892  -41.1572 H         1 UNK         0.0600 
    154 H154        1.1281  -18.8548  -42.5302 H         1 UNK         0.3000 
    155 H155       -0.2082  -17.7848  -45.6832 H         1 UNK         0.0600 
    156 H156        0.0479  -16.5141  -42.9059 H         1 UNK         0.0600 
    157 H157       -1.3655  -16.4769  -43.9481 H         1 UNK         0.0600 
    158 H158        0.0923  -15.6292  -44.4298 H         1 UNK         0.0600 
    159 H159        2.1752  -17.1775  -44.1862 H         1 UNK         0.3000 
    160 H160        4.2538  -19.5960  -45.8065 H         1 UNK         0.0600 
    161 H161        4.0896  -16.5563  -46.1495 H         1 UNK         0.0600 
    162 H162        4.0831  -17.7361  -47.4510 H         1 UNK         0.0600 
    163 H163        5.5100  -17.5581  -46.4419 H         1 UNK         0.0600 
    164 H164        4.8024  -17.5002  -43.9286 H         1 UNK         0.3000 
    165 H165        4.1723  -19.4148  -40.9852 H         1 UNK         0.0600 
    166 H166        6.5546  -18.9293  -40.5413 H         1 UNK         0.0600 
    167 H167        6.4226  -20.1947  -41.7514 H         1 UNK         0.0600 
    168 H168        6.8316  -18.5554  -42.2430 H         1 UNK         0.0600 
    169 H169        5.2985  -16.8690  -41.1748 H         1 UNK         0.3000 
    170 H170        2.3421  -15.1971  -40.3745 H         1 UNK         0.0600 
    171 H171        4.5374  -15.5691  -39.2096 H         1 UNK         0.0600 
    172 H172        5.3920  -14.9516  -40.6244 H         1 UNK         0.0600 
    173 H173        4.3132  -13.9049  -39.7145 H         1 UNK         0.0600 
    174 H174        4.1100  -14.3666  -42.6259 H         1 UNK         0.3000 
    175 H175        3.0146  -12.4083  -43.8308 H         1 UNK         0.0600 
    176 H176        2.2135  -14.9626  -45.3577 H         1 UNK         0.0600 
    177 H177        3.0142  -13.5674  -46.0685 H         1 UNK         0.0600 
    178 H178        3.8512  -14.5317  -44.8697 H         1 UNK         0.0600 
    179 H179        0.2243  -13.1447  -44.0781 H         1 UNK         0.3000 
    180 H180       -0.7927  -10.2355  -44.9947 H         1 UNK         0.0600 
    181 H181       -1.7345  -10.5629  -47.2916 H         1 UNK         0.0600 
    182 H182       -0.4697  -11.7388  -47.6447 H         1 UNK         0.0600 
    183 H183       -0.0562  -10.0551  -47.3479 H         1 UNK         0.0600 
    184 H184       -1.5563  -13.0187  -45.7670 H         1 UNK         0.3000 
    185 H185       -3.0195  -14.0467  -43.4822 H         1 UNK         0.0600 
    186 H186       -5.4943  -13.6464  -43.3431 H         1 UNK         0.0600 
    187 H187       -4.6077  -12.4717  -42.3880 H         1 UNK         0.0600 
    188 H188       -5.2680  -12.0080  -43.9534 H         1 UNK         0.0600 
    189 H189       -3.6337  -13.1075  -46.1743 H         1 UNK         0.3000 
    190 H190       -1.8492  -21.2550  -45.2697 H         1 UNK         0.3000 
    191 H191       -4.5878  -21.8885  -45.7391 H         1 UNK         0.0600 
    192 H192       -4.8159  -21.5184  -43.2777 H         1 UNK         0.0600 
    193 H193       -3.9099  -20.2310  -44.0567 H         1 UNK         0.0600 
    194 H194       -3.0639  -21.4619  -43.1202 H         1 UNK         0.0600 
    195 H195       -1.9894  -23.6739  -43.9863 H         1 UNK         0.3000 
    196 H196       -3.5146  -25.9388  -43.2517 H         1 UNK         0.0600 
    197 H197       -0.5074  -25.6552  -43.7702 H         1 UNK         0.0600 
    198 H198       -1.3300  -25.3923  -42.2334 H         1 UNK         0.0600 
    199 H199       -1.2672  -27.0029  -42.9311 H         1 UNK         0.0600 
    200 H200       -1.9381  -25.1301  -46.2920 H         1 UNK         0.3000 
    201 H201       -2.4069  -27.7088  -47.5676 H         1 UNK         0.0600 
    202 H202       -1.5270  -25.0081  -48.6970 H         1 UNK         0.0600 
    203 H203       -1.4766  -26.5460  -49.5538 H         1 UNK         0.0600 
    204 H204       -0.4538  -26.2910  -48.1512 H         1 UNK         0.0600 
    205 H205       -4.7027  -25.9621  -46.4342 H         1 UNK         0.3000 
    206 H206       -6.8577  -25.7356  -46.7364 H         1 UNK         0.0600 
    207 H207       -6.8220  -28.0546  -47.6629 H         1 UNK         0.0600 
    208 H208       -8.0939  -27.0778  -48.3780 H         1 UNK         0.0600 
    209 H209       -6.6312  -27.4076  -49.2921 H         1 UNK         0.0600 
    210 H210       -5.4243  -23.6258  -47.2845 H         1 UNK         0.3000 
    211 H211       -5.4389  -21.5574  -48.0780 H         1 UNK         0.0600 
    212 H212       -7.5282  -20.5658  -48.9221 H         1 UNK         0.0600 
    213 H213       -7.8777  -21.6148  -47.5582 H         1 UNK         0.0600 
    214 H214       -8.2268  -22.1550  -49.2006 H         1 UNK         0.0600 
    215 H215       -3.8284  -23.0277  -49.4013 H         1 UNK         0.3000 
    216 H216       -4.1978  -23.4112  -52.1889 H         1 UNK         0.0600 
    217 H217       -1.6495  -23.2058  -50.5024 H         1 UNK         0.0600 
    218 H218       -1.7031  -23.7856  -52.1627 H         1 UNK         0.0600 
    219 H219       -2.5414  -24.6756  -50.9048 H         1 UNK         0.0600 
    220 H220       -3.5305  -20.5013  -50.4970 H         1 UNK         0.3000 
    221 H221       -1.9952  -19.0114  -52.2958 H         1 UNK         0.0600 
    222 H222       -2.4320  -18.2736  -49.9974 H         1 UNK         0.0600 
    223 H223       -4.1635  -18.1251  -50.3264 H         1 UNK         0.0600 
    224 H224       -3.0172  -17.0376  -51.0954 H         1 UNK         0.0600 
    225 H225       -5.3497  -19.9427  -52.5702 H         1 UNK         0.3000 
    226 H226       -6.2305  -18.0046  -54.4815 H         1 UNK         0.0600 
    227 H227       -7.1635  -20.8738  -53.9268 H         1 UNK         0.0600 
    228 H228       -7.7841  -19.4160  -53.1540 H         1 UNK         0.0600 
    229 H229       -8.0498  -19.6806  -54.8704 H         1 UNK         0.0600 
    230 H230       -4.1312  -20.7955  -54.7901 H         1 UNK         0.3000 
    231 H231       -4.2554  -20.6669  -57.7858 H         1 UNK         0.0600 
    232 H232       -3.5662  -23.0201  -55.9475 H         1 UNK         0.0600 
    233 H233       -3.5042  -23.0370  -57.7071 H         1 UNK         0.0600 
    234 H234       -5.0461  -22.8405  -56.8880 H         1 UNK         0.0600 
    235 H235       -2.1367  -20.9751  -54.9070 H         1 UNK         0.3000 
    236 H236        0.2609  -21.4030  -56.1988 H         1 UNK         0.0600 
    237 H237       -0.0633  -21.8398  -53.8238 H         1 UNK         0.0600 
    238 H238        1.2658  -20.7010  -53.9763 H         1 UNK         0.0600 
    239 H239       -0.3271  -20.1355  -53.4847 H         1 UNK         0.0600 
    240 H240       -1.2844  -18.2747  -55.7763 H         1 UNK         0.3000 
    241 H241        1.1237  -16.8609  -56.8253 H         1 UNK         0.0600 
    242 H242       -1.4919  -17.4927  -59.7069 H         1 UNK         0.3800 
    243 H243       -1.2670  -18.5760  -58.3586 H         1 UNK         0.3800 
    244 H244       -1.3914  -15.6929  -55.5546 H         1 UNK         0.0800 
    245 H245       -0.0935  -14.7539  -56.2384 H         1 UNK         0.0800 
    246 H246       -0.9921  -17.3458  -53.5010 H         1 UNK         0.0800 
    247 H247       -1.5013  -15.7349  -53.0552 H         1 UNK         0.0800 
@<TRIPOS>BOND
     1    1    2 1    
     2    1  127 1    
     3    1  128 1    
     4    1  129 1    
     5    2    3 2    
     6    2    4 am   BACKBONE|DICT|INTERRES
     7    4    5 1    
     8    4  130 1    
     9    5    6 1    
    10    5   65 1    
    11    5  131 1    
    12    6    7 1    
    13    6  132 1    
    14    6  133 1    
    15    7    8 1    
    16    8    9 1    
    17    8  134 1    
    18    8  135 1    
    19    9   10 ar   
    20    9   14 ar   
    21   10   11 ar   
    22   10  136 1    
    23   11   12 ar   
    24   11  126 1    
    25   12   13 ar   
    26   12  137 1    
    27   13   14 ar   
    28   13   15 1    
    29   14  138 1    
    30   15   16 1    
    31   15  139 1    
    32   15  140 1    
    33   16   17 1    
    34   17   18 1    
    35   17  141 1    
    36   17  142 1    
    37   18   19 1    
    38   18   67 1    
    39   18  143 1    
    40   19   20 am   BACKBONE|DICT|INTERRES
    41   19  144 1    
    42   20   21 2    
    43   20   22 1    
    44   22   23 1    
    45   22   24 1    
    46   22  145 1    
    47   23  146 1    
    48   23  147 1    
    49   23  148 1    
    50   24   25 am   BACKBONE|DICT|INTERRES
    51   24  149 1    
    52   25   26 2    
    53   25   27 1    
    54   27   28 1    
    55   27   29 1    
    56   27  150 1    
    57   28  151 1    
    58   28  152 1    
    59   28  153 1    
    60   29   30 am   BACKBONE|DICT|INTERRES
    61   29  154 1    
    62   30   31 2    
    63   30   32 1    
    64   32   33 1    
    65   32   34 1    
    66   32  155 1    
    67   33  156 1    
    68   33  157 1    
    69   33  158 1    
    70   34   35 am   BACKBONE|DICT|INTERRES
    71   34  159 1    
    72   35   36 2    
    73   35   37 1    
    74   37   38 1    
    75   37   39 1    
    76   37  160 1    
    77   38  161 1    
    78   38  162 1    
    79   38  163 1    
    80   39   40 am   BACKBONE|DICT|INTERRES
    81   39  164 1    
    82   40   41 2    
    83   40   42 1    
    84   42   43 1    
    85   42   44 1    
    86   42  165 1    
    87   43  166 1    
    88   43  167 1    
    89   43  168 1    
    90   44   45 am   BACKBONE|DICT|INTERRES
    91   44  169 1    
    92   45   46 2    
    93   45   47 1    
    94   47   48 1    
    95   47   49 1    
    96   47  170 1    
    97   48  171 1    
    98   48  172 1    
    99   48  173 1    
   100   49   50 am   BACKBONE|DICT|INTERRES
   101   49  174 1    
   102   50   51 2    
   103   50   52 1    
   104   52   53 1    
   105   52   54 1    
   106   52  175 1    
   107   53  176 1    
   108   53  177 1    
   109   53  178 1    
   110   54   55 am   BACKBONE|DICT|INTERRES
   111   54  179 1    
   112   55   56 2    
   113   55   57 1    
   114   57   58 1    
   115   57   59 1    
   116   57  180 1    
   117   58  181 1    
   118   58  182 1    
   119   58  183 1    
   120   59   60 am   BACKBONE|DICT|INTERRES
   121   59  184 1    
   122   60   61 2    
   123   60   62 1    
   124   62   63 1    
   125   62   64 1    
   126   62  185 1    
   127   63  186 1    
   128   63  187 1    
   129   63  188 1    
   130   64   65 am   BACKBONE|DICT|INTERRES
   131   64  189 1    
   132   65   66 2    
   133   67   68 2    
   134   67   69 am   BACKBONE|DICT|INTERRES
   135   69   70 1    
   136   69  190 1    
   137   70   71 1    
   138   70   72 1    
   139   70  191 1    
   140   71  192 1    
   141   71  193 1    
   142   71  194 1    
   143   72   73 2    
   144   72   74 am   BACKBONE|DICT|INTERRES
   145   74   75 1    
   146   74  195 1    
   147   75   76 1    
   148   75   77 1    
   149   75  196 1    
   150   76  197 1    
   151   76  198 1    
   152   76  199 1    
   153   77   78 2    
   154   77   79 am   BACKBONE|DICT|INTERRES
   155   79   80 1    
   156   79  200 1    
   157   80   81 1    
   158   80   82 1    
   159   80  201 1    
   160   81  202 1    
   161   81  203 1    
   162   81  204 1    
   163   82   83 2    
   164   82   84 am   BACKBONE|DICT|INTERRES
   165   84   85 1    
   166   84  205 1    
   167   85   86 1    
   168   85   87 1    
   169   85  206 1    
   170   86  207 1    
   171   86  208 1    
   172   86  209 1    
   173   87   88 2    
   174   87   89 am   BACKBONE|DICT|INTERRES
   175   89   90 1    
   176   89  210 1    
   177   90   91 1    
   178   90   92 1    
   179   90  211 1    
   180   91  212 1    
   181   91  213 1    
   182   91  214 1    
   183   92   93 2    
   184   92   94 am   BACKBONE|DICT|INTERRES
   185   94   95 1    
   186   94  215 1    
   187   95   96 1    
   188   95   97 1    
   189   95  216 1    
   190   96  217 1    
   191   96  218 1    
   192   96  219 1    
   193   97   98 2    
   194   97   99 am   BACKBONE|DICT|INTERRES
   195   99  100 1    
   196   99  220 1    
   197  100  101 1    
   198  100  102 1    
   199  100  221 1    
   200  101  222 1    
   201  101  223 1    
   202  101  224 1    
   203  102  103 2    
   204  102  104 am   BACKBONE|DICT|INTERRES
   205  104  105 1    
   206  104  225 1    
   207  105  106 1    
   208  105  107 1    
   209  105  226 1    
   210  106  227 1    
   211  106  228 1    
   212  106  229 1    
   213  107  108 2    
   214  107  109 am   BACKBONE|DICT|INTERRES
   215  109  110 1    
   216  109  230 1    
   217  110  111 1    
   218  110  112 1    
   219  110  231 1    
   220  111  232 1    
   221  111  233 1    
   222  111  234 1    
   223  112  113 2    
   224  112  114 am   BACKBONE|DICT|INTERRES
   225  114  115 1    
   226  114  235 1    
   227  115  116 1    
   228  115  117 1    
   229  115  236 1    
   230  116  237 1    
   231  116  238 1    
   232  116  239 1    
   233  117  118 2    
   234  117  119 am   BACKBONE|DICT|INTERRES
   235  119  120 1    
   236  119  240 1    
   237  120  121 1    
   238  120  124 1    
   239  120  241 1    
   240  121  122 am   BACKBONE|DICT|INTERRES
   241  121  123 2    
   242  122  242 1    
   243  122  243 1    
   244  124  125 1    
   245  124  244 1    
   246  124  245 1    
   247  125  126 1    
   248  126  246 1    
   249  126  247 1    
@<TRIPOS>SUBSTRUCTURE
     1 UNK         1 GROUP             0       ****    0 ROOT    
