@<TRIPOS>MOLECULE
3R540
247   249    1
SMALL
USER_CHARGES


@<TRIPOS>ATOM
      1 CA          1.8300  -20.9646  -46.6109 C.3       0 UNK        -0.1800 
      2 C           2.4119  -19.8407  -47.4582 C.2       0 UNK         0.5000 
      3 O           3.2083  -20.1112  -48.3555 O.2       0 UNK        -0.5000 
      4 N           2.0375  -18.5853  -47.1651 N.am      1 UNK        -0.5000 
      5 CA          2.5741  -17.3636  -47.7892 C.3       1 UNK         0.1400 
      6 C6          2.1465  -17.2128  -49.2773 C.3       23 UNK        -0.0398 
      7 S7          2.4125  -15.5482  -49.9924 S.3       23 UNK        -0.2404 
      8 C8          1.0200  -14.5689  -49.3441 C.3       23 UNK        -0.0205 
      9 C9         -0.3259  -15.0192  -49.8911 C.ar      23 UNK        -0.0193 
     10 C10        -0.6427  -14.8420  -51.2410 C.ar      23 UNK        -0.1150 
     11 C11        -1.8832  -15.2534  -51.7399 C.ar      23 UNK        -0.0193 
     12 C12        -2.8147  -15.8341  -50.8725 C.ar      23 UNK        -0.1150 
     13 C13        -2.5171  -15.9959  -49.5163 C.ar      23 UNK        -0.0193 
     14 C14        -1.2708  -15.5867  -49.0353 C.ar      23 UNK        -0.1150 
     15 C15        -3.5461  -16.5950  -48.5674 C.3       23 UNK        -0.0205 
     16 S16        -3.5131  -18.4130  -48.5946 S.3       23 UNK        -0.2404 
     17 C17        -1.8703  -18.7476  -47.8687 C.3       23 UNK        -0.0398 
     18 CA         -1.8175  -19.8733  -46.8099 C.3       11 UNK         0.1400 
     19 N          -2.3759  -19.4865  -45.5015 N.am      11 UNK        -0.5000 
     20 C          -3.6403  -19.4688  -45.0547 C.2       10 UNK         0.5000 
     21 O          -4.6205  -19.8167  -45.7108 O.2       10 UNK        -0.5000 
     22 CA         -3.8341  -19.0437  -43.5914 C.3       10 UNK         0.1400 
     23 CB         -3.2968  -20.1227  -42.6373 C.3       10 UNK        -0.1800 
     24 N          -3.2091  -17.7579  -43.2858 N.am      10 UNK        -0.5000 
     25 C          -3.7203  -16.5755  -43.6567 C.2       9 UNK         0.5000 
     26 O          -4.7311  -16.4520  -44.3495 O.2       9 UNK        -0.5000 
     27 CA         -3.0009  -15.3158  -43.1442 C.3       9 UNK         0.1400 
     28 CB         -3.2837  -15.0972  -41.6494 C.3       9 UNK        -0.1800 
     29 N          -1.5583  -15.3581  -43.3695 N.am      9 UNK        -0.5000 
     30 C          -0.9806  -15.2438  -44.5724 C.2       8 UNK         0.5000 
     31 O          -1.6069  -15.0644  -45.6156 O.2       8 UNK        -0.5000 
     32 CA          0.5533  -15.3626  -44.6250 C.3       8 UNK         0.1400 
     33 CB          1.2261  -14.0222  -44.2970 C.3       8 UNK        -0.1800 
     34 N           1.0665  -16.3981  -43.7304 N.am      8 UNK        -0.5000 
     35 C           0.8566  -17.7102  -43.8935 C.2       7 UNK         0.5000 
     36 O           0.2982  -18.1981  -44.8768 O.2       7 UNK        -0.5000 
     37 CA          1.3464  -18.6354  -42.7689 C.3       7 UNK         0.1400 
     38 CB          2.8198  -19.0057  -42.9845 C.3       7 UNK        -0.1800 
     39 N           1.1794  -18.0362  -41.4447 N.am      7 UNK        -0.5000 
     40 C          -0.0055  -17.8290  -40.8533 C.2       6 UNK         0.5000 
     41 O          -1.0850  -18.1318  -41.3602 O.2       6 UNK        -0.5000 
     42 CA          0.0208  -17.1219  -39.4867 C.3       6 UNK         0.1400 
     43 CB          0.3626  -18.1154  -38.3665 C.3       6 UNK        -0.1800 
     44 N           0.9655  -16.0046  -39.4536 N.am      6 UNK        -0.5000 
     45 C           0.8357  -14.8856  -40.1801 C.2       5 UNK         0.5000 
     46 O          -0.1105  -14.6677  -40.9349 O.2       5 UNK        -0.5000 
     47 CA          1.9771  -13.8578  -40.0832 C.3       5 UNK         0.1400 
     48 CB          1.7442  -12.9029  -38.9030 C.3       5 UNK        -0.1800 
     49 N           3.3068  -14.4631  -39.9648 N.am      5 UNK        -0.5000 
     50 C           3.8639  -15.2649  -40.8816 C.2       4 UNK         0.5000 
     51 O           3.2838  -15.6521  -41.8987 O.2       4 UNK        -0.5000 
     52 CA          5.2958  -15.7479  -40.5940 C.3       4 UNK         0.1400 
     53 CB          5.2881  -17.2206  -40.1554 C.3       4 UNK        -0.1800 
     54 N           6.1457  -15.6033  -41.7738 N.am      4 UNK        -0.5000 
     55 C           6.5560  -14.4329  -42.2833 C.2       3 UNK         0.5000 
     56 O           6.3410  -13.3439  -41.7489 O.2       3 UNK        -0.5000 
     57 CA          7.3456  -14.4810  -43.6088 C.3       3 UNK         0.1400 
     58 CB          8.8549  -14.3793  -43.3388 C.3       3 UNK        -0.1800 
     59 N           7.0851  -15.6847  -44.4049 N.am      3 UNK        -0.5000 
     60 C           5.9237  -15.9524  -45.0161 C.2       2 UNK         0.5000 
     61 O           4.9612  -15.1808  -45.0107 O.2       2 UNK        -0.5000 
     62 CA          5.8292  -17.3130  -45.7343 C.3       2 UNK         0.1400 
     63 CB          6.1513  -18.4803  -44.7828 C.3       2 UNK        -0.1800 
     64 N           4.4827  -17.5076  -46.2670 N.am      2 UNK        -0.5000 
     65 C           4.0939  -17.2122  -47.5140 C.2       1 UNK         0.5000 
     66 O           4.8740  -16.8596  -48.4002 O.2       1 UNK        -0.5000 
     67 C          -2.1896  -21.2580  -47.3957 C.2       11 UNK         0.5000 
     68 O          -1.4894  -21.7198  -48.2978 O.2       11 UNK        -0.5000 
     69 N          -3.2363  -21.9092  -46.8751 N.am      12 UNK        -0.5000 
     70 CA         -3.8622  -23.1557  -47.3262 C.3       12 UNK         0.1400 
     71 CB         -4.9111  -23.5686  -46.2825 C.3       12 UNK        -0.1800 
     72 C          -2.9153  -24.3346  -47.6170 C.2       12 UNK         0.5000 
     73 O          -3.2250  -25.1438  -48.4923 O.2       12 UNK        -0.5000 
     74 N          -1.7852  -24.4020  -46.9016 N.am      13 UNK        -0.5000 
     75 CA         -0.7331  -25.4020  -47.0909 C.3       13 UNK         0.1400 
     76 CB          0.2699  -25.2948  -45.9320 C.3       13 UNK        -0.1800 
     77 C          -0.0031  -25.2789  -48.4438 C.2       13 UNK         0.5000 
     78 O           0.4214  -26.2962  -48.9926 O.2       13 UNK        -0.5000 
     79 N           0.1236  -24.0471  -48.9543 N.am      14 UNK        -0.5000 
     80 CA          0.7364  -23.7375  -50.2470 C.3       14 UNK         0.1400 
     81 CB          1.6538  -22.5170  -50.0885 C.3       14 UNK        -0.1800 
     82 C          -0.3338  -23.4577  -51.3131 C.2       14 UNK         0.5000 
     83 O          -0.1558  -23.8378  -52.4700 O.2       14 UNK        -0.5000 
     84 N          -1.4350  -22.8161  -50.9007 N.am      15 UNK        -0.5000 
     85 CA         -2.5589  -22.4197  -51.7483 C.3       15 UNK         0.1400 
     86 CB         -3.2726  -21.2307  -51.0860 C.3       15 UNK        -0.1800 
     87 C          -3.5497  -23.5615  -52.0521 C.2       15 UNK         0.5000 
     88 O          -4.5920  -23.2933  -52.6479 O.2       15 UNK        -0.5000 
     89 N          -3.2388  -24.7956  -51.6278 N.am      16 UNK        -0.5000 
     90 CA         -3.9862  -26.0356  -51.8690 C.3       16 UNK         0.1400 
     91 CB         -3.9077  -26.4215  -53.3613 C.3       16 UNK        -0.1800 
     92 C          -5.4354  -25.9513  -51.3529 C.2       16 UNK         0.5000 
     93 O          -6.3820  -26.0605  -52.1326 O.2       16 UNK        -0.5000 
     94 N          -5.5762  -25.6774  -50.0482 N.am      17 UNK        -0.5000 
     95 CA         -6.8426  -25.4241  -49.3440 C.3       17 UNK         0.1400 
     96 CB         -7.7284  -26.6875  -49.3201 C.3       17 UNK        -0.1800 
     97 C          -7.5842  -24.1752  -49.8738 C.2       17 UNK         0.5000 
     98 O          -8.8139  -24.1195  -49.8369 O.2       17 UNK        -0.5000 
     99 N          -6.8006  -23.2058  -50.3682 N.am      18 UNK        -0.5000 
    100 CA        -7.1964  -21.9477  -51.0075 C.3       18 UNK         0.1400 
    101 CB        -8.0439  -21.0708  -50.0634 C.3       18 UNK        -0.1800 
    102 C         -7.8300  -22.1135  -52.4062 C.2       18 UNK         0.5000 
    103 O         -8.3671  -21.1414  -52.9392 O.2       18 UNK        -0.5000 
    104 N         -7.7280  -23.3085  -53.0080 N.am      19 UNK        -0.5000 
    105 CA        -8.1737  -23.5768  -54.3782 C.3       19 UNK         0.1400 
    106 CB        -8.3353  -25.0912  -54.5755 C.3       19 UNK        -0.1800 
    107 C         -7.2161  -22.9988  -55.4392 C.2       19 UNK         0.5000 
    108 O         -7.6479  -22.7329  -56.5614 O.2       19 UNK        -0.5000 
    109 N         -5.9449  -22.8089  -55.0671 N.am      20 UNK        -0.5000 
    110 CA        -4.8736  -22.2620  -55.8929 C.3       20 UNK         0.1400 
    111 CB        -3.8474  -23.3737  -56.1791 C.3       20 UNK        -0.1800 
    112 C         -4.2495  -21.0432  -55.1889 C.2       20 UNK         0.5000 
    113 O         -3.0253  -20.9025  -55.1560 O.2       20 UNK        -0.5000 
    114 N         -5.1022  -20.1745  -54.6270 N.am      21 UNK        -0.5000 
    115 CA        -4.7317  -18.9338  -53.9411 C.3       21 UNK         0.1400 
    116 CB        -5.8942  -18.4983  -53.0314 C.3       21 UNK        -0.1800 
    117 C         -4.3010  -17.8298  -54.9297 C.2       21 UNK         0.5000 
    118 O         -4.9899  -16.8193  -55.0780 O.2       21 UNK        -0.5000 
    119 N         -3.1638  -18.0630  -55.5934 N.am      22 UNK        -0.5000 
    120 CA        -2.4742  -17.1605  -56.5342 C.3       22 UNK         0.1400 
    121 C         -3.1868  -16.9665  -57.9079 C.2       22 UNK         0.5000 
    122 N         -4.2057  -17.7472  -58.2458 N.am      22 UNK        -0.7600 
    123 O         -2.7907  -16.1152  -58.6998 O.2       22 UNK        -0.5000 
    124 C124       -2.0460  -15.8052  -55.8995 C.3       23 UNK        -0.0398 
    125 S125       -1.1517  -15.9977  -54.3163 S.3       23 UNK        -0.2404 
    126 C126       -2.2316  -15.0410  -53.2055 C.3       23 UNK        -0.0205 
    127 H127        1.1012  -21.5338  -47.1866 H         1 UNK         0.0600 
    128 H128        1.3464  -20.5883  -45.7101 H         1 UNK         0.0600 
    129 H129        2.6220  -21.6466  -46.3015 H         1 UNK         0.0600 
    130 H130        1.3704  -18.4350  -46.4122 H         1 UNK         0.3000 
    131 H131        2.1095  -16.5423  -47.2469 H         1 UNK         0.0600 
    132 H132        1.0904  -17.4620  -49.3856 H         1 UNK         0.0800 
    133 H133        2.6825  -17.9335  -49.8965 H         1 UNK         0.0800 
    134 H134        1.1751  -13.5239  -49.6162 H         1 UNK         0.0800 
    135 H135        1.0306  -14.5998  -48.2538 H         1 UNK         0.0800 
    136 H136        0.0800  -14.3899  -51.9060 H         1 UNK         0.1150 
    137 H137       -3.7781  -16.1506  -51.2470 H         1 UNK         0.1150 
    138 H138       -1.0352  -15.7030  -47.9887 H         1 UNK         0.1150 
    139 H139       -3.3826  -16.2425  -47.5471 H         1 UNK         0.0800 
    140 H140       -4.5443  -16.2567  -48.8485 H         1 UNK         0.0800 
    141 H141       -1.4861  -17.8397  -47.4058 H         1 UNK         0.0800 
    142 H142       -1.1844  -18.9686  -48.6886 H         1 UNK         0.0800 
    143 H143       -0.7611  -19.9880  -46.5793 H         1 UNK         0.0600 
    144 H144       -1.6703  -19.1468  -44.8597 H         1 UNK         0.3000 
    145 H145       -4.9078  -18.9530  -43.4122 H         1 UNK         0.0600 
    146 H146       -3.5020  -19.8649  -41.5981 H         1 UNK         0.0600 
    147 H147       -3.7679  -21.0870  -42.8321 H         1 UNK         0.0600 
    148 H148       -2.2192  -20.2568  -42.7392 H         1 UNK         0.0600 
    149 H149       -2.3896  -17.7801  -42.6836 H         1 UNK         0.3000 
    150 H150       -3.4043  -14.4587  -43.6879 H         1 UNK         0.0600 
    151 H151       -4.3562  -15.0671  -41.4537 H         1 UNK         0.0600 
    152 H152       -2.8642  -14.1518  -41.3048 H         1 UNK         0.0600 
    153 H153       -2.8589  -15.8931  -41.0367 H         1 UNK         0.0600 
    154 H154       -0.9702  -15.4271  -42.5451 H         1 UNK         0.3000 
    155 H155        0.8222  -15.6314  -45.6462 H         1 UNK         0.0600 
    156 H156        0.9904  -13.6897  -43.2862 H         1 UNK         0.0600 
    157 H157        0.8979  -13.2423  -44.9851 H         1 UNK         0.0600 
    158 H158        2.3109  -14.0962  -44.3798 H         1 UNK         0.0600 
    159 H159        1.6119  -16.0867  -42.9325 H         1 UNK         0.3000 
    160 H160        0.7532  -19.5515  -42.8085 H         1 UNK         0.0600 
    161 H161        3.1705  -19.6962  -42.2173 H         1 UNK         0.0600 
    162 H162        3.4573  -18.1225  -42.9583 H         1 UNK         0.0600 
    163 H163        2.9669  -19.4915  -43.9499 H         1 UNK         0.0600 
    164 H164        2.0147  -17.7016  -40.9882 H         1 UNK         0.3000 
    165 H165       -0.9795  -16.7260  -39.2982 H         1 UNK         0.0600 
    166 H166        0.3042  -17.6400  -37.3872 H         1 UNK         0.0600 
    167 H167       -0.3363  -18.9530  -38.3619 H         1 UNK         0.0600 
    168 H168        1.3666  -18.5259  -38.4813 H         1 UNK         0.0600 
    169 H169        1.7753  -16.1031  -38.8595 H         1 UNK         0.3000 
    170 H170        1.9653  -13.2694  -41.0029 H         1 UNK         0.0600 
    171 H171        0.7675  -12.4224  -38.9766 H         1 UNK         0.0600 
    172 H172        1.7815  -13.4262  -37.9468 H         1 UNK         0.0600 
    173 H173        2.4929  -12.1107  -38.8825 H         1 UNK         0.0600 
    174 H174        3.8467  -14.2000  -39.1529 H         1 UNK         0.3000 
    175 H175        5.7226  -15.1488  -39.7868 H         1 UNK         0.0600 
    176 H176        4.9012  -17.8744  -40.9376 H         1 UNK         0.0600 
    177 H177        6.2925  -17.5608  -39.9025 H         1 UNK         0.0600 
    178 H178        4.6659  -17.3625  -39.2709 H         1 UNK         0.0600 
    179 H179        6.3449  -16.4439  -42.2933 H         1 UNK         0.3000 
    180 H180        7.0458  -13.6119  -44.1984 H         1 UNK         0.0600 
    181 H181        9.2196  -15.2318  -42.7644 H         1 UNK         0.0600 
    182 H182        9.0908  -13.4772  -42.7726 H         1 UNK         0.0600 
    183 H183        9.4205  -14.3332  -44.2696 H         1 UNK         0.0600 
    184 H184        7.8379  -16.3553  -44.4622 H         1 UNK         0.3000 
    185 H185        6.5585  -17.3189  -46.5469 H         1 UNK         0.0600 
    186 H186        7.2031  -18.4779  -44.4954 H         1 UNK         0.0600 
    187 H187        5.5640  -18.4350  -43.8666 H         1 UNK         0.0600 
    188 H188        5.9552  -19.4418  -45.2581 H         1 UNK         0.0600 
    189 H189        3.7739  -17.7551  -45.5947 H         1 UNK         0.3000 
    190 H190       -3.7848  -21.3702  -46.2110 H         1 UNK         0.3000 
    191 H191       -4.3818  -22.9322  -48.2591 H         1 UNK         0.0600 
    192 H192       -5.3523  -24.5375  -46.5143 H         1 UNK         0.0600 
    193 H193       -5.7234  -22.8429  -46.2336 H         1 UNK         0.0600 
    194 H194       -4.4725  -23.6464  -45.2868 H         1 UNK         0.0600 
    195 H195       -1.6202  -23.6928  -46.2031 H         1 UNK         0.3000 
    196 H196       -1.1964  -26.3902  -47.0540 H         1 UNK         0.0600 
    197 H197        1.0574  -26.0437  -46.0263 H         1 UNK         0.0600 
    198 H198       -0.2183  -25.4581  -44.9710 H         1 UNK         0.0600 
    199 H199        0.7498  -24.3156  -45.9039 H         1 UNK         0.0600 
    200 H200       -0.3083  -23.2709  -48.4640 H         1 UNK         0.3000 
    201 H201        1.3459  -24.5752  -50.5923 H         1 UNK         0.0600 
    202 H202        2.4351  -22.7054  -49.3521 H         1 UNK         0.0600 
    203 H203        1.0992  -21.6331  -49.7705 H         1 UNK         0.0600 
    204 H204        2.1472  -22.2727  -51.0300 H         1 UNK         0.0600 
    205 H205       -1.4789  -22.5034  -49.9339 H         1 UNK         0.3000 
    206 H206       -2.1657  -22.0805  -52.7088 H         1 UNK         0.0600 
    207 H207       -2.5810  -20.4079  -50.9035 H         1 UNK         0.0600 
    208 H208       -4.0662  -20.8453  -51.7239 H         1 UNK         0.0600 
    209 H209       -3.7229  -21.5069  -50.1330 H         1 UNK         0.0600 
    210 H210       -2.3907  -24.8965  -51.0891 H         1 UNK         0.3000 
    211 H211       -3.4917  -26.8197  -51.2938 H         1 UNK         0.0600 
    212 H212       -2.8728  -26.4965  -53.6950 H         1 UNK         0.0600 
    213 H213       -4.4120  -25.6932  -53.9975 H         1 UNK         0.0600 
    214 H214       -4.3782  -27.3892  -53.5383 H         1 UNK         0.0600 
    215 H215       -4.7290  -25.5786  -49.4909 H         1 UNK         0.3000 
    216 H216       -6.5779  -25.1981  -48.3124 H         1 UNK         0.0600 
    217 H217       -8.5894  -26.5480  -48.6656 H         1 UNK         0.0600 
    218 H218       -7.1754  -27.5494  -48.9469 H         1 UNK         0.0600 
    219 H219       -8.1106  -26.9365  -50.3104 H         1 UNK         0.0600 
    220 H220       -5.8117  -23.4038  -50.4071 H         1 UNK         0.3000 
    221 H221       -6.2640  -21.4124  -51.1802 H         1 UNK         0.0600 
    222 H222       -9.0388  -21.4868  -49.9043 H         1 UNK         0.0600 
    223 H223       -7.5641  -20.9601  -49.0909 H         1 UNK         0.0600 
    224 H224       -8.1741  -20.0688  -50.4740 H         1 UNK         0.0600 
    225 H225       -7.2473  -24.0637  -52.5328 H         1 UNK         0.3000 
    226 H226       -9.1515  -23.1120  -54.5214 H         1 UNK         0.0600 
    227 H227       -8.7808  -25.3109  -55.5464 H         1 UNK         0.0600 
    228 H228       -7.3751  -25.6064  -54.5347 H         1 UNK         0.0600 
    229 H229       -8.9829  -25.5247  -53.8131 H         1 UNK         0.0600 
    230 H230       -5.6703  -23.0388  -54.1130 H         1 UNK         0.3000 
    231 H231       -5.2670  -21.9055  -56.8467 H         1 UNK         0.0600 
    232 H232       -4.3186  -24.2293  -56.6630 H         1 UNK         0.0600 
    233 H233       -3.3729  -23.7274  -55.2630 H         1 UNK         0.0600 
    234 H234       -3.0587  -23.0187  -56.8433 H         1 UNK         0.0600 
    235 H235       -6.0916  -20.3632  -54.7035 H         1 UNK         0.3000 
    236 H236       -3.8707  -19.1306  -53.2995 H         1 UNK         0.0600 
    237 H237       -6.1078  -19.2528  -52.2755 H         1 UNK         0.0600 
    238 H238       -5.6535  -17.5747  -52.5035 H         1 UNK         0.0600 
    239 H239       -6.8091  -18.3259  -53.5994 H         1 UNK         0.0600 
    240 H240       -2.7195  -18.9636  -55.4433 H         1 UNK         0.3000 
    241 H241       -1.5537  -17.6874  -56.7875 H         1 UNK         0.0600 
    242 H242       -4.5458  -18.4467  -57.6069 H         1 UNK         0.3800 
    243 H243       -4.6529  -17.6212  -59.1404 H         1 UNK         0.3800 
    244 H244       -1.3859  -15.2643  -56.5794 H         1 UNK         0.0800 
    245 H245       -2.9167  -15.1629  -55.7600 H         1 UNK         0.0800 
    246 H246       -3.2713  -15.3164  -53.3882 H         1 UNK         0.0800 
    247 H247       -2.1457  -13.9804  -53.4458 H         1 UNK         0.0800 
@<TRIPOS>BOND
     1    1    2 1    
     2    1  127 1    
     3    1  128 1    
     4    1  129 1    
     5    2    3 2    
     6    2    4 am   BACKBONE|DICT|INTERRES
     7    4    5 1    
     8    4  130 1    
     9    5    6 1    
    10    5   65 1    
    11    5  131 1    
    12    6    7 1    
    13    6  132 1    
    14    6  133 1    
    15    7    8 1    
    16    8    9 1    
    17    8  134 1    
    18    8  135 1    
    19    9   10 ar   
    20    9   14 ar   
    21   10   11 ar   
    22   10  136 1    
    23   11   12 ar   
    24   11  126 1    
    25   12   13 ar   
    26   12  137 1    
    27   13   14 ar   
    28   13   15 1    
    29   14  138 1    
    30   15   16 1    
    31   15  139 1    
    32   15  140 1    
    33   16   17 1    
    34   17   18 1    
    35   17  141 1    
    36   17  142 1    
    37   18   19 1    
    38   18   67 1    
    39   18  143 1    
    40   19   20 am   BACKBONE|DICT|INTERRES
    41   19  144 1    
    42   20   21 2    
    43   20   22 1    
    44   22   23 1    
    45   22   24 1    
    46   22  145 1    
    47   23  146 1    
    48   23  147 1    
    49   23  148 1    
    50   24   25 am   BACKBONE|DICT|INTERRES
    51   24  149 1    
    52   25   26 2    
    53   25   27 1    
    54   27   28 1    
    55   27   29 1    
    56   27  150 1    
    57   28  151 1    
    58   28  152 1    
    59   28  153 1    
    60   29   30 am   BACKBONE|DICT|INTERRES
    61   29  154 1    
    62   30   31 2    
    63   30   32 1    
    64   32   33 1    
    65   32   34 1    
    66   32  155 1    
    67   33  156 1    
    68   33  157 1    
    69   33  158 1    
    70   34   35 am   BACKBONE|DICT|INTERRES
    71   34  159 1    
    72   35   36 2    
    73   35   37 1    
    74   37   38 1    
    75   37   39 1    
    76   37  160 1    
    77   38  161 1    
    78   38  162 1    
    79   38  163 1    
    80   39   40 am   BACKBONE|DICT|INTERRES
    81   39  164 1    
    82   40   41 2    
    83   40   42 1    
    84   42   43 1    
    85   42   44 1    
    86   42  165 1    
    87   43  166 1    
    88   43  167 1    
    89   43  168 1    
    90   44   45 am   BACKBONE|DICT|INTERRES
    91   44  169 1    
    92   45   46 2    
    93   45   47 1    
    94   47   48 1    
    95   47   49 1    
    96   47  170 1    
    97   48  171 1    
    98   48  172 1    
    99   48  173 1    
   100   49   50 am   BACKBONE|DICT|INTERRES
   101   49  174 1    
   102   50   51 2    
   103   50   52 1    
   104   52   53 1    
   105   52   54 1    
   106   52  175 1    
   107   53  176 1    
   108   53  177 1    
   109   53  178 1    
   110   54   55 am   BACKBONE|DICT|INTERRES
   111   54  179 1    
   112   55   56 2    
   113   55   57 1    
   114   57   58 1    
   115   57   59 1    
   116   57  180 1    
   117   58  181 1    
   118   58  182 1    
   119   58  183 1    
   120   59   60 am   BACKBONE|DICT|INTERRES
   121   59  184 1    
   122   60   61 2    
   123   60   62 1    
   124   62   63 1    
   125   62   64 1    
   126   62  185 1    
   127   63  186 1    
   128   63  187 1    
   129   63  188 1    
   130   64   65 am   BACKBONE|DICT|INTERRES
   131   64  189 1    
   132   65   66 2    
   133   67   68 2    
   134   67   69 am   BACKBONE|DICT|INTERRES
   135   69   70 1    
   136   69  190 1    
   137   70   71 1    
   138   70   72 1    
   139   70  191 1    
   140   71  192 1    
   141   71  193 1    
   142   71  194 1    
   143   72   73 2    
   144   72   74 am   BACKBONE|DICT|INTERRES
   145   74   75 1    
   146   74  195 1    
   147   75   76 1    
   148   75   77 1    
   149   75  196 1    
   150   76  197 1    
   151   76  198 1    
   152   76  199 1    
   153   77   78 2    
   154   77   79 am   BACKBONE|DICT|INTERRES
   155   79   80 1    
   156   79  200 1    
   157   80   81 1    
   158   80   82 1    
   159   80  201 1    
   160   81  202 1    
   161   81  203 1    
   162   81  204 1    
   163   82   83 2    
   164   82   84 am   BACKBONE|DICT|INTERRES
   165   84   85 1    
   166   84  205 1    
   167   85   86 1    
   168   85   87 1    
   169   85  206 1    
   170   86  207 1    
   171   86  208 1    
   172   86  209 1    
   173   87   88 2    
   174   87   89 am   BACKBONE|DICT|INTERRES
   175   89   90 1    
   176   89  210 1    
   177   90   91 1    
   178   90   92 1    
   179   90  211 1    
   180   91  212 1    
   181   91  213 1    
   182   91  214 1    
   183   92   93 2    
   184   92   94 am   BACKBONE|DICT|INTERRES
   185   94   95 1    
   186   94  215 1    
   187   95   96 1    
   188   95   97 1    
   189   95  216 1    
   190   96  217 1    
   191   96  218 1    
   192   96  219 1    
   193   97   98 2    
   194   97   99 am   BACKBONE|DICT|INTERRES
   195   99  100 1    
   196   99  220 1    
   197  100  101 1    
   198  100  102 1    
   199  100  221 1    
   200  101  222 1    
   201  101  223 1    
   202  101  224 1    
   203  102  103 2    
   204  102  104 am   BACKBONE|DICT|INTERRES
   205  104  105 1    
   206  104  225 1    
   207  105  106 1    
   208  105  107 1    
   209  105  226 1    
   210  106  227 1    
   211  106  228 1    
   212  106  229 1    
   213  107  108 2    
   214  107  109 am   BACKBONE|DICT|INTERRES
   215  109  110 1    
   216  109  230 1    
   217  110  111 1    
   218  110  112 1    
   219  110  231 1    
   220  111  232 1    
   221  111  233 1    
   222  111  234 1    
   223  112  113 2    
   224  112  114 am   BACKBONE|DICT|INTERRES
   225  114  115 1    
   226  114  235 1    
   227  115  116 1    
   228  115  117 1    
   229  115  236 1    
   230  116  237 1    
   231  116  238 1    
   232  116  239 1    
   233  117  118 2    
   234  117  119 am   BACKBONE|DICT|INTERRES
   235  119  120 1    
   236  119  240 1    
   237  120  121 1    
   238  120  124 1    
   239  120  241 1    
   240  121  122 am   BACKBONE|DICT|INTERRES
   241  121  123 2    
   242  122  242 1    
   243  122  243 1    
   244  124  125 1    
   245  124  244 1    
   246  124  245 1    
   247  125  126 1    
   248  126  246 1    
   249  126  247 1    
@<TRIPOS>SUBSTRUCTURE
     1 UNK         1 GROUP             0       ****    0 ROOT    
