@<TRIPOS>MOLECULE
3R540
247   249    1
SMALL
USER_CHARGES


@<TRIPOS>ATOM
      1 CA         -3.5403  -17.0256  -46.8804 C.3       0 UNK        -0.1800 
      2 C          -2.3019  -16.6639  -47.6881 C.2       0 UNK         0.5000 
      3 O          -2.0157  -17.3142  -48.6899 O.2       0 UNK        -0.5000 
      4 N          -1.5711  -15.6339  -47.2483 N.am      1 UNK        -0.5000 
      5 CA         -0.3433  -15.1295  -47.8679 C.3       1 UNK         0.1400 
      6 C6          0.8773  -16.0549  -47.6017 C.3       23 UNK        -0.0398 
      7 S7          2.3674  -15.7268  -48.6108 S.3       23 UNK        -0.2404 
      8 C8          1.7839  -15.8894  -50.3349 C.3       23 UNK        -0.0205 
      9 C9          1.1354  -17.2316  -50.6585 C.ar      23 UNK        -0.0193 
     10 C10        -0.0460  -17.2707  -51.4060 C.ar      23 UNK        -0.1150 
     11 C11        -0.6355  -18.4926  -51.7442 C.ar      23 UNK        -0.0193 
     12 C12        -0.0496  -19.6835  -51.3070 C.ar      23 UNK        -0.1150 
     13 C13         1.1278  -19.6598  -50.5559 C.ar      23 UNK        -0.0193 
     14 C14         1.7249  -18.4330  -50.2523 C.ar      23 UNK        -0.1150 
     15 C15         1.7680  -20.9569  -50.0864 C.3       23 UNK        -0.0205 
     16 S16         1.8317  -21.0665  -48.2710 S.3       23 UNK        -0.2404 
     17 C17         0.0727  -21.2635  -47.8148 C.3       23 UNK        -0.0398 
     18 CA         -0.1237  -22.4925  -46.8968 C.3       11 UNK         0.1400 
     19 N           0.5546  -22.3462  -45.6083 N.am      11 UNK        -0.5000 
     20 C           0.8020  -23.3533  -44.7626 C.2       10 UNK         0.5000 
     21 O           0.4735  -24.5199  -44.9789 O.2       10 UNK        -0.5000 
     22 CA          1.4914  -22.9878  -43.4361 C.3       10 UNK         0.1400 
     23 CB          2.9912  -22.7309  -43.6461 C.3       10 UNK        -0.1800 
     24 N           0.8789  -21.8278  -42.7872 N.am      10 UNK        -0.5000 
     25 C          -0.3762  -21.8025  -42.3166 C.2       9 UNK         0.5000 
     26 O          -1.1457  -22.7628  -42.3674 O.2       9 UNK        -0.5000 
     27 CA         -0.8677  -20.4700  -41.7228 C.3       9 UNK         0.1400 
     28 CB         -0.3195  -20.2709  -40.3020 C.3       9 UNK        -0.1800 
     29 N          -0.5149  -19.3153  -42.5483 N.am      9 UNK        -0.5000 
     30 C          -0.9449  -19.1173  -43.8026 C.2       8 UNK         0.5000 
     31 O          -1.7114  -19.8731  -44.3946 O.2       8 UNK        -0.5000 
     32 CA         -0.3796  -17.8979  -44.5456 C.3       8 UNK         0.1400 
     33 CB         -1.0620  -16.6078  -44.0669 C.3       8 UNK        -0.1800 
     34 N           1.0693  -17.7739  -44.4030 N.am      8 UNK        -0.5000 
     35 C           1.9629  -18.7094  -44.7533 C.2       7 UNK         0.5000 
     36 O           1.6622  -19.7936  -45.2443 O.2       7 UNK        -0.5000 
     37 CA          3.4361  -18.4080  -44.4442 C.3       7 UNK         0.1400 
     38 CB          4.0446  -17.4851  -45.5107 C.3       7 UNK        -0.1800 
     39 N           3.5885  -17.8139  -43.1173 N.am      7 UNK        -0.5000 
     40 C           3.3903  -18.4779  -41.9693 C.2       6 UNK         0.5000 
     41 O           3.1177  -19.6778  -41.9078 O.2       6 UNK        -0.5000 
     42 CA          3.4691  -17.6455  -40.6765 C.3       6 UNK         0.1400 
     43 CB          4.9300  -17.4337  -40.2519 C.3       6 UNK        -0.1800 
     44 N           2.8052  -16.3463  -40.8058 N.am      6 UNK        -0.5000 
     45 C           1.4826  -16.1908  -40.9577 C.2       5 UNK         0.5000 
     46 O           0.6843  -17.1276  -40.9786 O.2       5 UNK        -0.5000 
     47 CA          0.9660  -14.7518  -41.1518 C.3       5 UNK         0.1400 
     48 CB          0.7289  -14.0786  -39.7920 C.3       5 UNK        -0.1800 
     49 N           1.8290  -13.8933  -41.9692 N.am      5 UNK        -0.5000 
     50 C           2.2390  -14.1508  -43.2180 C.2       4 UNK         0.5000 
     51 O           2.0015  -15.2027  -43.8103 O.2       4 UNK        -0.5000 
     52 CA          3.0158  -13.0252  -43.9235 C.3       4 UNK         0.1400 
     53 CB          3.8170  -13.5300  -45.1368 C.3       4 UNK        -0.1800 
     54 N           2.0992  -11.9684  -44.3520 N.am      4 UNK        -0.5000 
     55 C           1.6138  -11.0128  -43.5455 C.2       3 UNK         0.5000 
     56 O           1.9139  -10.9253  -42.3531 O.2       3 UNK        -0.5000 
     57 CA          0.6489   -9.9705  -44.1463 C.3       3 UNK         0.1400 
     58 CB          1.3506   -8.6098  -44.2836 C.3       3 UNK        -0.1800 
     59 N           0.1000  -10.3438  -45.4502 N.am      3 UNK        -0.5000 
     60 C          -0.8825  -11.2315  -45.6485 C.2       2 UNK         0.5000 
     61 O          -1.4323  -11.8546  -44.7385 O.2       2 UNK        -0.5000 
     62 CA         -1.3363  -11.4720  -47.1069 C.3       2 UNK         0.1400 
     63 CB         -0.6133  -10.5921  -48.1529 C.3       2 UNK        -0.1800 
     64 N          -1.2440  -12.8853  -47.4871 N.am      2 UNK        -0.5000 
     65 C          -0.1501  -13.6620  -47.4286 C.2       1 UNK         0.5000 
     66 O           0.9412  -13.2604  -47.0238 O.2       1 UNK        -0.5000 
     67 C          -1.6120  -22.8533  -46.7276 C.2       11 UNK         0.5000 
     68 O          -2.1369  -23.5897  -47.5610 O.2       11 UNK        -0.5000 
     69 N          -2.2679  -22.3770  -45.6596 N.am      12 UNK        -0.5000 
     70 CA         -3.6298  -22.7709  -45.2936 C.3       12 UNK         0.1400 
     71 CB         -4.1907  -21.8281  -44.2196 C.3       12 UNK        -0.1800 
     72 C          -3.7077  -24.2363  -44.8368 C.2       12 UNK         0.5000 
     73 O          -4.6058  -24.9537  -45.2766 O.2       12 UNK        -0.5000 
     74 N          -2.7443  -24.6709  -44.0110 N.am      13 UNK        -0.5000 
     75 CA         -2.6081  -26.0574  -43.5547 C.3       13 UNK         0.1400 
     76 CB         -1.5252  -26.1384  -42.4683 C.3       13 UNK        -0.1800 
     77 C          -2.3095  -27.0400  -44.7044 C.2       13 UNK         0.5000 
     78 O          -2.8406  -28.1509  -44.7104 O.2       13 UNK        -0.5000 
     79 N          -1.4986  -26.5973  -45.6746 N.am      14 UNK        -0.5000 
     80 CA         -1.1860  -27.3255  -46.9063 C.3       14 UNK         0.1400 
     81 CB          0.0920  -26.7263  -47.5152 C.3       14 UNK        -0.1800 
     82 C          -2.3258  -27.3059  -47.9478 C.2       14 UNK         0.5000 
     83 O          -2.2572  -28.0600  -48.9188 O.2       14 UNK        -0.5000 
     84 N          -3.3216  -26.4266  -47.7538 N.am      15 UNK        -0.5000 
     85 CA         -4.4356  -26.1048  -48.6573 C.3       15 UNK         0.1400 
     86 CB         -5.3439  -27.3295  -48.8891 C.3       15 UNK        -0.1800 
     87 C          -3.9899  -25.4311  -49.9758 C.2       15 UNK         0.5000 
     88 O          -4.7501  -25.4029  -50.9444 O.2       15 UNK        -0.5000 
     89 N          -2.7767  -24.8665  -49.9782 N.am      16 UNK        -0.5000 
     90 CA         -2.1845  -24.1107  -51.0780 C.3       16 UNK         0.1400 
     91 CB         -0.6578  -24.1102  -50.9115 C.3       16 UNK        -0.1800 
     92 C          -2.7192  -22.6702  -51.1410 C.2       16 UNK         0.5000 
     93 O          -2.7793  -22.0976  -52.2272 O.2       16 UNK        -0.5000 
     94 N          -3.1304  -22.1184  -49.9880 N.am      17 UNK        -0.5000 
     95 CA         -3.7061  -20.7741  -49.8483 C.3       17 UNK         0.1400 
     96 CB         -3.9506  -20.4808  -48.3617 C.3       17 UNK        -0.1800 
     97 C          -5.0104  -20.5623  -50.6466 C.2       17 UNK         0.5000 
     98 O          -5.3495  -19.4249  -50.9711 O.2       17 UNK        -0.5000 
     99 N          -5.7151  -21.6619  -50.9429 N.am      18 UNK        -0.5000 
    100 CA        -6.9681  -21.6916  -51.6935 C.3       18 UNK         0.1400 
    101 CB        -7.7220  -22.9769  -51.3131 C.3       18 UNK        -0.1800 
    102 C         -6.7861  -21.6030  -53.2236 C.2       18 UNK         0.5000 
    103 O         -7.7911  -21.4995  -53.9291 O.2       18 UNK        -0.5000 
    104 N         -5.5427  -21.6770  -53.7246 N.am      19 UNK        -0.5000 
    105 CA        -5.2222  -21.6407  -55.1527 C.3       19 UNK         0.1400 
    106 CB        -3.7293  -21.9408  -55.3506 C.3       19 UNK        -0.1800 
    107 C         -5.5931  -20.2954  -55.8041 C.2       19 UNK         0.5000 
    108 O         -5.1920  -19.2397  -55.3091 O.2       19 UNK        -0.5000 
    109 N         -6.3201  -20.3566  -56.9276 N.am      20 UNK        -0.5000 
    110 CA        -6.8256  -19.1978  -57.6749 C.3       20 UNK         0.1400 
    111 CB        -7.7866  -19.6942  -58.7664 C.3       20 UNK        -0.1800 
    112 C         -5.7284  -18.3034  -58.2888 C.2       20 UNK         0.5000 
    113 O         -6.0006  -17.1484  -58.6181 O.2       20 UNK        -0.5000 
    114 N         -4.5101  -18.8444  -58.4182 N.am      21 UNK        -0.5000 
    115 CA        -3.3148  -18.1412  -58.8815 C.3       21 UNK         0.1400 
    116 CB        -2.2382  -19.1844  -59.2209 C.3       21 UNK        -0.1800 
    117 C         -2.7629  -17.1122  -57.8720 C.2       21 UNK         0.5000 
    118 O         -1.9593  -16.2667  -58.2691 O.2       21 UNK        -0.5000 
    119 N         -3.1734  -17.1996  -56.6001 N.am      22 UNK        -0.5000 
    120 CA        -2.6699  -16.3565  -55.5038 C.3       22 UNK         0.1400 
    121 C         -3.7329  -15.9705  -54.4382 C.2       22 UNK         0.5000 
    122 N         -4.8471  -16.6769  -54.3002 N.am      22 UNK        -0.7600 
    123 O         -3.5505  -14.9853  -53.7285 O.2       22 UNK        -0.5000 
    124 C124       -1.3774  -16.9327  -54.8641 C.3       23 UNK        -0.0398 
    125 S125       -1.5304  -18.6821  -54.3551 S.3       23 UNK        -0.2404 
    126 C126       -1.9035  -18.5347  -52.5820 C.3       23 UNK        -0.0205 
    127 H127       -4.4067  -17.1040  -47.5370 H         1 UNK         0.0600 
    128 H128       -3.7623  -16.2772  -46.1196 H         1 UNK         0.0600 
    129 H129       -3.3961  -17.9859  -46.3845 H         1 UNK         0.0600 
    130 H130       -1.8655  -15.1306  -46.4225 H         1 UNK         0.3000 
    131 H131       -0.5237  -15.0974  -48.9429 H         1 UNK         0.0600 
    132 H132        0.6025  -17.0968  -47.7706 H         1 UNK         0.0800 
    133 H133        1.1658  -15.9936  -46.5518 H         1 UNK         0.0800 
    134 H134        1.1072  -15.0648  -50.5605 H         1 UNK         0.0800 
    135 H135        2.6409  -15.7600  -50.9968 H         1 UNK         0.0800 
    136 H136       -0.5060  -16.3487  -51.7309 H         1 UNK         0.1150 
    137 H137       -0.5076  -20.6279  -51.5639 H         1 UNK         0.1150 
    138 H138        2.6437  -18.4158  -49.6833 H         1 UNK         0.1150 
    139 H139        1.2441  -21.8251  -50.4862 H         1 UNK         0.0800 
    140 H140        2.7855  -21.0072  -50.4762 H         1 UNK         0.0800 
    141 H141       -0.2669  -20.3509  -47.3213 H         1 UNK         0.0800 
    142 H142       -0.5221  -21.3600  -48.7245 H         1 UNK         0.0800 
    143 H143        0.3345  -23.3452  -47.4019 H         1 UNK         0.0600 
    144 H144        0.8948  -21.4118  -45.3829 H         1 UNK         0.3000 
    145 H145        1.3859  -23.8410  -42.7628 H         1 UNK         0.0600 
    146 H146        3.4945  -22.5412  -42.6979 H         1 UNK         0.0600 
    147 H147        3.4743  -23.5944  -44.1051 H         1 UNK         0.0600 
    148 H148        3.1683  -21.8724  -44.2944 H         1 UNK         0.0600 
    149 H149        1.4490  -20.9942  -42.7098 H         1 UNK         0.3000 
    150 H150       -1.9571  -20.5157  -41.6638 H         1 UNK         0.0600 
    151 H151       -0.5701  -21.1184  -39.6628 H         1 UNK         0.0600 
    152 H152       -0.7415  -19.3783  -39.8396 H         1 UNK         0.0600 
    153 H153        0.7661  -20.1649  -40.3003 H         1 UNK         0.0600 
    154 H154        0.0882  -18.6179  -42.1216 H         1 UNK         0.3000 
    155 H155       -0.5889  -18.0288  -45.6085 H         1 UNK         0.0600 
    156 H156       -0.9483  -16.4687  -42.9934 H         1 UNK         0.0600 
    157 H157       -2.1318  -16.6344  -44.2729 H         1 UNK         0.0600 
    158 H158       -0.6495  -15.7282  -44.5606 H         1 UNK         0.0600 
    159 H159        1.4166  -16.8889  -44.0377 H         1 UNK         0.3000 
    160 H160        3.9839  -19.3526  -44.4620 H         1 UNK         0.0600 
    161 H161        3.5321  -16.5247  -45.5584 H         1 UNK         0.0600 
    162 H162        3.9734  -17.9382  -46.5005 H         1 UNK         0.0600 
    163 H163        5.0995  -17.2941  -45.3144 H         1 UNK         0.0600 
    164 H164        3.7369  -16.8162  -43.0819 H         1 UNK         0.3000 
    165 H165        2.9639  -18.2083  -39.8884 H         1 UNK         0.0600 
    166 H166        5.4850  -16.8500  -40.9873 H         1 UNK         0.0600 
    167 H167        4.9909  -16.9142  -39.2955 H         1 UNK         0.0600 
    168 H168        5.4440  -18.3888  -40.1350 H         1 UNK         0.0600 
    169 H169        3.3913  -15.5246  -40.8014 H         1 UNK         0.3000 
    170 H170        0.0049  -14.8158  -41.6639 H         1 UNK         0.0600 
    171 H171        0.0675  -14.6806  -39.1673 H         1 UNK         0.0600 
    172 H172        1.6616  -13.9385  -39.2442 H         1 UNK         0.0600 
    173 H173        0.2600  -13.1017  -39.9121 H         1 UNK         0.0600 
    174 H174        2.0245  -12.9706  -41.5995 H         1 UNK         0.3000 
    175 H175        3.7327  -12.6133  -43.2100 H         1 UNK         0.0600 
    176 H176        4.5461  -14.2823  -44.8341 H         1 UNK         0.0600 
    177 H177        3.1752  -13.9845  -45.8916 H         1 UNK         0.0600 
    178 H178        4.3667  -12.7178  -45.6122 H         1 UNK         0.0600 
    179 H179        1.7540  -12.0350  -45.3022 H         1 UNK         0.3000 
    180 H180       -0.1788   -9.8546  -43.4434 H         1 UNK         0.0600 
    181 H181        0.6605   -7.8435  -44.6373 H         1 UNK         0.0600 
    182 H182        1.7428   -8.2719  -43.3234 H         1 UNK         0.0600 
    183 H183        2.1876   -8.6574  -44.9813 H         1 UNK         0.0600 
    184 H184        0.5101   -9.8944  -46.2561 H         1 UNK         0.3000 
    185 H185       -2.3955  -11.2127  -47.1372 H         1 UNK         0.0600 
    186 H186       -1.0121  -10.7719  -49.1513 H         1 UNK         0.0600 
    187 H187       -0.7532   -9.5307  -47.9436 H         1 UNK         0.0600 
    188 H188        0.4586  -10.7901  -48.1892 H         1 UNK         0.0600 
    189 H189       -2.1047  -13.3033  -47.8115 H         1 UNK         0.3000 
    190 H190       -1.8138  -21.7004  -45.0529 H         1 UNK         0.3000 
    191 H191       -4.2603  -22.6775  -46.1787 H         1 UNK         0.0600 
    192 H192       -5.1973  -22.1259  -43.9238 H         1 UNK         0.0600 
    193 H193       -4.2525  -20.8050  -44.5906 H         1 UNK         0.0600 
    194 H194       -3.5716  -21.8233  -43.3224 H         1 UNK         0.0600 
    195 H195       -2.0601  -24.0073  -43.6602 H         1 UNK         0.3000 
    196 H196       -3.5587  -26.3540  -43.1067 H         1 UNK         0.0600 
    197 H197       -1.4225  -27.1576  -42.0940 H         1 UNK         0.0600 
    198 H198       -1.7727  -25.5027  -41.6180 H         1 UNK         0.0600 
    199 H199       -0.5507  -25.8267  -42.8446 H         1 UNK         0.0600 
    200 H200       -1.0340  -25.7037  -45.5436 H         1 UNK         0.3000 
    201 H201       -0.9885  -28.3691  -46.6531 H         1 UNK         0.0600 
    202 H202       -0.0544  -25.6870  -47.8098 H         1 UNK         0.0600 
    203 H203        0.4002  -27.2782  -48.4041 H         1 UNK         0.0600 
    204 H204        0.9210  -26.7607  -46.8081 H         1 UNK         0.0600 
    205 H205       -3.2783  -25.8572  -46.9185 H         1 UNK         0.3000 
    206 H206       -5.0296  -25.3557  -48.1321 H         1 UNK         0.0600 
    207 H207       -5.6424  -27.7826  -47.9438 H         1 UNK         0.0600 
    208 H208       -6.2567  -27.0447  -49.4135 H         1 UNK         0.0600 
    209 H209       -4.8508  -28.0947  -49.4889 H         1 UNK         0.0600 
    210 H210       -2.2776  -24.8421  -49.0961 H         1 UNK         0.3000 
    211 H211       -2.4304  -24.6031  -52.0212 H         1 UNK         0.0600 
    212 H212       -0.3555  -23.6521  -49.9694 H         1 UNK         0.0600 
    213 H213       -0.1768  -23.5575  -51.7195 H         1 UNK         0.0600 
    214 H214       -0.2607  -25.1254  -50.9304 H         1 UNK         0.0600 
    215 H215       -3.0290  -22.6641  -49.1396 H         1 UNK         0.3000 
    216 H216       -2.9712  -20.0542  -50.2087 H         1 UNK         0.0600 
    217 H217       -4.4059  -19.4992  -48.2306 H         1 UNK         0.0600 
    218 H218       -3.0189  -20.4761  -47.7974 H         1 UNK         0.0600 
    219 H219       -4.6238  -21.2119  -47.9154 H         1 UNK         0.0600 
    220 H220       -5.3463  -22.5558  -50.6529 H         1 UNK         0.3000 
    221 H221       -7.5778  -20.8377  -51.3906 H         1 UNK         0.0600 
    222 H222       -7.1615  -23.8694  -51.5949 H         1 UNK         0.0600 
    223 H223       -7.9086  -23.0228  -50.2400 H         1 UNK         0.0600 
    224 H224       -8.6912  -23.0271  -51.8110 H         1 UNK         0.0600 
    225 H225       -4.7562  -21.7332  -53.0887 H         1 UNK         0.3000 
    226 H226       -5.7923  -22.4356  -55.6379 H         1 UNK         0.0600 
    227 H227       -3.4672  -22.9205  -54.9506 H         1 UNK         0.0600 
    228 H228       -3.4632  -21.9382  -56.4082 H         1 UNK         0.0600 
    229 H229       -3.1033  -21.2001  -54.8524 H         1 UNK         0.0600 
    230 H230       -6.6012  -21.2625  -57.2747 H         1 UNK         0.3000 
    231 H231       -7.3919  -18.5765  -56.9779 H         1 UNK         0.0600 
    232 H232       -8.2117  -18.8586  -59.3243 H         1 UNK         0.0600 
    233 H233       -8.6194  -20.2511  -58.3362 H         1 UNK         0.0600 
    234 H234       -7.2808  -20.3433  -59.4823 H         1 UNK         0.0600 
    235 H235       -4.3857  -19.8020  -58.1262 H         1 UNK         0.3000 
    236 H236       -3.5685  -17.5996  -59.7952 H         1 UNK         0.0600 
    237 H237       -1.9495  -19.7634  -58.3424 H         1 UNK         0.0600 
    238 H238       -2.5881  -19.8804  -59.9836 H         1 UNK         0.0600 
    239 H239       -1.3376  -18.7063  -59.6087 H         1 UNK         0.0600 
    240 H240       -3.8305  -17.9232  -56.3381 H         1 UNK         0.3000 
    241 H241       -2.3956  -15.3932  -55.9386 H         1 UNK         0.0600 
    242 H242       -4.9832  -17.5698  -54.7705 H         1 UNK         0.3800 
    243 H243       -5.5172  -16.3880  -53.6064 H         1 UNK         0.3800 
    244 H244       -1.0461  -16.3207  -54.0248 H         1 UNK         0.0800 
    245 H245       -0.5682  -16.8812  -55.5934 H         1 UNK         0.0800 
    246 H246       -2.5068  -19.3973  -52.3038 H         1 UNK         0.0800 
    247 H247       -2.5241  -17.6599  -52.3854 H         1 UNK         0.0800 
@<TRIPOS>BOND
     1    1    2 1    
     2    1  127 1    
     3    1  128 1    
     4    1  129 1    
     5    2    3 2    
     6    2    4 am   BACKBONE|DICT|INTERRES
     7    4    5 1    
     8    4  130 1    
     9    5    6 1    
    10    5   65 1    
    11    5  131 1    
    12    6    7 1    
    13    6  132 1    
    14    6  133 1    
    15    7    8 1    
    16    8    9 1    
    17    8  134 1    
    18    8  135 1    
    19    9   10 ar   
    20    9   14 ar   
    21   10   11 ar   
    22   10  136 1    
    23   11   12 ar   
    24   11  126 1    
    25   12   13 ar   
    26   12  137 1    
    27   13   14 ar   
    28   13   15 1    
    29   14  138 1    
    30   15   16 1    
    31   15  139 1    
    32   15  140 1    
    33   16   17 1    
    34   17   18 1    
    35   17  141 1    
    36   17  142 1    
    37   18   19 1    
    38   18   67 1    
    39   18  143 1    
    40   19   20 am   BACKBONE|DICT|INTERRES
    41   19  144 1    
    42   20   21 2    
    43   20   22 1    
    44   22   23 1    
    45   22   24 1    
    46   22  145 1    
    47   23  146 1    
    48   23  147 1    
    49   23  148 1    
    50   24   25 am   BACKBONE|DICT|INTERRES
    51   24  149 1    
    52   25   26 2    
    53   25   27 1    
    54   27   28 1    
    55   27   29 1    
    56   27  150 1    
    57   28  151 1    
    58   28  152 1    
    59   28  153 1    
    60   29   30 am   BACKBONE|DICT|INTERRES
    61   29  154 1    
    62   30   31 2    
    63   30   32 1    
    64   32   33 1    
    65   32   34 1    
    66   32  155 1    
    67   33  156 1    
    68   33  157 1    
    69   33  158 1    
    70   34   35 am   BACKBONE|DICT|INTERRES
    71   34  159 1    
    72   35   36 2    
    73   35   37 1    
    74   37   38 1    
    75   37   39 1    
    76   37  160 1    
    77   38  161 1    
    78   38  162 1    
    79   38  163 1    
    80   39   40 am   BACKBONE|DICT|INTERRES
    81   39  164 1    
    82   40   41 2    
    83   40   42 1    
    84   42   43 1    
    85   42   44 1    
    86   42  165 1    
    87   43  166 1    
    88   43  167 1    
    89   43  168 1    
    90   44   45 am   BACKBONE|DICT|INTERRES
    91   44  169 1    
    92   45   46 2    
    93   45   47 1    
    94   47   48 1    
    95   47   49 1    
    96   47  170 1    
    97   48  171 1    
    98   48  172 1    
    99   48  173 1    
   100   49   50 am   BACKBONE|DICT|INTERRES
   101   49  174 1    
   102   50   51 2    
   103   50   52 1    
   104   52   53 1    
   105   52   54 1    
   106   52  175 1    
   107   53  176 1    
   108   53  177 1    
   109   53  178 1    
   110   54   55 am   BACKBONE|DICT|INTERRES
   111   54  179 1    
   112   55   56 2    
   113   55   57 1    
   114   57   58 1    
   115   57   59 1    
   116   57  180 1    
   117   58  181 1    
   118   58  182 1    
   119   58  183 1    
   120   59   60 am   BACKBONE|DICT|INTERRES
   121   59  184 1    
   122   60   61 2    
   123   60   62 1    
   124   62   63 1    
   125   62   64 1    
   126   62  185 1    
   127   63  186 1    
   128   63  187 1    
   129   63  188 1    
   130   64   65 am   BACKBONE|DICT|INTERRES
   131   64  189 1    
   132   65   66 2    
   133   67   68 2    
   134   67   69 am   BACKBONE|DICT|INTERRES
   135   69   70 1    
   136   69  190 1    
   137   70   71 1    
   138   70   72 1    
   139   70  191 1    
   140   71  192 1    
   141   71  193 1    
   142   71  194 1    
   143   72   73 2    
   144   72   74 am   BACKBONE|DICT|INTERRES
   145   74   75 1    
   146   74  195 1    
   147   75   76 1    
   148   75   77 1    
   149   75  196 1    
   150   76  197 1    
   151   76  198 1    
   152   76  199 1    
   153   77   78 2    
   154   77   79 am   BACKBONE|DICT|INTERRES
   155   79   80 1    
   156   79  200 1    
   157   80   81 1    
   158   80   82 1    
   159   80  201 1    
   160   81  202 1    
   161   81  203 1    
   162   81  204 1    
   163   82   83 2    
   164   82   84 am   BACKBONE|DICT|INTERRES
   165   84   85 1    
   166   84  205 1    
   167   85   86 1    
   168   85   87 1    
   169   85  206 1    
   170   86  207 1    
   171   86  208 1    
   172   86  209 1    
   173   87   88 2    
   174   87   89 am   BACKBONE|DICT|INTERRES
   175   89   90 1    
   176   89  210 1    
   177   90   91 1    
   178   90   92 1    
   179   90  211 1    
   180   91  212 1    
   181   91  213 1    
   182   91  214 1    
   183   92   93 2    
   184   92   94 am   BACKBONE|DICT|INTERRES
   185   94   95 1    
   186   94  215 1    
   187   95   96 1    
   188   95   97 1    
   189   95  216 1    
   190   96  217 1    
   191   96  218 1    
   192   96  219 1    
   193   97   98 2    
   194   97   99 am   BACKBONE|DICT|INTERRES
   195   99  100 1    
   196   99  220 1    
   197  100  101 1    
   198  100  102 1    
   199  100  221 1    
   200  101  222 1    
   201  101  223 1    
   202  101  224 1    
   203  102  103 2    
   204  102  104 am   BACKBONE|DICT|INTERRES
   205  104  105 1    
   206  104  225 1    
   207  105  106 1    
   208  105  107 1    
   209  105  226 1    
   210  106  227 1    
   211  106  228 1    
   212  106  229 1    
   213  107  108 2    
   214  107  109 am   BACKBONE|DICT|INTERRES
   215  109  110 1    
   216  109  230 1    
   217  110  111 1    
   218  110  112 1    
   219  110  231 1    
   220  111  232 1    
   221  111  233 1    
   222  111  234 1    
   223  112  113 2    
   224  112  114 am   BACKBONE|DICT|INTERRES
   225  114  115 1    
   226  114  235 1    
   227  115  116 1    
   228  115  117 1    
   229  115  236 1    
   230  116  237 1    
   231  116  238 1    
   232  116  239 1    
   233  117  118 2    
   234  117  119 am   BACKBONE|DICT|INTERRES
   235  119  120 1    
   236  119  240 1    
   237  120  121 1    
   238  120  124 1    
   239  120  241 1    
   240  121  122 am   BACKBONE|DICT|INTERRES
   241  121  123 2    
   242  122  242 1    
   243  122  243 1    
   244  124  125 1    
   245  124  244 1    
   246  124  245 1    
   247  125  126 1    
   248  126  246 1    
   249  126  247 1    
@<TRIPOS>SUBSTRUCTURE
     1 UNK         1 GROUP             0       ****    0 ROOT    
