@<TRIPOS>MOLECULE
3R540
247   249    1
SMALL
USER_CHARGES


@<TRIPOS>ATOM
      1 CA          2.2101  -10.0003  -46.6000 C.3       0 UNK        -0.1800 
      2 C           1.6606  -11.3863  -46.3002 C.2       0 UNK         0.5000 
      3 O           0.6322  -11.5074  -45.6340 O.2       0 UNK        -0.5000 
      4 N           2.3234  -12.4349  -46.8063 N.am      1 UNK        -0.5000 
      5 CA          1.9815  -13.8500  -46.5953 C.3       1 UNK         0.1400 
      6 C6          3.1084  -14.7998  -47.0699 C.3       23 UNK        -0.0398 
      7 S7          3.5894  -14.6169  -48.8243 S.3       23 UNK        -0.2404 
      8 C8          3.4606  -16.3278  -49.4412 C.3       23 UNK        -0.0205 
      9 C9          2.1388  -16.5742  -50.1520 C.ar      23 UNK        -0.0193 
     10 C10         2.0541  -16.4162  -51.5390 C.ar      23 UNK        -0.1150 
     11 C11         0.8485  -16.6462  -52.2062 C.ar      23 UNK        -0.0193 
     12 C12        -0.2811  -17.0192  -51.4748 C.ar      23 UNK        -0.1150 
     13 C13        -0.2112  -17.1815  -50.0896 C.ar      23 UNK        -0.0193 
     14 C14         1.0055  -16.9694  -49.4345 C.ar      23 UNK        -0.1150 
     15 C15        -1.4587  -17.5729  -49.3127 C.3       23 UNK        -0.0205 
     16 S16        -1.8336  -19.3425  -49.4999 S.3       23 UNK        -0.2404 
     17 C17        -0.6058  -20.0897  -48.3750 C.3       23 UNK        -0.0398 
     18 CA         -1.1077  -21.3656  -47.6511 C.3       11 UNK         0.1400 
     19 N           0.0206  -22.1332  -47.1178 N.am      11 UNK        -0.5000 
     20 C           0.0061  -23.4477  -46.8560 C.2       10 UNK         0.5000 
     21 O          -0.9684  -24.1722  -47.0463 O.2       10 UNK        -0.5000 
     22 CA          1.2803  -24.0496  -46.2300 C.3       10 UNK         0.1400 
     23 CB          2.2279  -24.5498  -47.3298 C.3       10 UNK        -0.1800 
     24 N           2.0037  -23.1221  -45.3566 N.am      10 UNK        -0.5000 
     25 C           1.4917  -22.5085  -44.2807 C.2       9 UNK         0.5000 
     26 O           0.3441  -22.6964  -43.8763 O.2       9 UNK        -0.5000 
     27 CA          2.3694  -21.4513  -43.5829 C.3       9 UNK         0.1400 
     28 CB          3.8803  -21.6138  -43.8564 C.3       9 UNK        -0.1800 
     29 N           1.9421  -20.0904  -43.9196 N.am      9 UNK        -0.5000 
     30 C           1.7978  -19.5598  -45.1454 C.2       8 UNK         0.5000 
     31 O           1.9590  -20.1763  -46.1996 O.2       8 UNK        -0.5000 
     32 CA          1.4133  -18.0737  -45.1993 C.3       8 UNK         0.1400 
     33 CB         -0.0942  -17.9164  -44.9457 C.3       8 UNK        -0.1800 
     34 N           2.1584  -17.2647  -44.2331 N.am      8 UNK        -0.5000 
     35 C           3.4916  -17.1186  -44.1848 C.2       7 UNK         0.5000 
     36 O           4.2642  -17.6068  -45.0091 O.2       7 UNK        -0.5000 
     37 CA          4.0622  -16.2915  -43.0178 C.3       7 UNK         0.1400 
     38 CB          4.2510  -14.8217  -43.4213 C.3       7 UNK        -0.1800 
     39 N           3.1987  -16.3548  -41.8395 N.am      7 UNK        -0.5000 
     40 C           3.2928  -17.2854  -40.8802 C.2       6 UNK         0.5000 
     41 O           4.1664  -18.1526  -40.8493 O.2       6 UNK        -0.5000 
     42 CA          2.2214  -17.2520  -39.7724 C.3       6 UNK         0.1400 
     43 CB          2.6813  -16.3648  -38.6057 C.3       6 UNK        -0.1800 
     44 N           0.9167  -16.7837  -40.2443 N.am      6 UNK        -0.5000 
     45 C           0.1414  -17.4438  -41.1154 C.2       5 UNK         0.5000 
     46 O           0.4351  -18.5388  -41.5975 O.2       5 UNK        -0.5000 
     47 CA         -1.1599  -16.7401  -41.5528 C.3       5 UNK         0.1400 
     48 CB         -2.3111  -17.1127  -40.6074 C.3       5 UNK        -0.1800 
     49 N          -1.0696  -15.2774  -41.6536 N.am      5 UNK        -0.5000 
     50 C          -0.1852  -14.5946  -42.3940 C.2       4 UNK         0.5000 
     51 O           0.7308  -15.1224  -43.0251 O.2       4 UNK        -0.5000 
     52 CA         -0.3448  -13.0662  -42.4336 C.3       4 UNK         0.1400 
     53 CB          1.0189  -12.3583  -42.3570 C.3       4 UNK        -0.1800 
     54 N          -1.0299  -12.6457  -43.6541 N.am      4 UNK        -0.5000 
     55 C          -2.3482  -12.7546  -43.8683 C.2       3 UNK         0.5000 
     56 O          -3.1301  -13.2410  -43.0501 O.2       3 UNK        -0.5000 
     57 CA         -2.8951  -12.2192  -45.2026 C.3       3 UNK         0.1400 
     58 CB         -3.0308  -10.6889  -45.1513 C.3       3 UNK        -0.1800 
     59 N          -2.0386  -12.5835  -46.3314 N.am      3 UNK        -0.5000 
     60 C          -2.4210  -13.3296  -47.3791 C.2       2 UNK         0.5000 
     61 O          -3.5540  -13.7947  -47.5093 O.2       2 UNK        -0.5000 
     62 CA         -1.3738  -13.6044  -48.4817 C.3       2 UNK         0.1400 
     63 CB         -1.5996  -12.6815  -49.6884 C.3       2 UNK        -0.1800 
     64 N           0.0052  -13.4502  -48.0216 N.am      2 UNK        -0.5000 
     65 C           0.6009  -14.2682  -47.1448 C.2       1 UNK         0.5000 
     66 O           0.0809  -15.3027  -46.7346 O.2       1 UNK        -0.5000 
     67 C          -2.2048  -21.0913  -46.5913 C.2       11 UNK         0.5000 
     68 O          -3.3299  -20.7572  -46.9655 O.2       11 UNK        -0.5000 
     69 N          -1.8861  -21.2648  -45.2991 N.am      12 UNK        -0.5000 
     70 CA         -2.8678  -21.2784  -44.2135 C.3       12 UNK         0.1400 
     71 CB         -2.2937  -20.5759  -42.9718 C.3       12 UNK        -0.1800 
     72 C          -3.3030  -22.7159  -43.8781 C.2       12 UNK         0.5000 
     73 O          -4.4884  -22.9427  -43.6336 O.2       12 UNK        -0.5000 
     74 N          -2.3448  -23.6556  -43.8606 N.am      13 UNK        -0.5000 
     75 CA         -2.5576  -25.0655  -43.5236 C.3       13 UNK         0.1400 
     76 CB         -1.2013  -25.7724  -43.3855 C.3       13 UNK        -0.1800 
     77 C          -3.4580  -25.8047  -44.5302 C.2       13 UNK         0.5000 
     78 O          -4.3600  -26.5324  -44.1123 O.2       13 UNK        -0.5000 
     79 N          -3.2173  -25.5841  -45.8276 N.am      14 UNK        -0.5000 
     80 CA         -4.0969  -25.9921  -46.9169 C.3       14 UNK         0.1400 
     81 CB         -3.2648  -26.6395  -48.0350 C.3       14 UNK        -0.1800 
     82 C          -4.8068  -24.7330  -47.4262 C.2       14 UNK         0.5000 
     83 O          -4.1520  -23.7031  -47.5992 O.2       14 UNK        -0.5000 
     84 N          -6.1225  -24.8341  -47.6559 N.am      15 UNK        -0.5000 
     85 CA         -6.9993  -23.7413  -48.0835 C.3       15 UNK         0.1400 
     86 CB         -8.4359  -24.2719  -48.2159 C.3       15 UNK        -0.1800 
     87 C          -6.5212  -23.0946  -49.3957 C.2       15 UNK         0.5000 
     88 O          -6.6136  -23.7218  -50.4532 O.2       15 UNK        -0.5000 
     89 N          -5.9550  -21.8839  -49.2836 N.am      16 UNK        -0.5000 
     90 CA         -5.3317  -21.1033  -50.3586 C.3       16 UNK         0.1400 
     91 CB         -6.4134  -20.6086  -51.3397 C.3       16 UNK        -0.1800 
     92 C          -4.1802  -21.8672  -51.0531 C.2       16 UNK         0.5000 
     93 O          -4.0297  -21.7924  -52.2763 O.2       16 UNK        -0.5000 
     94 N          -3.4371  -22.6499  -50.2534 N.am      17 UNK        -0.5000 
     95 CA         -2.3549  -23.5706  -50.6269 C.3       17 UNK         0.1400 
     96 CB         -1.1834  -22.8066  -51.2813 C.3       17 UNK        -0.1800 
     97 C          -2.8148  -24.7570  -51.5003 C.2       17 UNK         0.5000 
     98 O          -1.9670  -25.4557  -52.0563 O.2       17 UNK        -0.5000 
     99 N          -4.1387  -24.9408  -51.6425 N.am      18 UNK        -0.5000 
    100 CA        -4.8139  -25.8007  -52.6211 C.3       18 UNK         0.1400 
    101 CB        -4.5501  -27.2915  -52.3250 C.3       18 UNK        -0.1800 
    102 C         -4.4961  -25.4049  -54.0836 C.2       18 UNK         0.5000 
    103 O         -4.5836  -26.2452  -54.9805 O.2       18 UNK        -0.5000 
    104 N         -4.1265  -24.1331  -54.2940 N.am      19 UNK        -0.5000 
    105 CA        -3.6528  -23.5791  -55.5625 C.3       19 UNK         0.1400 
    106 CB        -2.1159  -23.4936  -55.5206 C.3       19 UNK        -0.1800 
    107 C         -4.2931  -22.2104  -55.8554 C.2       19 UNK         0.5000 
    108 O         -3.7582  -21.4524  -56.6662 O.2       19 UNK        -0.5000 
    109 N         -5.4102  -21.9034  -55.1769 N.am      20 UNK        -0.5000 
    110 CA        -6.1937  -20.6655  -55.2752 C.3       20 UNK         0.1400 
    111 CB        -6.9216  -20.6020  -56.6343 C.3       20 UNK        -0.1800 
    112 C         -5.3739  -19.3902  -54.9747 C.2       20 UNK         0.5000 
    113 O         -5.6206  -18.3473  -55.5824 O.2       20 UNK        -0.5000 
    114 N         -4.4155  -19.5094  -54.0416 N.am      21 UNK        -0.5000 
    115 CA        -3.4567  -18.4878  -53.6156 C.3       21 UNK         0.1400 
    116 CB        -4.1676  -17.3251  -52.8904 C.3       21 UNK        -0.1800 
    117 C         -2.5597  -18.0316  -54.7834 C.2       21 UNK         0.5000 
    118 O         -2.5646  -16.8566  -55.1555 O.2       21 UNK        -0.5000 
    119 N         -1.8073  -18.9942  -55.3318 N.am      22 UNK        -0.5000 
    120 CA        -0.8557  -18.8279  -56.4456 C.3       22 UNK         0.1400 
    121 C         -1.5468  -18.6017  -57.8247 C.2       22 UNK         0.5000 
    122 N         -2.6899  -19.2218  -58.0883 N.am      22 UNK        -0.7600 
    123 O         -1.0439  -17.8734  -58.6770 O.2       22 UNK        -0.5000 
    124 C124        0.2820  -17.7990  -56.1631 C.3       23 UNK        -0.0398 
    125 S125        1.1250  -18.0594  -54.5618 S.3       23 UNK        -0.2404 
    126 C126        0.7556  -16.4903  -53.7140 C.3       23 UNK        -0.0205 
    127 H127        3.1126  -10.0450  -47.2099 H         1 UNK         0.0600 
    128 H128        1.4657   -9.4100  -47.1341 H         1 UNK         0.0600 
    129 H129        2.4518   -9.4856  -45.6701 H         1 UNK         0.0600 
    130 H130        3.1436  -12.2730  -47.3741 H         1 UNK         0.3000 
    131 H131        1.8961  -13.9809  -45.5149 H         1 UNK         0.0600 
    132 H132        4.0032  -14.6165  -46.4755 H         1 UNK         0.0800 
    133 H133        2.8379  -15.8343  -46.8636 H         1 UNK         0.0800 
    134 H134        3.5986  -17.0472  -48.6327 H         1 UNK         0.0800 
    135 H135        4.2853  -16.5041  -50.1334 H         1 UNK         0.0800 
    136 H136        2.9284  -16.1196  -52.1013 H         1 UNK         0.1150 
    137 H137       -1.2158  -17.1930  -51.9858 H         1 UNK         0.1150 
    138 H138        1.0668  -17.0991  -48.3649 H         1 UNK         0.1150 
    139 H139       -1.3596  -17.3168  -48.2564 H         1 UNK         0.0800 
    140 H140       -2.3072  -16.9965  -49.6842 H         1 UNK         0.0800 
    141 H141       -0.2539  -19.3517  -47.6582 H         1 UNK         0.0800 
    142 H142        0.2635  -20.3334  -48.9877 H         1 UNK         0.0800 
    143 H143       -1.5820  -21.9957  -48.4006 H         1 UNK         0.0600 
    144 H144        0.8553  -21.5991  -46.8885 H         1 UNK         0.3000 
    145 H145        0.9818  -24.9063  -45.6254 H         1 UNK         0.0600 
    146 H146        3.0934  -25.0582  -46.9044 H         1 UNK         0.0600 
    147 H147        1.7241  -25.2616  -47.9853 H         1 UNK         0.0600 
    148 H148        2.5905  -23.7303  -47.9516 H         1 UNK         0.0600 
    149 H149        2.9381  -22.8704  -45.6446 H         1 UNK         0.3000 
    150 H150        2.2085  -21.5751  -42.5110 H         1 UNK         0.0600 
    151 H151        4.2207  -22.6192  -43.6056 H         1 UNK         0.0600 
    152 H152        4.4579  -20.9182  -43.2470 H         1 UNK         0.0600 
    153 H153        4.1375  -21.4225  -44.8988 H         1 UNK         0.0600 
    154 H154        1.7058  -19.5017  -43.1283 H         1 UNK         0.3000 
    155 H155        1.6414  -17.6960  -46.1955 H         1 UNK         0.0600 
    156 H156       -0.4122  -18.4948  -44.0822 H         1 UNK         0.0600 
    157 H157       -0.6824  -18.2617  -45.7930 H         1 UNK         0.0600 
    158 H158       -0.3710  -16.8782  -44.7695 H         1 UNK         0.0600 
    159 H159        1.5998  -16.7268  -43.5783 H         1 UNK         0.3000 
    160 H160        5.0458  -16.6983  -42.7733 H         1 UNK         0.0600 
    161 H161        4.6848  -14.2438  -42.6052 H         1 UNK         0.0600 
    162 H162        3.3067  -14.3528  -43.6941 H         1 UNK         0.0600 
    163 H163        4.9266  -14.7343  -44.2725 H         1 UNK         0.0600 
    164 H164        2.4151  -15.7148  -41.8242 H         1 UNK         0.3000 
    165 H165        2.0997  -18.2714  -39.4000 H         1 UNK         0.0600 
    166 H166        1.9679  -16.3947  -37.7820 H         1 UNK         0.0600 
    167 H167        3.6421  -16.7019  -38.2142 H         1 UNK         0.0600 
    168 H168        2.7985  -15.3246  -38.9123 H         1 UNK         0.0600 
    169 H169        0.5993  -15.8894  -39.9002 H         1 UNK         0.3000 
    170 H170       -1.4175  -17.1097  -42.5447 H         1 UNK         0.0600 
    171 H171       -2.4221  -18.1957  -40.5345 H         1 UNK         0.0600 
    172 H172       -2.1444  -16.7303  -39.5997 H         1 UNK         0.0600 
    173 H173       -3.2607  -16.7147  -40.9658 H         1 UNK         0.0600 
    174 H174       -1.8062  -14.7573  -41.1978 H         1 UNK         0.3000 
    175 H175       -0.9324  -12.7508  -41.5687 H         1 UNK         0.0600 
    176 H176        1.6434  -12.5859  -43.2214 H         1 UNK         0.0600 
    177 H177        0.8972  -11.2759  -42.3134 H         1 UNK         0.0600 
    178 H178        1.5688  -12.6613  -41.4652 H         1 UNK         0.0600 
    179 H179       -0.4410  -12.2331  -44.3738 H         1 UNK         0.3000 
    180 H180       -3.8953  -12.6387  -45.3288 H         1 UNK         0.0600 
    181 H181       -2.0614  -10.2014  -45.0381 H         1 UNK         0.0600 
    182 H182       -3.6562  -10.3788  -44.3132 H         1 UNK         0.0600 
    183 H183       -3.4929  -10.3056  -46.0612 H         1 UNK         0.0600 
    184 H184       -1.0788  -12.2572  -46.2885 H         1 UNK         0.3000 
    185 H185       -1.5090  -14.6355  -48.8131 H         1 UNK         0.0600 
    186 H186       -2.6120  -12.7904  -50.0794 H         1 UNK         0.0600 
    187 H187       -1.4599  -11.6325  -49.4244 H         1 UNK         0.0600 
    188 H188       -0.9120  -12.9202  -50.5002 H         1 UNK         0.0600 
    189 H189        0.4998  -12.6222  -48.3186 H         1 UNK         0.3000 
    190 H190       -0.9551  -21.5835  -45.0616 H         1 UNK         0.3000 
    191 H191       -3.7653  -20.7300  -44.5075 H         1 UNK         0.0600 
    192 H192       -1.3117  -20.9606  -42.6958 H         1 UNK         0.0600 
    193 H193       -2.9496  -20.7037  -42.1097 H         1 UNK         0.0600 
    194 H194       -2.2016  -19.5044  -43.1397 H         1 UNK         0.0600 
    195 H195       -1.3805  -23.3676  -44.0017 H         1 UNK         0.3000 
    196 H196       -3.0525  -25.0970  -42.5507 H         1 UNK         0.0600 
    197 H197       -0.6725  -25.8125  -44.3368 H         1 UNK         0.0600 
    198 H198       -1.3317  -26.7992  -43.0417 H         1 UNK         0.0600 
    199 H199       -0.5602  -25.2655  -42.6639 H         1 UNK         0.0600 
    200 H200       -2.4784  -24.9387  -46.0962 H         1 UNK         0.3000 
    201 H201       -4.8399  -26.7150  -46.5740 H         1 UNK         0.0600 
    202 H202       -3.8948  -26.9193  -48.8802 H         1 UNK         0.0600 
    203 H203       -2.7712  -27.5446  -47.6811 H         1 UNK         0.0600 
    204 H204       -2.4938  -25.9663  -48.4087 H         1 UNK         0.0600 
    205 H205       -6.5717  -25.7267  -47.5128 H         1 UNK         0.3000 
    206 H206       -6.9921  -22.9842  -47.2965 H         1 UNK         0.0600 
    207 H207       -8.8060  -24.6528  -47.2638 H         1 UNK         0.0600 
    208 H208       -9.1158  -23.4807  -48.5347 H         1 UNK         0.0600 
    209 H209       -8.5033  -25.0771  -48.9487 H         1 UNK         0.0600 
    210 H210       -5.8512  -21.4930  -48.3565 H         1 UNK         0.3000 
    211 H211       -4.8821  -20.2294  -49.8848 H         1 UNK         0.0600 
    212 H212       -6.7812  -21.4117  -51.9792 H         1 UNK         0.0600 
    213 H213       -6.0264  -19.8201  -51.9804 H         1 UNK         0.0600 
    214 H214       -7.2670  -20.1891  -50.8073 H         1 UNK         0.0600 
    215 H215       -3.7045  -22.6972  -49.2730 H         1 UNK         0.3000 
    216 H216       -1.9906  -24.0036  -49.6951 H         1 UNK         0.0600 
    217 H217       -1.4499  -22.4186  -52.2644 H         1 UNK         0.0600 
    218 H218       -0.3176  -23.4563  -51.4131 H         1 UNK         0.0600 
    219 H219       -0.8595  -21.9661  -50.6709 H         1 UNK         0.0600 
    220 H220       -4.7620  -24.3262  -51.1295 H         1 UNK         0.3000 
    221 H221       -5.8821  -25.6242  -52.4884 H         1 UNK         0.0600 
    222 H222       -3.5125  -27.5672  -52.5138 H         1 UNK         0.0600 
    223 H223       -4.7788  -27.5331  -51.2871 H         1 UNK         0.0600 
    224 H224       -5.1750  -27.9300  -52.9503 H         1 UNK         0.0600 
    225 H225       -4.0790  -23.5036  -53.4993 H         1 UNK         0.3000 
    226 H226       -3.9407  -24.2313  -56.3890 H         1 UNK         0.0600 
    227 H227       -1.6729  -24.4692  -55.3194 H         1 UNK         0.0600 
    228 H228       -1.7118  -23.1454  -56.4720 H         1 UNK         0.0600 
    229 H229       -1.7754  -22.8067  -54.7451 H         1 UNK         0.0600 
    230 H230       -5.7580  -22.5900  -54.5233 H         1 UNK         0.3000 
    231 H231       -6.9558  -20.7227  -54.4970 H         1 UNK         0.0600 
    232 H232       -7.5030  -21.5065  -56.8129 H         1 UNK         0.0600 
    233 H233       -6.2216  -20.4844  -57.4622 H         1 UNK         0.0600 
    234 H234       -7.6151  -19.7610  -56.6698 H         1 UNK         0.0600 
    235 H235       -4.3021  -20.4162  -53.5957 H         1 UNK         0.3000 
    236 H236       -2.7999  -18.9681  -52.8880 H         1 UNK         0.0600 
    237 H237       -3.4475  -16.5923  -52.5258 H         1 UNK         0.0600 
    238 H238       -4.8614  -16.7968  -53.5445 H         1 UNK         0.0600 
    239 H239       -4.7271  -17.6839  -52.0268 H         1 UNK         0.0600 
    240 H240       -1.9085  -19.9367  -54.9862 H         1 UNK         0.3000 
    241 H241       -0.3693  -19.7986  -56.5462 H         1 UNK         0.0600 
    242 H242       -3.0885  -19.8963  -57.4385 H         1 UNK         0.3800 
    243 H243       -3.1340  -19.0755  -58.9802 H         1 UNK         0.3800 
    244 H244        1.0426  -17.8668  -56.9425 H         1 UNK         0.0800 
    245 H245       -0.1035  -16.7803  -56.2199 H         1 UNK         0.0800 
    246 H246        1.4467  -15.7207  -54.0611 H         1 UNK         0.0800 
    247 H247       -0.2443  -16.1440  -53.9769 H         1 UNK         0.0800 
@<TRIPOS>BOND
     1    1    2 1    
     2    1  127 1    
     3    1  128 1    
     4    1  129 1    
     5    2    3 2    
     6    2    4 am   BACKBONE|DICT|INTERRES
     7    4    5 1    
     8    4  130 1    
     9    5    6 1    
    10    5   65 1    
    11    5  131 1    
    12    6    7 1    
    13    6  132 1    
    14    6  133 1    
    15    7    8 1    
    16    8    9 1    
    17    8  134 1    
    18    8  135 1    
    19    9   10 ar   
    20    9   14 ar   
    21   10   11 ar   
    22   10  136 1    
    23   11   12 ar   
    24   11  126 1    
    25   12   13 ar   
    26   12  137 1    
    27   13   14 ar   
    28   13   15 1    
    29   14  138 1    
    30   15   16 1    
    31   15  139 1    
    32   15  140 1    
    33   16   17 1    
    34   17   18 1    
    35   17  141 1    
    36   17  142 1    
    37   18   19 1    
    38   18   67 1    
    39   18  143 1    
    40   19   20 am   BACKBONE|DICT|INTERRES
    41   19  144 1    
    42   20   21 2    
    43   20   22 1    
    44   22   23 1    
    45   22   24 1    
    46   22  145 1    
    47   23  146 1    
    48   23  147 1    
    49   23  148 1    
    50   24   25 am   BACKBONE|DICT|INTERRES
    51   24  149 1    
    52   25   26 2    
    53   25   27 1    
    54   27   28 1    
    55   27   29 1    
    56   27  150 1    
    57   28  151 1    
    58   28  152 1    
    59   28  153 1    
    60   29   30 am   BACKBONE|DICT|INTERRES
    61   29  154 1    
    62   30   31 2    
    63   30   32 1    
    64   32   33 1    
    65   32   34 1    
    66   32  155 1    
    67   33  156 1    
    68   33  157 1    
    69   33  158 1    
    70   34   35 am   BACKBONE|DICT|INTERRES
    71   34  159 1    
    72   35   36 2    
    73   35   37 1    
    74   37   38 1    
    75   37   39 1    
    76   37  160 1    
    77   38  161 1    
    78   38  162 1    
    79   38  163 1    
    80   39   40 am   BACKBONE|DICT|INTERRES
    81   39  164 1    
    82   40   41 2    
    83   40   42 1    
    84   42   43 1    
    85   42   44 1    
    86   42  165 1    
    87   43  166 1    
    88   43  167 1    
    89   43  168 1    
    90   44   45 am   BACKBONE|DICT|INTERRES
    91   44  169 1    
    92   45   46 2    
    93   45   47 1    
    94   47   48 1    
    95   47   49 1    
    96   47  170 1    
    97   48  171 1    
    98   48  172 1    
    99   48  173 1    
   100   49   50 am   BACKBONE|DICT|INTERRES
   101   49  174 1    
   102   50   51 2    
   103   50   52 1    
   104   52   53 1    
   105   52   54 1    
   106   52  175 1    
   107   53  176 1    
   108   53  177 1    
   109   53  178 1    
   110   54   55 am   BACKBONE|DICT|INTERRES
   111   54  179 1    
   112   55   56 2    
   113   55   57 1    
   114   57   58 1    
   115   57   59 1    
   116   57  180 1    
   117   58  181 1    
   118   58  182 1    
   119   58  183 1    
   120   59   60 am   BACKBONE|DICT|INTERRES
   121   59  184 1    
   122   60   61 2    
   123   60   62 1    
   124   62   63 1    
   125   62   64 1    
   126   62  185 1    
   127   63  186 1    
   128   63  187 1    
   129   63  188 1    
   130   64   65 am   BACKBONE|DICT|INTERRES
   131   64  189 1    
   132   65   66 2    
   133   67   68 2    
   134   67   69 am   BACKBONE|DICT|INTERRES
   135   69   70 1    
   136   69  190 1    
   137   70   71 1    
   138   70   72 1    
   139   70  191 1    
   140   71  192 1    
   141   71  193 1    
   142   71  194 1    
   143   72   73 2    
   144   72   74 am   BACKBONE|DICT|INTERRES
   145   74   75 1    
   146   74  195 1    
   147   75   76 1    
   148   75   77 1    
   149   75  196 1    
   150   76  197 1    
   151   76  198 1    
   152   76  199 1    
   153   77   78 2    
   154   77   79 am   BACKBONE|DICT|INTERRES
   155   79   80 1    
   156   79  200 1    
   157   80   81 1    
   158   80   82 1    
   159   80  201 1    
   160   81  202 1    
   161   81  203 1    
   162   81  204 1    
   163   82   83 2    
   164   82   84 am   BACKBONE|DICT|INTERRES
   165   84   85 1    
   166   84  205 1    
   167   85   86 1    
   168   85   87 1    
   169   85  206 1    
   170   86  207 1    
   171   86  208 1    
   172   86  209 1    
   173   87   88 2    
   174   87   89 am   BACKBONE|DICT|INTERRES
   175   89   90 1    
   176   89  210 1    
   177   90   91 1    
   178   90   92 1    
   179   90  211 1    
   180   91  212 1    
   181   91  213 1    
   182   91  214 1    
   183   92   93 2    
   184   92   94 am   BACKBONE|DICT|INTERRES
   185   94   95 1    
   186   94  215 1    
   187   95   96 1    
   188   95   97 1    
   189   95  216 1    
   190   96  217 1    
   191   96  218 1    
   192   96  219 1    
   193   97   98 2    
   194   97   99 am   BACKBONE|DICT|INTERRES
   195   99  100 1    
   196   99  220 1    
   197  100  101 1    
   198  100  102 1    
   199  100  221 1    
   200  101  222 1    
   201  101  223 1    
   202  101  224 1    
   203  102  103 2    
   204  102  104 am   BACKBONE|DICT|INTERRES
   205  104  105 1    
   206  104  225 1    
   207  105  106 1    
   208  105  107 1    
   209  105  226 1    
   210  106  227 1    
   211  106  228 1    
   212  106  229 1    
   213  107  108 2    
   214  107  109 am   BACKBONE|DICT|INTERRES
   215  109  110 1    
   216  109  230 1    
   217  110  111 1    
   218  110  112 1    
   219  110  231 1    
   220  111  232 1    
   221  111  233 1    
   222  111  234 1    
   223  112  113 2    
   224  112  114 am   BACKBONE|DICT|INTERRES
   225  114  115 1    
   226  114  235 1    
   227  115  116 1    
   228  115  117 1    
   229  115  236 1    
   230  116  237 1    
   231  116  238 1    
   232  116  239 1    
   233  117  118 2    
   234  117  119 am   BACKBONE|DICT|INTERRES
   235  119  120 1    
   236  119  240 1    
   237  120  121 1    
   238  120  124 1    
   239  120  241 1    
   240  121  122 am   BACKBONE|DICT|INTERRES
   241  121  123 2    
   242  122  242 1    
   243  122  243 1    
   244  124  125 1    
   245  124  244 1    
   246  124  245 1    
   247  125  126 1    
   248  126  246 1    
   249  126  247 1    
@<TRIPOS>SUBSTRUCTURE
     1 UNK         1 GROUP             0       ****    0 ROOT    
