@<TRIPOS>MOLECULE
3R540
247   249    1
SMALL
USER_CHARGES


@<TRIPOS>ATOM
      1 CA         -1.6277  -11.8410  -49.5677 C.3       0 UNK        -0.1800 
      2 C          -0.1127  -11.8929  -49.6987 C.2       0 UNK         0.5000 
      3 O           0.5940  -11.2639  -48.9113 O.2       0 UNK        -0.5000 
      4 N           0.3906  -12.6636  -50.6722 N.am      1 UNK        -0.5000 
      5 CA          1.8179  -12.8584  -50.9773 C.3       1 UNK         0.1400 
      6 C6          2.0163  -13.6410  -52.2999 C.3       23 UNK        -0.0398 
      7 S7          1.2019  -15.2768  -52.3041 S.3       23 UNK        -0.2404 
      8 C8          2.6324  -16.3928  -52.1807 C.3       23 UNK        -0.0205 
      9 C9          2.2142  -17.8064  -51.8023 C.ar      23 UNK        -0.0193 
     10 C10         1.5030  -18.6010  -52.7066 C.ar      23 UNK        -0.1150 
     11 C11         1.1395  -19.9103  -52.3747 C.ar      23 UNK        -0.0193 
     12 C12         1.5004  -20.4267  -51.1259 C.ar      23 UNK        -0.1150 
     13 C13         2.2151  -19.6425  -50.2133 C.ar      23 UNK        -0.0193 
     14 C14         2.5639  -18.3329  -50.5559 C.ar      23 UNK        -0.1150 
     15 C15         2.6489  -20.2151  -48.8712 C.3       23 UNK        -0.0205 
     16 S16         1.7333  -19.4895  -47.4751 S.3       23 UNK        -0.2404 
     17 C17         0.1081  -20.2865  -47.6670 C.3       23 UNK        -0.0398 
     18 CA         -0.0168  -21.5882  -46.8406 C.3       11 UNK         0.1400 
     19 N          -0.0132  -21.3583  -45.3889 N.am      11 UNK        -0.5000 
     20 C          -0.0214  -22.3194  -44.4513 C.2       10 UNK         0.5000 
     21 O          -0.0018  -23.5231  -44.7097 O.2       10 UNK        -0.5000 
     22 CA         -0.1299  -21.8670  -42.9836 C.3       10 UNK         0.1400 
     23 CB          1.2406  -21.4679  -42.4151 C.3       10 UNK        -0.1800 
     24 N          -1.0816  -20.7658  -42.8305 N.am      10 UNK        -0.5000 
     25 C          -2.4131  -20.9182  -42.8706 C.2       9 UNK         0.5000 
     26 O          -2.9667  -22.0152  -42.9323 O.2       9 UNK        -0.5000 
     27 CA         -3.2787  -19.6423  -42.8651 C.3       9 UNK         0.1400 
     28 CB         -3.6692  -19.2594  -41.4301 C.3       9 UNK        -0.1800 
     29 N          -2.6344  -18.5007  -43.5153 N.am      9 UNK        -0.5000 
     30 C          -2.3413  -18.4328  -44.8212 C.2       8 UNK         0.5000 
     31 O          -2.6447  -19.3068  -45.6331 O.2       8 UNK        -0.5000 
     32 CA         -1.5169  -17.2143  -45.2839 C.3       8 UNK         0.1400 
     33 CB         -2.4221  -16.0022  -45.5471 C.3       8 UNK        -0.1800 
     34 N          -0.4703  -16.8414  -44.3287 N.am      8 UNK        -0.5000 
     35 C           0.5392  -17.6422  -43.9581 C.2       7 UNK         0.5000 
     36 O           0.7041  -18.7732  -44.4065 O.2       7 UNK        -0.5000 
     37 CA          1.4769  -17.1309  -42.8529 C.3       7 UNK         0.1400 
     38 CB          2.5151  -16.1429  -43.4015 C.3       7 UNK        -0.1800 
     39 N           0.7252  -16.5115  -41.7646 N.am      7 UNK        -0.5000 
     40 C          -0.0184  -17.1946  -40.8831 C.2       6 UNK         0.5000 
     41 O          -0.0930  -18.4228  -40.8573 O.2       6 UNK        -0.5000 
     42 CA         -0.8446  -16.3603  -39.8871 C.3       6 UNK         0.1400 
     43 CB         -0.0110  -16.0234  -38.6420 C.3       6 UNK        -0.1800 
     44 N          -1.3524  -15.1212  -40.4794 N.am      6 UNK        -0.5000 
     45 C          -2.2726  -15.0689  -41.4530 C.2       5 UNK         0.5000 
     46 O          -2.8192  -16.0620  -41.9305 O.2       5 UNK        -0.5000 
     47 CA         -2.5920  -13.6754  -42.0234 C.3       5 UNK         0.1400 
     48 CB         -3.6549  -12.9698  -41.1683 C.3       5 UNK        -0.1800 
     49 N          -1.4042  -12.8232  -42.1305 N.am      5 UNK        -0.5000 
     50 C          -0.3749  -13.0669  -42.9511 C.2       4 UNK         0.5000 
     51 O          -0.3154  -14.0392  -43.7082 O.2       4 UNK        -0.5000 
     52 CA          0.8044  -12.0926  -42.8821 C.3       4 UNK         0.1400 
     53 CB          1.8106  -12.5345  -41.8032 C.3       4 UNK        -0.1800 
     54 N           1.4442  -12.0485  -44.1921 N.am      4 UNK        -0.5000 
     55 C           2.2539  -11.0785  -44.6290 C.2       3 UNK         0.5000 
     56 O           2.5893  -10.1194  -43.9313 O.2       3 UNK        -0.5000 
     57 CA          2.7381  -11.1459  -46.0932 C.3       3 UNK         0.1400 
     58 CB          4.2380  -10.8098  -46.2297 C.3       3 UNK        -0.1800 
     59 N           2.4072  -12.3820  -46.8138 N.am      3 UNK        -0.5000 
     60 C           2.9159  -13.6126  -46.6343 C.2       2 UNK         0.5000 
     61 O           3.6918  -13.9073  -45.7263 O.2       2 UNK        -0.5000 
     62 CA          2.4998  -14.7018  -47.6494 C.3       2 UNK         0.1400 
     63 CB          1.4680  -15.6586  -47.0364 C.3       2 UNK        -0.1800 
     64 N           1.9428  -14.1559  -48.8867 N.am      2 UNK        -0.5000 
     65 C           2.6326  -13.4882  -49.8224 C.2       1 UNK         0.5000 
     66 O           3.8547  -13.3397  -49.7918 O.2       1 UNK        -0.5000 
     67 C          -1.2380  -22.4003  -47.3142 C.2       11 UNK         0.5000 
     68 O          -1.0913  -23.1993  -48.2359 O.2       11 UNK        -0.5000 
     69 N          -2.3878  -22.2471  -46.6383 N.am      12 UNK        -0.5000 
     70 CA         -3.6336  -22.9840  -46.8824 C.3       12 UNK         0.1400 
     71 CB         -4.6911  -22.5296  -45.8624 C.3       12 UNK        -0.1800 
     72 C          -3.5021  -24.5232  -46.8278 C.2       12 UNK         0.5000 
     73 O          -4.3487  -25.2165  -47.3906 O.2       12 UNK        -0.5000 
     74 N          -2.4638  -25.0343  -46.1501 N.am      13 UNK        -0.5000 
     75 CA         -2.1564  -26.4608  -46.0547 C.3       13 UNK         0.1400 
     76 CB         -1.2815  -26.6950  -44.8130 C.3       13 UNK        -0.1800 
     77 C          -1.4707  -27.0342  -47.3131 C.2       13 UNK         0.5000 
     78 O          -1.4082  -28.2581  -47.4445 O.2       13 UNK        -0.5000 
     79 N          -0.9470  -26.1740  -48.2000 N.am      14 UNK        -0.5000 
     80 CA         -0.2866  -26.5766  -49.4435 C.3       14 UNK         0.1400 
     81 CB          0.5564  -25.4048  -49.9724 C.3       14 UNK        -0.1800 
     82 C          -1.2888  -27.0617  -50.5101 C.2       14 UNK         0.5000 
     83 O          -2.4835  -26.7621  -50.4342 O.2       14 UNK        -0.5000 
     84 N          -0.7744  -27.8016  -51.5009 N.am      15 UNK        -0.5000 
     85 CA         -1.5380  -28.3374  -52.6279 C.3       15 UNK         0.1400 
     86 CB         -0.6255  -29.2359  -53.4773 C.3       15 UNK        -0.1800 
     87 C          -2.1600  -27.2179  -53.4841 C.2       15 UNK         0.5000 
     88 O          -1.4327  -26.3487  -53.9692 O.2       15 UNK        -0.5000 
     89 N          -3.4912  -27.2667  -53.6329 N.am      16 UNK        -0.5000 
     90 CA         -4.3441  -26.3214  -54.3656 C.3       16 UNK         0.1400 
     91 CB         -4.0135  -26.3366  -55.8734 C.3       16 UNK        -0.1800 
     92 C          -4.3663  -24.8894  -53.7838 C.2       16 UNK         0.5000 
     93 O          -4.7684  -23.9592  -54.4865 O.2       16 UNK        -0.5000 
     94 N          -3.9566  -24.7242  -52.5198 N.am      17 UNK        -0.5000 
     95 CA         -4.0002  -23.4508  -51.8093 C.3       17 UNK         0.1400 
     96 CB         -2.8834  -23.4154  -50.7638 C.3       17 UNK        -0.1800 
     97 C          -5.3662  -23.2461  -51.1409 C.2       17 UNK         0.5000 
     98 O          -5.9013  -24.1836  -50.5451 O.2       17 UNK        -0.5000 
     99 N          -5.8840  -22.0166  -51.2162 N.am      18 UNK        -0.5000 
    100 CA        -7.0161  -21.5524  -50.4155 C.3       18 UNK         0.1400 
    101 CB        -7.8879  -20.6097  -51.2600 C.3       18 UNK        -0.1800 
    102 C         -6.5007  -20.8376  -49.1547 C.2       18 UNK         0.5000 
    103 O         -7.0625  -21.0203  -48.0751 O.2       18 UNK        -0.5000 
    104 N         -5.4212  -20.0649  -49.3196 N.am      19 UNK        -0.5000 
    105 CA        -4.6766  -19.3627  -48.2823 C.3       19 UNK         0.1400 
    106 CB        -5.4912  -18.1709  -47.7305 C.3       19 UNK        -0.1800 
    107 C         -3.3294  -18.9844  -48.9139 C.2       19 UNK         0.5000 
    108 O         -2.6467  -19.8692  -49.4278 O.2       19 UNK        -0.5000 
    109 N         -2.9996  -17.6856  -48.9443 N.am      20 UNK        -0.5000 
    110 CA        -1.9576  -17.1390  -49.8198 C.3       20 UNK         0.1400 
    111 CB        -1.6049  -15.7169  -49.3582 C.3       20 UNK        -0.1800 
    112 C         -2.4041  -17.1430  -51.2992 C.2       20 UNK         0.5000 
    113 O         -1.5647  -17.2103  -52.1937 O.2       20 UNK        -0.5000 
    114 N         -3.7248  -17.0932  -51.5317 N.am      21 UNK        -0.5000 
    115 CA        -4.3448  -17.3713  -52.8233 C.3       21 UNK         0.1400 
    116 CB        -5.8015  -16.8839  -52.7974 C.3       21 UNK        -0.1800 
    117 C         -4.2805  -18.8814  -53.1081 C.2       21 UNK         0.5000 
    118 O         -4.6555  -19.6755  -52.2384 O.2       21 UNK        -0.5000 
    119 N         -3.8105  -19.2429  -54.3047 N.am      22 UNK        -0.5000 
    120 CA        -3.6154  -20.6286  -54.7485 C.3       22 UNK         0.1400 
    121 C         -4.1440  -20.8180  -56.1924 C.2       22 UNK         0.5000 
    122 N         -4.6606  -21.9946  -56.5159 N.am      22 UNK        -0.7600 
    123 O         -4.0627  -19.9207  -57.0293 O.2       22 UNK        -0.5000 
    124 C124       -2.1318  -21.0862  -54.6454 C.3       23 UNK        -0.0398 
    125 S125       -1.3902  -20.8683  -52.9869 S.3       23 UNK        -0.2404 
    126 C126        0.3849  -20.7703  -53.3799 C.3       23 UNK        -0.0205 
    127 H127       -1.9766  -10.8124  -49.6576 H         1 UNK         0.0600 
    128 H128       -1.9324  -12.2223  -48.5931 H         1 UNK         0.0600 
    129 H129       -2.1219  -12.4366  -50.3358 H         1 UNK         0.0600 
    130 H130       -0.2423  -13.1651  -51.2796 H         1 UNK         0.3000 
    131 H131        2.2385  -11.8619  -51.1273 H         1 UNK         0.0600 
    132 H132        1.5971  -13.0636  -53.1249 H         1 UNK         0.0800 
    133 H133        3.0771  -13.7479  -52.5344 H         1 UNK         0.0800 
    134 H134        3.3375  -15.9998  -51.4466 H         1 UNK         0.0800 
    135 H135        3.1584  -16.4119  -53.1362 H         1 UNK         0.0800 
    136 H136        1.2280  -18.1935  -53.6693 H         1 UNK         0.1150 
    137 H137        1.2268  -21.4408  -50.8696 H         1 UNK         0.1150 
    138 H138        3.1177  -17.7286  -49.8510 H         1 UNK         0.1150 
    139 H139        2.5371  -21.3004  -48.8555 H         1 UNK         0.0800 
    140 H140        3.7125  -20.0182  -48.7298 H         1 UNK         0.0800 
    141 H141       -0.0599  -20.4781  -48.7282 H         1 UNK         0.0800 
    142 H142       -0.6610  -19.5730  -47.3738 H         1 UNK         0.0800 
    143 H143        0.8575  -22.2053  -47.0583 H         1 UNK         0.0600 
    144 H144        0.0500  -20.3886  -45.0871 H         1 UNK         0.3000 
    145 H145       -0.4913  -22.7165  -42.4000 H         1 UNK         0.0600 
    146 H146        1.1574  -21.1443  -41.3773 H         1 UNK         0.0600 
    147 H147        1.9289  -22.3134  -42.4390 H         1 UNK         0.0600 
    148 H148        1.7022  -20.6595  -42.9805 H         1 UNK         0.0600 
    149 H149       -0.6951  -19.8331  -42.7689 H         1 UNK         0.3000 
    150 H150       -4.1939  -19.8661  -43.4174 H         1 UNK         0.0600 
    151 H151       -4.1772  -20.0846  -40.9295 H         1 UNK         0.0600 
    152 H152       -4.3478  -18.4063  -41.4206 H         1 UNK         0.0600 
    153 H153       -2.7960  -18.9993  -40.8317 H         1 UNK         0.0600 
    154 H154       -2.4174  -17.7033  -42.9247 H         1 UNK         0.3000 
    155 H155       -1.0255  -17.4802  -46.2217 H         1 UNK         0.0600 
    156 H156       -2.9690  -15.7064  -44.6522 H         1 UNK         0.0600 
    157 H157       -3.1553  -16.2214  -46.3218 H         1 UNK         0.0600 
    158 H158       -1.8439  -15.1414  -45.8831 H         1 UNK         0.0600 
    159 H159       -0.5153  -15.8997  -43.9485 H         1 UNK         0.3000 
    160 H160        2.0171  -17.9906  -42.4502 H         1 UNK         0.0600 
    161 H161        2.0484  -15.2630  -43.8435 H         1 UNK         0.0600 
    162 H162        3.1273  -16.6116  -44.1726 H         1 UNK         0.0600 
    163 H163        3.1917  -15.8048  -42.6167 H         1 UNK         0.0600 
    164 H164        0.6988  -15.5039  -41.7433 H         1 UNK         0.3000 
    165 H165       -1.6992  -16.9644  -39.5748 H         1 UNK         0.0600 
    166 H166       -0.6083  -15.4947  -37.8989 H         1 UNK         0.0600 
    167 H167        0.3662  -16.9307  -38.1683 H         1 UNK         0.0600 
    168 H168        0.8492  -15.3994  -38.8882 H         1 UNK         0.0600 
    169 H169       -0.9573  -14.2564  -40.1411 H         1 UNK         0.3000 
    170 H170       -2.9999  -13.8135  -43.0268 H         1 UNK         0.0600 
    171 H171       -4.5570  -13.5780  -41.0879 H         1 UNK         0.0600 
    172 H172       -3.2975  -12.7772  -40.1560 H         1 UNK         0.0600 
    173 H173       -3.9460  -12.0163  -41.6092 H         1 UNK         0.0600 
    174 H174       -1.3791  -12.0071  -41.5359 H         1 UNK         0.3000 
    175 H175        0.4195  -11.0998  -42.6399 H         1 UNK         0.0600 
    176 H176        2.2518  -13.5032  -42.0370 H         1 UNK         0.0600 
    177 H177        2.6243  -11.8165  -41.7017 H         1 UNK         0.0600 
    178 H178        1.3317  -12.6165  -40.8268 H         1 UNK         0.0600 
    179 H179        1.1854  -12.8029  -44.8145 H         1 UNK         0.3000 
    180 H180        2.1878  -10.3603  -46.6128 H         1 UNK         0.0600 
    181 H181        4.8628  -11.5051  -45.6686 H         1 UNK         0.0600 
    182 H182        4.4513   -9.8080  -45.8552 H         1 UNK         0.0600 
    183 H183        4.5551  -10.8384  -47.2723 H         1 UNK         0.0600 
    184 H184        1.7643  -12.2453  -47.5876 H         1 UNK         0.3000 
    185 H185        3.3920  -15.2773  -47.9048 H         1 UNK         0.0600 
    186 H186        1.9030  -16.2093  -46.2046 H         1 UNK         0.0600 
    187 H187        0.5933  -15.1265  -46.6609 H         1 UNK         0.0600 
    188 H188        1.1304  -16.3989  -47.7622 H         1 UNK         0.0600 
    189 H189        0.9443  -14.2313  -49.0058 H         1 UNK         0.3000 
    190 H190       -2.4160  -21.5395  -45.9148 H         1 UNK         0.3000 
    191 H191       -3.9754  -22.7125  -47.8831 H         1 UNK         0.0600 
    192 H192       -4.4893  -22.9356  -44.8711 H         1 UNK         0.0600 
    193 H193       -5.6828  -22.8748  -46.1573 H         1 UNK         0.0600 
    194 H194       -4.7398  -21.4462  -45.7671 H         1 UNK         0.0600 
    195 H195       -1.8007  -24.4009  -45.7192 H         1 UNK         0.3000 
    196 H196       -3.0906  -27.0085  -45.9147 H         1 UNK         0.0600 
    197 H197       -1.1016  -27.7593  -44.6569 H         1 UNK         0.0600 
    198 H198       -1.7605  -26.3110  -43.9121 H         1 UNK         0.0600 
    199 H199       -0.3095  -26.2103  -44.9098 H         1 UNK         0.0600 
    200 H200       -1.0780  -25.1762  -48.0645 H         1 UNK         0.3000 
    201 H201        0.3901  -27.4028  -49.2149 H         1 UNK         0.0600 
    202 H202        1.2613  -25.0529  -49.2189 H         1 UNK         0.0600 
    203 H203       -0.0651  -24.5603  -50.2664 H         1 UNK         0.0600 
    204 H204        1.1368  -25.7001  -50.8471 H         1 UNK         0.0600 
    205 H205        0.2194  -27.9780  -51.5135 H         1 UNK         0.3000 
    206 H206       -2.3375  -28.9591  -52.2191 H         1 UNK         0.0600 
    207 H207       -1.1730  -29.6626  -54.3187 H         1 UNK         0.0600 
    208 H208        0.2208  -28.6810  -53.8845 H         1 UNK         0.0600 
    209 H209       -0.2322  -30.0669  -52.8915 H         1 UNK         0.0600 
    210 H210       -3.9895  -28.0124  -53.1665 H         1 UNK         0.3000 
    211 H211       -5.3627  -26.6956  -54.2548 H         1 UNK         0.0600 
    212 H212       -3.0387  -25.8938  -56.0795 H         1 UNK         0.0600 
    213 H213       -4.7530  -25.7726  -56.4430 H         1 UNK         0.0600 
    214 H214       -4.0113  -27.3529  -56.2672 H         1 UNK         0.0600 
    215 H215       -3.6636  -25.5294  -51.9803 H         1 UNK         0.3000 
    216 H216       -3.8133  -22.6371  -52.5056 H         1 UNK         0.0600 
    217 H217       -2.8606  -22.4514  -50.2548 H         1 UNK         0.0600 
    218 H218       -1.9089  -23.5555  -51.2297 H         1 UNK         0.0600 
    219 H219       -3.0123  -24.1856  -50.0031 H         1 UNK         0.0600 
    220 H220       -5.3769  -21.2919  -51.7204 H         1 UNK         0.3000 
    221 H221       -7.6350  -22.3955  -50.1015 H         1 UNK         0.0600 
    222 H222       -7.3341  -19.7315  -51.5931 H         1 UNK         0.0600 
    223 H223       -8.2714  -21.1177  -52.1449 H         1 UNK         0.0600 
    224 H224       -8.7472  -20.2580  -50.6877 H         1 UNK         0.0600 
    225 H225       -5.0077  -20.0042  -50.2458 H         1 UNK         0.3000 
    226 H226       -4.4638  -20.0563  -47.4717 H         1 UNK         0.0600 
    227 H227       -6.4225  -18.5077  -47.2757 H         1 UNK         0.0600 
    228 H228       -4.9409  -17.6456  -46.9503 H         1 UNK         0.0600 
    229 H229       -5.7502  -17.4548  -48.5112 H         1 UNK         0.0600 
    230 H230       -3.6058  -17.0199  -48.4893 H         1 UNK         0.3000 
    231 H231       -1.0622  -17.7603  -49.7373 H         1 UNK         0.0600 
    232 H232       -1.2609  -15.7120  -48.3249 H         1 UNK         0.0600 
    233 H233       -2.4592  -15.0431  -49.4321 H         1 UNK         0.0600 
    234 H234       -0.8041  -15.3026  -49.9702 H         1 UNK         0.0600 
    235 H235       -4.3470  -17.0583  -50.7404 H         1 UNK         0.3000 
    236 H236       -3.8066  -16.8262  -53.6019 H         1 UNK         0.0600 
    237 H237       -6.2935  -17.0772  -53.7515 H         1 UNK         0.0600 
    238 H238       -6.3820  -17.3845  -52.0214 H         1 UNK         0.0600 
    239 H239       -5.8546  -15.8103  -52.6158 H         1 UNK         0.0600 
    240 H240       -3.5681  -18.5388  -54.9876 H         1 UNK         0.3000 
    241 H241       -4.2263  -21.2771  -54.1233 H         1 UNK         0.0600 
    242 H242       -5.0016  -22.1464  -57.4519 H         1 UNK         0.3800 
    243 H243       -4.7326  -22.7429  -55.8265 H         1 UNK         0.3800 
    244 H244       -1.5311  -20.5360  -55.3713 H         1 UNK         0.0800 
    245 H245       -2.0450  -22.1411  -54.9120 H         1 UNK         0.0800 
    246 H246        0.5263  -20.3667  -54.3831 H         1 UNK         0.0800 
    247 H247        0.8029  -21.7777  -53.3949 H         1 UNK         0.0800 
@<TRIPOS>BOND
     1    1    2 1    
     2    1  127 1    
     3    1  128 1    
     4    1  129 1    
     5    2    3 2    
     6    2    4 am   BACKBONE|DICT|INTERRES
     7    4    5 1    
     8    4  130 1    
     9    5    6 1    
    10    5   65 1    
    11    5  131 1    
    12    6    7 1    
    13    6  132 1    
    14    6  133 1    
    15    7    8 1    
    16    8    9 1    
    17    8  134 1    
    18    8  135 1    
    19    9   10 ar   
    20    9   14 ar   
    21   10   11 ar   
    22   10  136 1    
    23   11   12 ar   
    24   11  126 1    
    25   12   13 ar   
    26   12  137 1    
    27   13   14 ar   
    28   13   15 1    
    29   14  138 1    
    30   15   16 1    
    31   15  139 1    
    32   15  140 1    
    33   16   17 1    
    34   17   18 1    
    35   17  141 1    
    36   17  142 1    
    37   18   19 1    
    38   18   67 1    
    39   18  143 1    
    40   19   20 am   BACKBONE|DICT|INTERRES
    41   19  144 1    
    42   20   21 2    
    43   20   22 1    
    44   22   23 1    
    45   22   24 1    
    46   22  145 1    
    47   23  146 1    
    48   23  147 1    
    49   23  148 1    
    50   24   25 am   BACKBONE|DICT|INTERRES
    51   24  149 1    
    52   25   26 2    
    53   25   27 1    
    54   27   28 1    
    55   27   29 1    
    56   27  150 1    
    57   28  151 1    
    58   28  152 1    
    59   28  153 1    
    60   29   30 am   BACKBONE|DICT|INTERRES
    61   29  154 1    
    62   30   31 2    
    63   30   32 1    
    64   32   33 1    
    65   32   34 1    
    66   32  155 1    
    67   33  156 1    
    68   33  157 1    
    69   33  158 1    
    70   34   35 am   BACKBONE|DICT|INTERRES
    71   34  159 1    
    72   35   36 2    
    73   35   37 1    
    74   37   38 1    
    75   37   39 1    
    76   37  160 1    
    77   38  161 1    
    78   38  162 1    
    79   38  163 1    
    80   39   40 am   BACKBONE|DICT|INTERRES
    81   39  164 1    
    82   40   41 2    
    83   40   42 1    
    84   42   43 1    
    85   42   44 1    
    86   42  165 1    
    87   43  166 1    
    88   43  167 1    
    89   43  168 1    
    90   44   45 am   BACKBONE|DICT|INTERRES
    91   44  169 1    
    92   45   46 2    
    93   45   47 1    
    94   47   48 1    
    95   47   49 1    
    96   47  170 1    
    97   48  171 1    
    98   48  172 1    
    99   48  173 1    
   100   49   50 am   BACKBONE|DICT|INTERRES
   101   49  174 1    
   102   50   51 2    
   103   50   52 1    
   104   52   53 1    
   105   52   54 1    
   106   52  175 1    
   107   53  176 1    
   108   53  177 1    
   109   53  178 1    
   110   54   55 am   BACKBONE|DICT|INTERRES
   111   54  179 1    
   112   55   56 2    
   113   55   57 1    
   114   57   58 1    
   115   57   59 1    
   116   57  180 1    
   117   58  181 1    
   118   58  182 1    
   119   58  183 1    
   120   59   60 am   BACKBONE|DICT|INTERRES
   121   59  184 1    
   122   60   61 2    
   123   60   62 1    
   124   62   63 1    
   125   62   64 1    
   126   62  185 1    
   127   63  186 1    
   128   63  187 1    
   129   63  188 1    
   130   64   65 am   BACKBONE|DICT|INTERRES
   131   64  189 1    
   132   65   66 2    
   133   67   68 2    
   134   67   69 am   BACKBONE|DICT|INTERRES
   135   69   70 1    
   136   69  190 1    
   137   70   71 1    
   138   70   72 1    
   139   70  191 1    
   140   71  192 1    
   141   71  193 1    
   142   71  194 1    
   143   72   73 2    
   144   72   74 am   BACKBONE|DICT|INTERRES
   145   74   75 1    
   146   74  195 1    
   147   75   76 1    
   148   75   77 1    
   149   75  196 1    
   150   76  197 1    
   151   76  198 1    
   152   76  199 1    
   153   77   78 2    
   154   77   79 am   BACKBONE|DICT|INTERRES
   155   79   80 1    
   156   79  200 1    
   157   80   81 1    
   158   80   82 1    
   159   80  201 1    
   160   81  202 1    
   161   81  203 1    
   162   81  204 1    
   163   82   83 2    
   164   82   84 am   BACKBONE|DICT|INTERRES
   165   84   85 1    
   166   84  205 1    
   167   85   86 1    
   168   85   87 1    
   169   85  206 1    
   170   86  207 1    
   171   86  208 1    
   172   86  209 1    
   173   87   88 2    
   174   87   89 am   BACKBONE|DICT|INTERRES
   175   89   90 1    
   176   89  210 1    
   177   90   91 1    
   178   90   92 1    
   179   90  211 1    
   180   91  212 1    
   181   91  213 1    
   182   91  214 1    
   183   92   93 2    
   184   92   94 am   BACKBONE|DICT|INTERRES
   185   94   95 1    
   186   94  215 1    
   187   95   96 1    
   188   95   97 1    
   189   95  216 1    
   190   96  217 1    
   191   96  218 1    
   192   96  219 1    
   193   97   98 2    
   194   97   99 am   BACKBONE|DICT|INTERRES
   195   99  100 1    
   196   99  220 1    
   197  100  101 1    
   198  100  102 1    
   199  100  221 1    
   200  101  222 1    
   201  101  223 1    
   202  101  224 1    
   203  102  103 2    
   204  102  104 am   BACKBONE|DICT|INTERRES
   205  104  105 1    
   206  104  225 1    
   207  105  106 1    
   208  105  107 1    
   209  105  226 1    
   210  106  227 1    
   211  106  228 1    
   212  106  229 1    
   213  107  108 2    
   214  107  109 am   BACKBONE|DICT|INTERRES
   215  109  110 1    
   216  109  230 1    
   217  110  111 1    
   218  110  112 1    
   219  110  231 1    
   220  111  232 1    
   221  111  233 1    
   222  111  234 1    
   223  112  113 2    
   224  112  114 am   BACKBONE|DICT|INTERRES
   225  114  115 1    
   226  114  235 1    
   227  115  116 1    
   228  115  117 1    
   229  115  236 1    
   230  116  237 1    
   231  116  238 1    
   232  116  239 1    
   233  117  118 2    
   234  117  119 am   BACKBONE|DICT|INTERRES
   235  119  120 1    
   236  119  240 1    
   237  120  121 1    
   238  120  124 1    
   239  120  241 1    
   240  121  122 am   BACKBONE|DICT|INTERRES
   241  121  123 2    
   242  122  242 1    
   243  122  243 1    
   244  124  125 1    
   245  124  244 1    
   246  124  245 1    
   247  125  126 1    
   248  126  246 1    
   249  126  247 1    
@<TRIPOS>SUBSTRUCTURE
     1 UNK         1 GROUP             0       ****    0 ROOT    
