@<TRIPOS>MOLECULE
3R540
247   249    1
SMALL
USER_CHARGES


@<TRIPOS>ATOM
      1 CA          4.7643  -12.6724  -45.7690 C.3       0 UNK        -0.1800 
      2 C           3.2792  -12.9905  -45.6748 C.2       0 UNK         0.5000 
      3 O           2.7969  -13.3345  -44.5966 O.2       0 UNK        -0.5000 
      4 N           2.5612  -12.8853  -46.8005 N.am      1 UNK        -0.5000 
      5 CA          1.1245  -13.1646  -46.9264 C.3       1 UNK         0.1400 
      6 C6          0.6743  -13.1799  -48.4077 C.3       23 UNK        -0.0398 
      7 S7          1.4346  -14.5368  -49.3599 S.3       23 UNK        -0.2404 
      8 C8          0.1053  -15.7682  -49.2302 C.3       23 UNK        -0.0205 
      9 C9          0.4418  -17.0659  -49.9464 C.ar      23 UNK        -0.0193 
     10 C10        -0.2308  -17.4150  -51.1192 C.ar      23 UNK        -0.1150 
     11 C11         0.0497  -18.6198  -51.7681 C.ar      23 UNK        -0.0193 
     12 C12         1.0243  -19.4747  -51.2416 C.ar      23 UNK        -0.1150 
     13 C13         1.7105  -19.1342  -50.0706 C.ar      23 UNK        -0.0193 
     14 C14         1.4072  -17.9317  -49.4265 C.ar      23 UNK        -0.1150 
     15 C15         2.8075  -20.0379  -49.5183 C.3       23 UNK        -0.0205 
     16 S16         2.2142  -21.6956  -49.0524 S.3       23 UNK        -0.2404 
     17 C17         1.1348  -21.3308  -47.6300 C.3       23 UNK        -0.0398 
     18 CA          0.3984  -22.6057  -47.1546 C.3       11 UNK         0.1400 
     19 N           1.3047  -23.6016  -46.5764 N.am      11 UNK        -0.5000 
     20 C           0.9790  -24.8803  -46.3429 C.2       10 UNK         0.5000 
     21 O          -0.1282  -25.3609  -46.5819 O.2       10 UNK        -0.5000 
     22 CA          2.0612  -25.7556  -45.6871 C.3       10 UNK         0.1400 
     23 CB          3.1184  -26.1807  -46.7173 C.3       10 UNK        -0.1800 
     24 N           2.7151  -25.0852  -44.5629 N.am      10 UNK        -0.5000 
     25 C           2.0918  -24.7341  -43.4298 C.2       9 UNK         0.5000 
     26 O           0.9048  -24.9613  -43.2020 O.2       9 UNK        -0.5000 
     27 CA          2.9200  -23.9607  -42.3906 C.3       9 UNK         0.1400 
     28 CB          3.6810  -24.9331  -41.4771 C.3       9 UNK        -0.1800 
     29 N           3.8616  -22.9944  -42.9620 N.am      9 UNK        -0.5000 
     30 C           3.5352  -21.9796  -43.7734 C.2       8 UNK         0.5000 
     31 O           2.4146  -21.8139  -44.2610 O.2       8 UNK        -0.5000 
     32 CA          4.6500  -20.9610  -44.0726 C.3       8 UNK         0.1400 
     33 CB          4.8932  -20.8409  -45.5860 C.3       8 UNK        -0.1800 
     34 N           4.3050  -19.6451  -43.5374 N.am      8 UNK        -0.5000 
     35 C           4.0965  -19.3574  -42.2433 C.2       7 UNK         0.5000 
     36 O           4.3207  -20.1482  -41.3257 O.2       7 UNK        -0.5000 
     37 CA          3.5496  -17.9526  -41.9056 C.3       7 UNK         0.1400 
     38 CB          4.6355  -17.0992  -41.2311 C.3       7 UNK        -0.1800 
     39 N           3.0249  -17.2148  -43.0591 N.am      7 UNK        -0.5000 
     40 C           1.9345  -17.5465  -43.7627 C.2       6 UNK         0.5000 
     41 O           1.2204  -18.5165  -43.5027 O.2       6 UNK        -0.5000 
     42 CA          1.6414  -16.6594  -44.9866 C.3       6 UNK         0.1400 
     43 CB          2.7699  -16.7691  -46.0271 C.3       6 UNK        -0.1800 
     44 N           0.3721  -16.9908  -45.6330 N.am      6 UNK        -0.5000 
     45 C          -0.8277  -16.6475  -45.1523 C.2       5 UNK         0.5000 
     46 O          -0.9942  -16.0118  -44.1080 O.2       5 UNK        -0.5000 
     47 CA         -2.0474  -17.0982  -45.9793 C.3       5 UNK         0.1400 
     48 CB         -2.5286  -18.4897  -45.5404 C.3       5 UNK        -0.1800 
     49 N          -3.1409  -16.1377  -45.8388 N.am      5 UNK        -0.5000 
     50 C          -3.1603  -14.9346  -46.4275 C.2       4 UNK         0.5000 
     51 O          -2.3667  -14.6021  -47.3098 O.2       4 UNK        -0.5000 
     52 CA         -4.2439  -13.9421  -45.9673 C.3       4 UNK         0.1400 
     53 CB         -4.7363  -14.1848  -44.5237 C.3       4 UNK        -0.1800 
     54 N          -3.7372  -12.5755  -46.0919 N.am      4 UNK        -0.5000 
     55 C          -4.4957  -11.4937  -46.3166 C.2       3 UNK         0.5000 
     56 O          -5.7194  -11.5503  -46.4517 O.2       3 UNK        -0.5000 
     57 CA         -3.7930  -10.1219  -46.3958 C.3       3 UNK         0.1400 
     58 CB         -4.6250   -8.9967  -45.7514 C.3       3 UNK        -0.1800 
     59 N          -2.4670  -10.1521  -45.7804 N.am      3 UNK        -0.5000 
     60 C          -1.3819   -9.5219  -46.2439 C.2       2 UNK         0.5000 
     61 O          -1.3818   -8.7979  -47.2405 O.2       2 UNK        -0.5000 
     62 CA         -0.0567   -9.7657  -45.4926 C.3       2 UNK         0.1400 
     63 CB         -0.2282   -9.9024  -43.9634 C.3       2 UNK        -0.1800 
     64 N           0.6699  -10.9090  -46.0549 N.am      2 UNK        -0.5000 
     65 C           0.2453  -12.1804  -46.1279 C.2       1 UNK         0.5000 
     66 O          -0.7999  -12.5840  -45.6173 O.2       1 UNK        -0.5000 
     67 C          -0.7489  -22.2571  -46.1914 C.2       11 UNK         0.5000 
     68 O          -1.8861  -22.1106  -46.6425 O.2       11 UNK        -0.5000 
     69 N          -0.4396  -22.1682  -44.8906 N.am      12 UNK        -0.5000 
     70 CA         -1.4100  -21.9567  -43.8188 C.3       12 UNK         0.1400 
     71 CB         -0.6683  -21.6962  -42.4993 C.3       12 UNK        -0.1800 
     72 C          -2.3983  -23.1292  -43.6771 C.2       12 UNK         0.5000 
     73 O          -3.6032  -22.8936  -43.5875 O.2       12 UNK        -0.5000 
     74 N          -1.8789  -24.3657  -43.6861 N.am      13 UNK        -0.5000 
     75 CA         -2.6635  -25.5976  -43.5815 C.3       13 UNK         0.1400 
     76 CB         -1.7250  -26.7902  -43.3432 C.3       13 UNK        -0.1800 
     77 C          -3.5544  -25.8514  -44.8095 C.2       13 UNK         0.5000 
     78 O          -4.7080  -26.2518  -44.6483 O.2       13 UNK        -0.5000 
     79 N          -3.0127  -25.6064  -46.0105 N.am      14 UNK        -0.5000 
     80 CA         -3.7271  -25.7607  -47.2791 C.3       14 UNK         0.1400 
     81 CB         -2.7044  -25.8162  -48.4254 C.3       14 UNK        -0.1800 
     82 C          -4.7493  -24.6412  -47.5497 C.2       14 UNK         0.5000 
     83 O          -5.6400  -24.8387  -48.3767 O.2       14 UNK        -0.5000 
     84 N          -4.5743  -23.4850  -46.8887 N.am      15 UNK        -0.5000 
     85 CA         -5.2322  -22.2020  -47.1606 C.3       15 UNK         0.1400 
     86 CB         -6.7419  -22.2620  -46.8509 C.3       15 UNK        -0.1800 
     87 C          -4.9195  -21.7306  -48.5949 C.2       15 UNK         0.5000 
     88 O          -5.8220  -21.3732  -49.3549 O.2       15 UNK        -0.5000 
     89 N          -3.6263  -21.7849  -48.9457 N.am      16 UNK        -0.5000 
     90 CA         -3.1024  -21.6314  -50.3045 C.3       16 UNK         0.1400 
     91 CB         -1.5824  -21.8329  -50.2907 C.3       16 UNK        -0.1800 
     92 C          -3.4600  -20.2987  -50.9787 C.2       16 UNK         0.5000 
     93 O          -3.6548  -20.2777  -52.1932 O.2       16 UNK        -0.5000 
     94 N          -3.5682  -19.2290  -50.1807 N.am      17 UNK        -0.5000 
     95 CA         -3.9736  -17.8950  -50.6221 C.3       17 UNK         0.1400 
     96 CB         -3.6840  -16.8911  -49.4985 C.3       17 UNK        -0.1800 
     97 C          -5.4530  -17.8174  -51.0419 C.2       17 UNK         0.5000 
     98 O          -5.7797  -17.0661  -51.9605 O.2       17 UNK        -0.5000 
     99 N          -6.3152  -18.5966  -50.3746 N.am      18 UNK        -0.5000 
    100 CA        -7.7413  -18.6987  -50.6849 C.3       18 UNK         0.1400 
    101 CB        -8.5099  -19.1381  -49.4287 C.3       18 UNK        -0.1800 
    102 C         -7.9881  -19.6741  -51.8472 C.2       18 UNK         0.5000 
    103 O         -8.8343  -19.4058  -52.7006 O.2       18 UNK        -0.5000 
    104 N         -7.2277  -20.7773  -51.8682 N.am      19 UNK        -0.5000 
    105 CA        -7.2619  -21.7970  -52.9172 C.3       19 UNK         0.1400 
    106 CB        -6.5377  -23.0511  -52.4029 C.3       19 UNK        -0.1800 
    107 C         -6.6377  -21.3326  -54.2491 C.2       19 UNK         0.5000 
    108 O         -6.9552  -21.9067  -55.2911 O.2       19 UNK        -0.5000 
    109 N         -5.7455  -20.3320  -54.1813 N.am      20 UNK        -0.5000 
    110 CA        -4.8812  -19.8220  -55.2529 C.3       20 UNK         0.1400 
    111 CB        -5.7088  -19.1764  -56.3829 C.3       20 UNK        -0.1800 
    112 C         -3.8898  -20.8941  -55.7555 C.2       20 UNK         0.5000 
    113 O         -3.5758  -20.9511  -56.9462 O.2       20 UNK        -0.5000 
    114 N         -3.4115  -21.7312  -54.8232 N.am      21 UNK        -0.5000 
    115 CA        -2.5867  -22.9168  -55.0796 C.3       21 UNK         0.1400 
    116 CB        -2.4682  -23.7253  -53.7786 C.3       21 UNK        -0.1800 
    117 C         -1.1912  -22.6027  -55.6535 C.2       21 UNK         0.5000 
    118 O         -0.5910  -23.4595  -56.3030 O.2       21 UNK        -0.5000 
    119 N         -0.7139  -21.3785  -55.4112 N.am      22 UNK        -0.5000 
    120 CA         0.5239  -20.8107  -55.9606 C.3       22 UNK         0.1400 
    121 C          0.3839  -20.2519  -57.4095 C.2       22 UNK         0.5000 
    122 N         -0.8004  -20.2290  -58.0130 N.am      22 UNK        -0.7600 
    123 O          1.3767  -19.8472  -58.0083 O.2       22 UNK        -0.5000 
    124 C124        1.1507  -19.7824  -54.9799 C.3       23 UNK        -0.0398 
    125 S125        0.0380  -18.3971  -54.5457 S.3       23 UNK        -0.2404 
    126 C126       -0.7348  -19.0019  -53.0130 C.3       23 UNK        -0.0205 
    127 H127        5.0548  -12.3854  -46.7798 H         1 UNK         0.0600 
    128 H128        5.3526  -13.5435  -45.4806 H         1 UNK         0.0600 
    129 H129        5.0153  -11.8520  -45.0967 H         1 UNK         0.0600 
    130 H130        3.0277  -12.6229  -47.6572 H         1 UNK         0.3000 
    131 H131        0.9398  -14.1549  -46.5070 H         1 UNK         0.0600 
    132 H132       -0.4112  -13.2623  -48.4869 H         1 UNK         0.0800 
    133 H133        0.9321  -12.2376  -48.8941 H         1 UNK         0.0800 
    134 H134       -0.8151  -15.3400  -49.6302 H         1 UNK         0.0800 
    135 H135       -0.0834  -15.9723  -48.1784 H         1 UNK         0.0800 
    136 H136       -0.9824  -16.7524  -51.5244 H         1 UNK         0.1150 
    137 H137        1.2480  -20.4094  -51.7352 H         1 UNK         0.1150 
    138 H138        1.9379  -17.6566  -48.5295 H         1 UNK         0.1150 
    139 H139        3.2941  -19.5811  -48.6550 H         1 UNK         0.0800 
    140 H140        3.5811  -20.1476  -50.2793 H         1 UNK         0.0800 
    141 H141        0.4235  -20.5607  -47.9324 H         1 UNK         0.0800 
    142 H142        1.7291  -20.8998  -46.8230 H         1 UNK         0.0800 
    143 H143       -0.0662  -23.0686  -48.0265 H         1 UNK         0.0600 
    144 H144        2.2159  -23.2705  -46.2957 H         1 UNK         0.3000 
    145 H145        1.5744  -26.6561  -45.3063 H         1 UNK         0.0600 
    146 H146        2.6553  -26.6939  -47.5612 H         1 UNK         0.0600 
    147 H147        3.8423  -26.8675  -46.2784 H         1 UNK         0.0600 
    148 H148        3.6653  -25.3244  -47.1140 H         1 UNK         0.0600 
    149 H149        3.6910  -24.8509  -44.6689 H         1 UNK         0.3000 
    150 H150        2.2186  -23.3971  -41.7724 H         1 UNK         0.0600 
    151 H151        4.1812  -24.4034  -40.6661 H         1 UNK         0.0600 
    152 H152        3.0010  -25.6540  -41.0208 H         1 UNK         0.0600 
    153 H153        4.4357  -25.4962  -42.0275 H         1 UNK         0.0600 
    154 H154        4.8055  -23.0377  -42.6059 H         1 UNK         0.3000 
    155 H155        5.5774  -21.2898  -43.5994 H         1 UNK         0.0600 
    156 H156        4.0170  -20.4554  -46.1082 H         1 UNK         0.0600 
    157 H157        5.1342  -21.8112  -46.0221 H         1 UNK         0.0600 
    158 H158        5.7282  -20.1732  -45.7988 H         1 UNK         0.0600 
    159 H159        4.0756  -18.9347  -44.2142 H         1 UNK         0.3000 
    160 H160        2.7316  -18.0895  -41.1954 H         1 UNK         0.0600 
    161 H161        5.4765  -16.9160  -41.9011 H         1 UNK         0.0600 
    162 H162        5.0269  -17.5939  -40.3412 H         1 UNK         0.0600 
    163 H163        4.2400  -16.1336  -40.9150 H         1 UNK         0.0600 
    164 H164        3.5507  -16.3982  -43.3368 H         1 UNK         0.3000 
    165 H165        1.5875  -15.6279  -44.6364 H         1 UNK         0.0600 
    166 H166        3.7268  -16.4491  -45.6138 H         1 UNK         0.0600 
    167 H167        2.8930  -17.7930  -46.3821 H         1 UNK         0.0600 
    168 H168        2.5745  -16.1288  -46.8870 H         1 UNK         0.0600 
    169 H169        0.4265  -17.5733  -46.4536 H         1 UNK         0.3000 
    170 H170       -1.7618  -17.1561  -47.0303 H         1 UNK         0.0600 
    171 H171       -2.8179  -18.5038  -44.4888 H         1 UNK         0.0600 
    172 H172       -1.7400  -19.2311  -45.6741 H         1 UNK         0.0600 
    173 H173       -3.3844  -18.8181  -46.1305 H         1 UNK         0.0600 
    174 H174       -3.8006  -16.3195  -45.0973 H         1 UNK         0.3000 
    175 H175       -5.0852  -14.0746  -46.6504 H         1 UNK         0.0600 
    176 H176       -5.4659  -13.4328  -44.2230 H         1 UNK         0.0600 
    177 H177       -5.2275  -15.1532  -44.4245 H         1 UNK         0.0600 
    178 H178       -3.9121  -14.1500  -43.8097 H         1 UNK         0.0600 
    179 H179       -2.7233  -12.4952  -46.0592 H         1 UNK         0.3000 
    180 H180       -3.6934   -9.9054  -47.4614 H         1 UNK         0.0600 
    181 H181       -4.7877   -9.1797  -44.6887 H         1 UNK         0.0600 
    182 H182       -5.6031   -8.9055  -46.2250 H         1 UNK         0.0600 
    183 H183       -4.1287   -8.0315  -45.8530 H         1 UNK         0.0600 
    184 H184       -2.3598  -10.7657  -44.9838 H         1 UNK         0.3000 
    185 H185        0.5655   -8.8871  -45.6699 H         1 UNK         0.0600 
    186 H186       -0.7591   -9.0423  -43.5538 H         1 UNK         0.0600 
    187 H187       -0.7820  -10.7963  -43.6769 H         1 UNK         0.0600 
    188 H188        0.7421   -9.9478  -43.4688 H         1 UNK         0.0600 
    189 H189        1.5419  -10.6836  -46.5124 H         1 UNK         0.3000 
    190 H190        0.5356  -22.2479  -44.6155 H         1 UNK         0.3000 
    191 H191       -1.9880  -21.0636  -44.0620 H         1 UNK         0.0600 
    192 H192       -0.0007  -20.8387  -42.5858 H         1 UNK         0.0600 
    193 H193       -1.3705  -21.4833  -41.6925 H         1 UNK         0.0600 
    194 H194       -0.0695  -22.5548  -42.1961 H         1 UNK         0.0600 
    195 H195       -0.8688  -24.4780  -43.7178 H         1 UNK         0.3000 
    196 H196       -3.3176  -25.5048  -42.7120 H         1 UNK         0.0600 
    197 H197       -1.0076  -26.9060  -44.1567 H         1 UNK         0.0600 
    198 H198       -2.2865  -27.7218  -43.2632 H         1 UNK         0.0600 
    199 H199       -1.1634  -26.6697  -42.4167 H         1 UNK         0.0600 
    200 H200       -2.0349  -25.3359  -46.0695 H         1 UNK         0.3000 
    201 H201       -4.2700  -26.7080  -47.2602 H         1 UNK         0.0600 
    202 H202       -3.1983  -25.9639  -49.3866 H         1 UNK         0.0600 
    203 H203       -2.0042  -26.6406  -48.2903 H         1 UNK         0.0600 
    204 H204       -2.1271  -24.8930  -48.4919 H         1 UNK         0.0600 
    205 H205       -3.7912  -23.4344  -46.2501 H         1 UNK         0.3000 
    206 H206       -4.7818  -21.4729  -46.4854 H         1 UNK         0.0600 
    207 H207       -7.2751  -22.9219  -47.5356 H         1 UNK         0.0600 
    208 H208       -6.9208  -22.6157  -45.8356 H         1 UNK         0.0600 
    209 H209       -7.1938  -21.2732  -46.9358 H         1 UNK         0.0600 
    210 H210       -2.9575  -22.0409  -48.2242 H         1 UNK         0.3000 
    211 H211       -3.5403  -22.4264  -50.9097 H         1 UNK         0.0600 
    212 H212       -1.1555  -21.7090  -51.2856 H         1 UNK         0.0600 
    213 H213       -1.3238  -22.8368  -49.9563 H         1 UNK         0.0600 
    214 H214       -1.0914  -21.1138  -49.6363 H         1 UNK         0.0600 
    215 H215       -3.3908  -19.3516  -49.1954 H         1 UNK         0.3000 
    216 H216       -3.3698  -17.6221  -51.4891 H         1 UNK         0.0600 
    217 H217       -4.2588  -17.1137  -48.5987 H         1 UNK         0.0600 
    218 H218       -2.6290  -16.8988  -49.2314 H         1 UNK         0.0600 
    219 H219       -3.9323  -15.8742  -49.8049 H         1 UNK         0.0600 
    220 H220       -5.9584  -19.2455  -49.6850 H         1 UNK         0.3000 
    221 H221       -8.1154  -17.7164  -50.9815 H         1 UNK         0.0600 
    222 H222       -8.2014  -20.1266  -49.0874 H         1 UNK         0.0600 
    223 H223       -8.3568  -18.4374  -48.6079 H         1 UNK         0.0600 
    224 H224       -9.5820  -19.1804  -49.6247 H         1 UNK         0.0600 
    225 H225       -6.6054  -20.9488  -51.0834 H         1 UNK         0.3000 
    226 H226       -8.3047  -22.0567  -53.1110 H         1 UNK         0.0600 
    227 H227       -6.9889  -23.4195  -51.4811 H         1 UNK         0.0600 
    228 H228       -6.5840  -23.8587  -53.1345 H         1 UNK         0.0600 
    229 H229       -5.4856  -22.8507  -52.2020 H         1 UNK         0.0600 
    230 H230       -5.5167  -19.9866  -53.2577 H         1 UNK         0.3000 
    231 H231       -4.2729  -19.0368  -54.8016 H         1 UNK         0.0600 
    232 H232       -6.2890  -19.9149  -56.9366 H         1 UNK         0.0600 
    233 H233       -5.0608  -18.6691  -57.0985 H         1 UNK         0.0600 
    234 H234       -6.4006  -18.4325  -55.9879 H         1 UNK         0.0600 
    235 H235       -3.6702  -21.5503  -53.8603 H         1 UNK         0.3000 
    236 H236       -3.1096  -23.5297  -55.8166 H         1 UNK         0.0600 
    237 H237       -1.9605  -23.1577  -52.9994 H         1 UNK         0.0600 
    238 H238       -3.4491  -24.0143  -53.4008 H         1 UNK         0.0600 
    239 H239       -1.8998  -24.6424  -53.9386 H         1 UNK         0.0600 
    240 H240       -1.3004  -20.7349  -54.9026 H         1 UNK         0.3000 
    241 H241        1.2437  -21.6268  -56.0479 H         1 UNK         0.0600 
    242 H242       -0.8651  -19.8704  -58.9524 H         1 UNK         0.3800 
    243 H243       -1.6385  -20.5617  -57.5503 H         1 UNK         0.3800 
    244 H244        2.0684  -19.3658  -55.3982 H         1 UNK         0.0800 
    245 H245        1.4602  -20.2925  -54.0682 H         1 UNK         0.0800 
    246 H246       -0.8734  -20.0816  -53.0484 H         1 UNK         0.0800 
    247 H247       -1.7361  -18.5751  -52.9567 H         1 UNK         0.0800 
@<TRIPOS>BOND
     1    1    2 1    
     2    1  127 1    
     3    1  128 1    
     4    1  129 1    
     5    2    3 2    
     6    2    4 am   BACKBONE|DICT|INTERRES
     7    4    5 1    
     8    4  130 1    
     9    5    6 1    
    10    5   65 1    
    11    5  131 1    
    12    6    7 1    
    13    6  132 1    
    14    6  133 1    
    15    7    8 1    
    16    8    9 1    
    17    8  134 1    
    18    8  135 1    
    19    9   10 ar   
    20    9   14 ar   
    21   10   11 ar   
    22   10  136 1    
    23   11   12 ar   
    24   11  126 1    
    25   12   13 ar   
    26   12  137 1    
    27   13   14 ar   
    28   13   15 1    
    29   14  138 1    
    30   15   16 1    
    31   15  139 1    
    32   15  140 1    
    33   16   17 1    
    34   17   18 1    
    35   17  141 1    
    36   17  142 1    
    37   18   19 1    
    38   18   67 1    
    39   18  143 1    
    40   19   20 am   BACKBONE|DICT|INTERRES
    41   19  144 1    
    42   20   21 2    
    43   20   22 1    
    44   22   23 1    
    45   22   24 1    
    46   22  145 1    
    47   23  146 1    
    48   23  147 1    
    49   23  148 1    
    50   24   25 am   BACKBONE|DICT|INTERRES
    51   24  149 1    
    52   25   26 2    
    53   25   27 1    
    54   27   28 1    
    55   27   29 1    
    56   27  150 1    
    57   28  151 1    
    58   28  152 1    
    59   28  153 1    
    60   29   30 am   BACKBONE|DICT|INTERRES
    61   29  154 1    
    62   30   31 2    
    63   30   32 1    
    64   32   33 1    
    65   32   34 1    
    66   32  155 1    
    67   33  156 1    
    68   33  157 1    
    69   33  158 1    
    70   34   35 am   BACKBONE|DICT|INTERRES
    71   34  159 1    
    72   35   36 2    
    73   35   37 1    
    74   37   38 1    
    75   37   39 1    
    76   37  160 1    
    77   38  161 1    
    78   38  162 1    
    79   38  163 1    
    80   39   40 am   BACKBONE|DICT|INTERRES
    81   39  164 1    
    82   40   41 2    
    83   40   42 1    
    84   42   43 1    
    85   42   44 1    
    86   42  165 1    
    87   43  166 1    
    88   43  167 1    
    89   43  168 1    
    90   44   45 am   BACKBONE|DICT|INTERRES
    91   44  169 1    
    92   45   46 2    
    93   45   47 1    
    94   47   48 1    
    95   47   49 1    
    96   47  170 1    
    97   48  171 1    
    98   48  172 1    
    99   48  173 1    
   100   49   50 am   BACKBONE|DICT|INTERRES
   101   49  174 1    
   102   50   51 2    
   103   50   52 1    
   104   52   53 1    
   105   52   54 1    
   106   52  175 1    
   107   53  176 1    
   108   53  177 1    
   109   53  178 1    
   110   54   55 am   BACKBONE|DICT|INTERRES
   111   54  179 1    
   112   55   56 2    
   113   55   57 1    
   114   57   58 1    
   115   57   59 1    
   116   57  180 1    
   117   58  181 1    
   118   58  182 1    
   119   58  183 1    
   120   59   60 am   BACKBONE|DICT|INTERRES
   121   59  184 1    
   122   60   61 2    
   123   60   62 1    
   124   62   63 1    
   125   62   64 1    
   126   62  185 1    
   127   63  186 1    
   128   63  187 1    
   129   63  188 1    
   130   64   65 am   BACKBONE|DICT|INTERRES
   131   64  189 1    
   132   65   66 2    
   133   67   68 2    
   134   67   69 am   BACKBONE|DICT|INTERRES
   135   69   70 1    
   136   69  190 1    
   137   70   71 1    
   138   70   72 1    
   139   70  191 1    
   140   71  192 1    
   141   71  193 1    
   142   71  194 1    
   143   72   73 2    
   144   72   74 am   BACKBONE|DICT|INTERRES
   145   74   75 1    
   146   74  195 1    
   147   75   76 1    
   148   75   77 1    
   149   75  196 1    
   150   76  197 1    
   151   76  198 1    
   152   76  199 1    
   153   77   78 2    
   154   77   79 am   BACKBONE|DICT|INTERRES
   155   79   80 1    
   156   79  200 1    
   157   80   81 1    
   158   80   82 1    
   159   80  201 1    
   160   81  202 1    
   161   81  203 1    
   162   81  204 1    
   163   82   83 2    
   164   82   84 am   BACKBONE|DICT|INTERRES
   165   84   85 1    
   166   84  205 1    
   167   85   86 1    
   168   85   87 1    
   169   85  206 1    
   170   86  207 1    
   171   86  208 1    
   172   86  209 1    
   173   87   88 2    
   174   87   89 am   BACKBONE|DICT|INTERRES
   175   89   90 1    
   176   89  210 1    
   177   90   91 1    
   178   90   92 1    
   179   90  211 1    
   180   91  212 1    
   181   91  213 1    
   182   91  214 1    
   183   92   93 2    
   184   92   94 am   BACKBONE|DICT|INTERRES
   185   94   95 1    
   186   94  215 1    
   187   95   96 1    
   188   95   97 1    
   189   95  216 1    
   190   96  217 1    
   191   96  218 1    
   192   96  219 1    
   193   97   98 2    
   194   97   99 am   BACKBONE|DICT|INTERRES
   195   99  100 1    
   196   99  220 1    
   197  100  101 1    
   198  100  102 1    
   199  100  221 1    
   200  101  222 1    
   201  101  223 1    
   202  101  224 1    
   203  102  103 2    
   204  102  104 am   BACKBONE|DICT|INTERRES
   205  104  105 1    
   206  104  225 1    
   207  105  106 1    
   208  105  107 1    
   209  105  226 1    
   210  106  227 1    
   211  106  228 1    
   212  106  229 1    
   213  107  108 2    
   214  107  109 am   BACKBONE|DICT|INTERRES
   215  109  110 1    
   216  109  230 1    
   217  110  111 1    
   218  110  112 1    
   219  110  231 1    
   220  111  232 1    
   221  111  233 1    
   222  111  234 1    
   223  112  113 2    
   224  112  114 am   BACKBONE|DICT|INTERRES
   225  114  115 1    
   226  114  235 1    
   227  115  116 1    
   228  115  117 1    
   229  115  236 1    
   230  116  237 1    
   231  116  238 1    
   232  116  239 1    
   233  117  118 2    
   234  117  119 am   BACKBONE|DICT|INTERRES
   235  119  120 1    
   236  119  240 1    
   237  120  121 1    
   238  120  124 1    
   239  120  241 1    
   240  121  122 am   BACKBONE|DICT|INTERRES
   241  121  123 2    
   242  122  242 1    
   243  122  243 1    
   244  124  125 1    
   245  124  244 1    
   246  124  245 1    
   247  125  126 1    
   248  126  246 1    
   249  126  247 1    
@<TRIPOS>SUBSTRUCTURE
     1 UNK         1 GROUP             0       ****    0 ROOT    
