@<TRIPOS>MOLECULE
3R540
247   249    1
SMALL
USER_CHARGES


@<TRIPOS>ATOM
      1 CA          1.4974  -14.2375  -51.4377 C.3       0 UNK        -0.1800 
      2 C           1.7849  -14.2788  -49.9443 C.2       0 UNK         0.5000 
      3 O           2.5180  -15.1549  -49.4844 O.2       0 UNK        -0.5000 
      4 N           1.2174  -13.3349  -49.1824 N.am      1 UNK        -0.5000 
      5 CA          1.2659  -13.2614  -47.7158 C.3       1 UNK         0.1400 
      6 C6          0.0731  -12.4631  -47.1211 C.3       23 UNK        -0.0398 
      7 S7         -1.5708  -12.8929  -47.7967 S.3       23 UNK        -0.2404 
      8 C8         -1.8896  -14.5417  -47.0941 C.3       23 UNK        -0.0205 
      9 C9         -1.6483  -15.6378  -48.1218 C.ar      23 UNK        -0.0193 
     10 C10        -2.5989  -15.8871  -49.1170 C.ar      23 UNK        -0.1150 
     11 C11        -2.3824  -16.8817  -50.0756 C.ar      23 UNK        -0.0193 
     12 C12        -1.1939  -17.6152  -50.0441 C.ar      23 UNK        -0.1150 
     13 C13        -0.2414  -17.3841  -49.0497 C.ar      23 UNK        -0.0193 
     14 C14        -0.4842  -16.4088  -48.0798 C.ar      23 UNK        -0.1150 
     15 C15         1.0595  -18.1749  -49.0237 C.3       23 UNK        -0.0205 
     16 S16         0.8298  -19.9851  -48.9849 S.3       23 UNK        -0.2404 
     17 C17        -0.6016  -20.1935  -47.8766 C.3       23 UNK        -0.0398 
     18 CA         -0.6412  -21.6104  -47.2635 C.3       11 UNK         0.1400 
     19 N           0.2684  -21.7264  -46.1242 N.am      11 UNK        -0.5000 
     20 C           0.5922  -22.8521  -45.4778 C.2       10 UNK         0.5000 
     21 O           0.1867  -23.9636  -45.8196 O.2       10 UNK        -0.5000 
     22 CA          1.4382  -22.6976  -44.1941 C.3       10 UNK         0.1400 
     23 CB          2.5147  -23.7930  -44.0600 C.3       10 UNK        -0.1800 
     24 N           1.9951  -21.3480  -44.0160 N.am      10 UNK        -0.5000 
     25 C           2.9630  -20.7488  -44.7276 C.2       9 UNK         0.5000 
     26 O           3.6239  -21.3104  -45.6007 O.2       9 UNK        -0.5000 
     27 CA          3.1999  -19.2474  -44.4611 C.3       9 UNK         0.1400 
     28 CB          2.6366  -18.4186  -45.6251 C.3       9 UNK        -0.1800 
     29 N           2.5973  -18.7682  -43.2160 N.am      9 UNK        -0.5000 
     30 C           3.0989  -18.9909  -41.9933 C.2       8 UNK         0.5000 
     31 O           4.1462  -19.6024  -41.7820 O.2       8 UNK        -0.5000 
     32 CA          2.2698  -18.4669  -40.8072 C.3       8 UNK         0.1400 
     33 CB          2.6003  -16.9963  -40.5107 C.3       8 UNK        -0.1800 
     34 N           0.8309  -18.6035  -41.0369 N.am      8 UNK        -0.5000 
     35 C           0.1693  -19.7696  -41.0352 C.2       7 UNK         0.5000 
     36 O           0.6986  -20.8593  -40.8189 O.2       7 UNK        -0.5000 
     37 CA         -1.3302  -19.7093  -41.3738 C.3       7 UNK         0.1400 
     38 CB         -2.1607  -19.3875  -40.1228 C.3       7 UNK        -0.1800 
     39 N          -1.6250  -18.7271  -42.4175 N.am      7 UNK        -0.5000 
     40 C          -1.2682  -18.8590  -43.7021 C.2       6 UNK         0.5000 
     41 O          -0.7129  -19.8582  -44.1563 O.2       6 UNK        -0.5000 
     42 CA         -1.5623  -17.6722  -44.6343 C.3       6 UNK         0.1400 
     43 CB         -2.9292  -17.8513  -45.3113 C.3       6 UNK        -0.1800 
     44 N          -1.5149  -16.3829  -43.9403 N.am      6 UNK        -0.5000 
     45 C          -0.3925  -15.8349  -43.4572 C.2       5 UNK         0.5000 
     46 O           0.7241  -16.3514  -43.5597 O.2       5 UNK        -0.5000 
     47 CA         -0.5527  -14.5182  -42.6916 C.3       5 UNK         0.1400 
     48 CB         -0.7869  -14.7913  -41.1945 C.3       5 UNK        -0.1800 
     49 N           0.6513  -13.7191  -42.8808 N.am      5 UNK        -0.5000 
     50 C           0.7504  -12.3994  -42.6830 C.2       4 UNK         0.5000 
     51 O          -0.1877  -11.7075  -42.2845 O.2       4 UNK        -0.5000 
     52 CA          2.0909  -11.7141  -43.0241 C.3       4 UNK         0.1400 
     53 CB          2.6133  -10.8437  -41.8623 C.3       4 UNK        -0.1800 
     54 N           3.1289  -12.6177  -43.5388 N.am      4 UNK        -0.5000 
     55 C           3.8545  -13.5308  -42.8734 C.2       3 UNK         0.5000 
     56 O           3.7447  -13.7396  -41.6658 O.2       3 UNK        -0.5000 
     57 CA          4.8437  -14.3878  -43.6947 C.3       3 UNK         0.1400 
     58 CB          4.5990  -15.8840  -43.4481 C.3       3 UNK        -0.1800 
     59 N           4.7545  -14.1370  -45.1356 N.am      3 UNK        -0.5000 
     60 C           5.4432  -13.1995  -45.8000 C.2       2 UNK         0.5000 
     61 O           6.2822  -12.4660  -45.2767 O.2       2 UNK        -0.5000 
     62 CA          5.1109  -13.0308  -47.2962 C.3       2 UNK         0.1400 
     63 CB          6.0603  -13.8769  -48.1574 C.3       2 UNK        -0.1800 
     64 N           3.7263  -13.3721  -47.6404 N.am      2 UNK        -0.5000 
     65 C           2.6288  -12.7520  -47.1883 C.2       1 UNK         0.5000 
     66 O           2.6715  -11.8251  -46.3783 O.2       1 UNK        -0.5000 
     67 C          -2.0853  -21.9919  -46.8889 C.2       11 UNK         0.5000 
     68 O          -2.7982  -22.5310  -47.7350 O.2       11 UNK        -0.5000 
     69 N          -2.4829  -21.7383  -45.6334 N.am      12 UNK        -0.5000 
     70 CA         -3.7798  -22.1418  -45.0873 C.3       12 UNK         0.1400 
     71 CB         -4.0118  -21.4427  -43.7402 C.3       12 UNK        -0.1800 
     72 C          -3.9001  -23.6694  -44.9306 C.2       12 UNK         0.5000 
     73 O          -4.9707  -24.2212  -45.1825 O.2       12 UNK        -0.5000 
     74 N          -2.7935  -24.3245  -44.5495 N.am      13 UNK        -0.5000 
     75 CA         -2.6924  -25.7800  -44.4256 C.3       13 UNK         0.1400 
     76 CB         -1.4681  -26.1406  -43.5698 C.3       13 UNK        -0.1800 
     77 C          -2.6285  -26.4693  -45.8002 C.2       13 UNK         0.5000 
     78 O          -3.2470  -27.5177  -45.9854 O.2       13 UNK        -0.5000 
     79 N          -1.9115  -25.8480  -46.7475 N.am      14 UNK        -0.5000 
     80 CA         -1.8268  -26.2733  -48.1472 C.3       14 UNK         0.1400 
     81 CB         -0.6512  -25.5424  -48.8138 C.3       14 UNK        -0.1800 
     82 C          -3.1246  -26.0267  -48.9455 C.2       14 UNK         0.5000 
     83 O          -3.3019  -26.6326  -50.0026 O.2       14 UNK        -0.5000 
     84 N          -3.9862  -25.1337  -48.4350 N.am      15 UNK        -0.5000 
     85 CA         -5.2272  -24.6312  -49.0312 C.3       15 UNK         0.1400 
     86 CB         -6.2694  -25.7577  -49.1842 C.3       15 UNK        -0.1800 
     87 C          -4.9727  -23.8548  -50.3395 C.2       15 UNK         0.5000 
     88 O          -5.7494  -23.9615  -51.2898 O.2       15 UNK        -0.5000 
     89 N          -3.8901  -23.0639  -50.3616 N.am      16 UNK        -0.5000 
     90 CA         -3.4040  -22.3275  -51.5333 C.3       16 UNK         0.1400 
     91 CB         -2.0465  -21.6909  -51.2024 C.3       16 UNK        -0.1800 
     92 C          -4.3821  -21.2575  -52.0536 C.2       16 UNK         0.5000 
     93 O          -4.3366  -20.9181  -53.2342 O.2       16 UNK        -0.5000 
     94 N          -5.2539  -20.7481  -51.1747 N.am      17 UNK        -0.5000 
     95 CA         -6.3261  -19.8173  -51.5262 C.3       17 UNK         0.1400 
     96 CB         -6.8295  -19.1366  -50.2442 C.3       17 UNK        -0.1800 
     97 C          -7.4941  -20.4984  -52.2697 C.2       17 UNK         0.5000 
     98 O          -8.1806  -19.8317  -53.0444 O.2       17 UNK        -0.5000 
     99 N          -7.7080  -21.7974  -52.0147 N.am      18 UNK        -0.5000 
    100 CA        -8.7765  -22.5999  -52.6137 C.3       18 UNK         0.1400 
    101 CB        -9.3008  -23.5944  -51.5660 C.3       18 UNK        -0.1800 
    102 C         -8.3031  -23.3489  -53.8719 C.2       18 UNK         0.5000 
    103 O         -9.1086  -23.5769  -54.7757 O.2       18 UNK        -0.5000 
    104 N         -7.0179  -23.7258  -53.9007 N.am      19 UNK        -0.5000 
    105 CA        -6.3407  -24.3860  -55.0153 C.3       19 UNK         0.1400 
    106 CB        -5.1750  -25.2193  -54.4439 C.3       19 UNK        -0.1800 
    107 C         -5.9066  -23.3637  -56.0919 C.2       19 UNK         0.5000 
    108 O         -6.6784  -22.4662  -56.4368 O.2       19 UNK        -0.5000 
    109 N         -4.6846  -23.5113  -56.6227 N.am      20 UNK        -0.5000 
    110 CA        -4.0459  -22.5599  -57.5319 C.3       20 UNK         0.1400 
    111 CB        -2.8042  -23.2172  -58.1579 C.3       20 UNK        -0.1800 
    112 C         -3.6891  -21.2753  -56.7622 C.2       20 UNK         0.5000 
    113 O         -2.6982  -21.2763  -56.0302 O.2       20 UNK        -0.5000 
    114 N         -4.5495  -20.2567  -56.9107 N.am      21 UNK        -0.5000 
    115 CA        -4.6661  -19.0130  -56.1402 C.3       21 UNK         0.1400 
    116 CB        -5.5004  -18.0097  -56.9554 C.3       21 UNK        -0.1800 
    117 C         -3.3402  -18.3866  -55.6646 C.2       21 UNK         0.5000 
    118 O         -2.7267  -17.5991  -56.3883 O.2       21 UNK        -0.5000 
    119 N         -2.9420  -18.7678  -54.4473 N.am      22 UNK        -0.5000 
    120 CA        -1.7327  -18.3346  -53.7334 C.3       22 UNK         0.1400 
    121 C         -0.3906  -18.8203  -54.3605 C.2       22 UNK         0.5000 
    122 N         -0.3879  -19.8456  -55.2029 N.am      22 UNK        -0.7600 
    123 O          0.6716  -18.2837  -54.0577 O.2       22 UNK        -0.5000 
    124 C124       -1.7222  -16.8156  -53.3875 C.3       23 UNK        -0.0398 
    125 S125       -3.2592  -16.1747  -52.6267 S.3       23 UNK        -0.2404 
    126 C126       -3.4447  -17.1836  -51.1216 C.3       23 UNK        -0.0205 
    127 H127        2.4225  -14.0909  -51.9949 H         1 UNK         0.0600 
    128 H128        1.0511  -15.1799  -51.7557 H         1 UNK         0.0600 
    129 H129        0.8096  -13.4320  -51.6961 H         1 UNK         0.0600 
    130 H130        0.6365  -12.6363  -49.6236 H         1 UNK         0.3000 
    131 H131        1.1830  -14.2764  -47.3320 H         1 UNK         0.0600 
    132 H132        0.2120  -11.3956  -47.3022 H         1 UNK         0.0800 
    133 H133        0.0405  -12.5790  -46.0362 H         1 UNK         0.0800 
    134 H134       -2.9265  -14.5855  -46.7581 H         1 UNK         0.0800 
    135 H135       -1.2747  -14.6970  -46.2079 H         1 UNK         0.0800 
    136 H136       -3.5089  -15.3043  -49.1448 H         1 UNK         0.1150 
    137 H137       -1.0076  -18.3834  -50.7784 H         1 UNK         0.1150 
    138 H138        0.2438  -16.2439  -47.2999 H         1 UNK         0.1150 
    139 H139        1.6418  -17.9159  -49.9089 H         1 UNK         0.0800 
    140 H140        1.6671  -17.8745  -48.1722 H         1 UNK         0.0800 
    141 H141       -0.5779  -19.4347  -47.0939 H         1 UNK         0.0800 
    142 H142       -1.4961  -19.9868  -48.4655 H         1 UNK         0.0800 
    143 H143       -0.3191  -22.3295  -48.0186 H         1 UNK         0.0600 
    144 H144        0.5774  -20.8580  -45.7115 H         1 UNK         0.3000 
    145 H145        0.7395  -22.8309  -43.3671 H         1 UNK         0.0600 
    146 H146        3.1032  -23.6589  -43.1524 H         1 UNK         0.0600 
    147 H147        2.0577  -24.7818  -44.0067 H         1 UNK         0.0600 
    148 H148        3.1987  -23.8002  -44.9086 H         1 UNK         0.0600 
    149 H149        1.5083  -20.7757  -43.3393 H         1 UNK         0.3000 
    150 H150        4.2787  -19.0847  -44.4141 H         1 UNK         0.0600 
    151 H151        2.8260  -17.3542  -45.4939 H         1 UNK         0.0600 
    152 H152        1.5600  -18.5548  -45.7312 H         1 UNK         0.0600 
    153 H153        3.1036  -18.7149  -46.5650 H         1 UNK         0.0600 
    154 H154        1.7667  -18.1940  -43.3030 H         1 UNK         0.3000 
    155 H155        2.5350  -19.0578  -39.9278 H         1 UNK         0.0600 
    156 H156        2.0590  -16.6390  -39.6347 H         1 UNK         0.0600 
    157 H157        2.3480  -16.3454  -41.3481 H         1 UNK         0.0600 
    158 H158        3.6640  -16.8690  -40.3064 H         1 UNK         0.0600 
    159 H159        0.3250  -17.7596  -41.2566 H         1 UNK         0.3000 
    160 H160       -1.6240  -20.6967  -41.7332 H         1 UNK         0.0600 
    161 H161       -1.9271  -18.3991  -39.7251 H         1 UNK         0.0600 
    162 H162       -1.9710  -20.1137  -39.3312 H         1 UNK         0.0600 
    163 H163       -3.2283  -19.4184  -40.3413 H         1 UNK         0.0600 
    164 H164       -2.1012  -17.8849  -42.1319 H         1 UNK         0.3000 
    165 H165       -0.7950  -17.6673  -45.4102 H         1 UNK         0.0600 
    166 H166       -3.7424  -17.8570  -44.5846 H         1 UNK         0.0600 
    167 H167       -3.1264  -17.0535  -46.0260 H         1 UNK         0.0600 
    168 H168       -2.9738  -18.7917  -45.8621 H         1 UNK         0.0600 
    169 H169       -2.3967  -15.9090  -43.8055 H         1 UNK         0.3000 
    170 H170       -1.4072  -13.9776  -43.1043 H         1 UNK         0.0600 
    171 H171       -1.6613  -15.4246  -41.0400 H         1 UNK         0.0600 
    172 H172        0.0683  -15.2909  -40.7387 H         1 UNK         0.0600 
    173 H173       -0.9607  -13.8661  -40.6452 H         1 UNK         0.0600 
    174 H174        1.4533  -14.2369  -43.2143 H         1 UNK         0.3000 
    175 H175        1.8670  -11.0380  -43.8502 H         1 UNK         0.0600 
    176 H176        3.5566  -10.3630  -42.1215 H         1 UNK         0.0600 
    177 H177        1.9033  -10.0522  -41.6200 H         1 UNK         0.0600 
    178 H178        2.7685  -11.4249  -40.9533 H         1 UNK         0.0600 
    179 H179        3.2912  -12.5250  -44.5353 H         1 UNK         0.3000 
    180 H180        5.8507  -14.1486  -43.3469 H         1 UNK         0.0600 
    181 H181        5.2323  -16.5051  -44.0817 H         1 UNK         0.0600 
    182 H182        4.8198  -16.1501  -42.4143 H         1 UNK         0.0600 
    183 H183        3.5602  -16.1506  -43.6398 H         1 UNK         0.0600 
    184 H184        4.0918  -14.6957  -45.6528 H         1 UNK         0.3000 
    185 H185        5.2647  -11.9796  -47.5482 H         1 UNK         0.0600 
    186 H186        5.8930  -13.6987  -49.2199 H         1 UNK         0.0600 
    187 H187        7.1026  -13.6324  -47.9477 H         1 UNK         0.0600 
    188 H188        5.9282  -14.9435  -47.9715 H         1 UNK         0.0600 
    189 H189        3.5881  -14.1239  -48.3116 H         1 UNK         0.3000 
    190 H190       -1.8407  -21.2611  -45.0092 H         1 UNK         0.3000 
    191 H191       -4.5581  -21.8137  -45.7799 H         1 UNK         0.0600 
    192 H192       -4.9909  -21.6980  -43.3330 H         1 UNK         0.0600 
    193 H193       -3.9786  -20.3587  -43.8436 H         1 UNK         0.0600 
    194 H194       -3.2654  -21.7365  -43.0028 H         1 UNK         0.0600 
    195 H195       -1.9463  -23.7980  -44.4002 H         1 UNK         0.3000 
    196 H196       -3.5833  -26.1448  -43.9096 H         1 UNK         0.0600 
    197 H197       -1.3984  -27.2198  -43.4281 H         1 UNK         0.0600 
    198 H198       -1.5310  -25.6871  -42.5805 H         1 UNK         0.0600 
    199 H199       -0.5366  -25.8119  -44.0308 H         1 UNK         0.0600 
    200 H200       -1.3609  -25.0365  -46.4849 H         1 UNK         0.3000 
    201 H201       -1.6221  -27.3456  -48.1684 H         1 UNK         0.0600 
    202 H202        0.2798  -25.7104  -48.2719 H         1 UNK         0.0600 
    203 H203       -0.8240  -24.4674  -48.8603 H         1 UNK         0.0600 
    204 H204       -0.5017  -25.8934  -49.8356 H         1 UNK         0.0600 
    205 H205       -3.7002  -24.6613  -47.5882 H         1 UNK         0.3000 
    206 H206       -5.6289  -23.9065  -48.3216 H         1 UNK         0.0600 
    207 H207       -6.4041  -26.2989  -48.2477 H         1 UNK         0.0600 
    208 H208       -7.2414  -25.3528  -49.4663 H         1 UNK         0.0600 
    209 H209       -5.9816  -26.4776  -49.9508 H         1 UNK         0.0600 
    210 H210       -3.3466  -22.9797  -49.5064 H         1 UNK         0.3000 
    211 H211       -3.2546  -23.0516  -52.3365 H         1 UNK         0.0600 
    212 H212       -2.1489  -20.8986  -50.4622 H         1 UNK         0.0600 
    213 H213       -1.5951  -21.2523  -52.0930 H         1 UNK         0.0600 
    214 H214       -1.3436  -22.4279  -50.8131 H         1 UNK         0.0600 
    215 H215       -5.2144  -21.0662  -50.2177 H         1 UNK         0.3000 
    216 H216       -5.9173  -19.0465  -52.1835 H         1 UNK         0.0600 
    217 H217       -7.5950  -18.3938  -50.4724 H         1 UNK         0.0600 
    218 H218       -6.0217  -18.6210  -49.7249 H         1 UNK         0.0600 
    219 H219       -7.2669  -19.8565  -49.5513 H         1 UNK         0.0600 
    220 H220       -7.0599  -22.2933  -51.4165 H         1 UNK         0.3000 
    221 H221       -9.6063  -21.9518  -52.9037 H         1 UNK         0.0600 
    222 H222       -8.5266  -24.2954  -51.2533 H         1 UNK         0.0600 
    223 H223       -9.6653  -23.0776  -50.6782 H         1 UNK         0.0600 
    224 H224      -10.1299  -24.1797  -51.9655 H         1 UNK         0.0600 
    225 H225       -6.4540  -23.5567  -53.0748 H         1 UNK         0.3000 
    226 H226       -7.0403  -25.0745  -55.4933 H         1 UNK         0.0600 
    227 H227       -4.7082  -25.8365  -55.2123 H         1 UNK         0.0600 
    228 H228       -4.4045  -24.5867  -54.0012 H         1 UNK         0.0600 
    229 H229       -5.5263  -25.8977  -53.6657 H         1 UNK         0.0600 
    230 H230       -4.0983  -24.2563  -56.2765 H         1 UNK         0.3000 
    231 H231       -4.7413  -22.3165  -58.3382 H         1 UNK         0.0600 
    232 H232       -2.2951  -22.5246  -58.8292 H         1 UNK         0.0600 
    233 H233       -3.0770  -24.0957  -58.7430 H         1 UNK         0.0600 
    234 H234       -2.0837  -23.5300  -57.4010 H         1 UNK         0.0600 
    235 H235       -5.3297  -20.4277  -57.5285 H         1 UNK         0.3000 
    236 H236       -5.2482  -19.2585  -55.2496 H         1 UNK         0.0600 
    237 H237       -5.0337  -17.7856  -57.9155 H         1 UNK         0.0600 
    238 H238       -6.5019  -18.3938  -57.1502 H         1 UNK         0.0600 
    239 H239       -5.6151  -17.0676  -56.4174 H         1 UNK         0.0600 
    240 H240       -3.4773  -19.5043  -53.9912 H         1 UNK         0.3000 
    241 H241       -1.7747  -18.8798  -52.7940 H         1 UNK         0.0600 
    242 H242        0.4827  -20.1622  -55.5976 H         1 UNK         0.3800 
    243 H243       -1.2569  -20.3148  -55.4568 H         1 UNK         0.3800 
    244 H244       -1.5378  -16.2331  -54.2912 H         1 UNK         0.0800 
    245 H245       -0.8954  -16.5842  -52.7148 H         1 UNK         0.0800 
    246 H246       -4.4303  -16.9819  -50.7005 H         1 UNK         0.0800 
    247 H247       -3.4468  -18.2442  -51.3722 H         1 UNK         0.0800 
@<TRIPOS>BOND
     1    1    2 1    
     2    1  127 1    
     3    1  128 1    
     4    1  129 1    
     5    2    3 2    
     6    2    4 am   BACKBONE|DICT|INTERRES
     7    4    5 1    
     8    4  130 1    
     9    5    6 1    
    10    5   65 1    
    11    5  131 1    
    12    6    7 1    
    13    6  132 1    
    14    6  133 1    
    15    7    8 1    
    16    8    9 1    
    17    8  134 1    
    18    8  135 1    
    19    9   10 ar   
    20    9   14 ar   
    21   10   11 ar   
    22   10  136 1    
    23   11   12 ar   
    24   11  126 1    
    25   12   13 ar   
    26   12  137 1    
    27   13   14 ar   
    28   13   15 1    
    29   14  138 1    
    30   15   16 1    
    31   15  139 1    
    32   15  140 1    
    33   16   17 1    
    34   17   18 1    
    35   17  141 1    
    36   17  142 1    
    37   18   19 1    
    38   18   67 1    
    39   18  143 1    
    40   19   20 am   BACKBONE|DICT|INTERRES
    41   19  144 1    
    42   20   21 2    
    43   20   22 1    
    44   22   23 1    
    45   22   24 1    
    46   22  145 1    
    47   23  146 1    
    48   23  147 1    
    49   23  148 1    
    50   24   25 am   BACKBONE|DICT|INTERRES
    51   24  149 1    
    52   25   26 2    
    53   25   27 1    
    54   27   28 1    
    55   27   29 1    
    56   27  150 1    
    57   28  151 1    
    58   28  152 1    
    59   28  153 1    
    60   29   30 am   BACKBONE|DICT|INTERRES
    61   29  154 1    
    62   30   31 2    
    63   30   32 1    
    64   32   33 1    
    65   32   34 1    
    66   32  155 1    
    67   33  156 1    
    68   33  157 1    
    69   33  158 1    
    70   34   35 am   BACKBONE|DICT|INTERRES
    71   34  159 1    
    72   35   36 2    
    73   35   37 1    
    74   37   38 1    
    75   37   39 1    
    76   37  160 1    
    77   38  161 1    
    78   38  162 1    
    79   38  163 1    
    80   39   40 am   BACKBONE|DICT|INTERRES
    81   39  164 1    
    82   40   41 2    
    83   40   42 1    
    84   42   43 1    
    85   42   44 1    
    86   42  165 1    
    87   43  166 1    
    88   43  167 1    
    89   43  168 1    
    90   44   45 am   BACKBONE|DICT|INTERRES
    91   44  169 1    
    92   45   46 2    
    93   45   47 1    
    94   47   48 1    
    95   47   49 1    
    96   47  170 1    
    97   48  171 1    
    98   48  172 1    
    99   48  173 1    
   100   49   50 am   BACKBONE|DICT|INTERRES
   101   49  174 1    
   102   50   51 2    
   103   50   52 1    
   104   52   53 1    
   105   52   54 1    
   106   52  175 1    
   107   53  176 1    
   108   53  177 1    
   109   53  178 1    
   110   54   55 am   BACKBONE|DICT|INTERRES
   111   54  179 1    
   112   55   56 2    
   113   55   57 1    
   114   57   58 1    
   115   57   59 1    
   116   57  180 1    
   117   58  181 1    
   118   58  182 1    
   119   58  183 1    
   120   59   60 am   BACKBONE|DICT|INTERRES
   121   59  184 1    
   122   60   61 2    
   123   60   62 1    
   124   62   63 1    
   125   62   64 1    
   126   62  185 1    
   127   63  186 1    
   128   63  187 1    
   129   63  188 1    
   130   64   65 am   BACKBONE|DICT|INTERRES
   131   64  189 1    
   132   65   66 2    
   133   67   68 2    
   134   67   69 am   BACKBONE|DICT|INTERRES
   135   69   70 1    
   136   69  190 1    
   137   70   71 1    
   138   70   72 1    
   139   70  191 1    
   140   71  192 1    
   141   71  193 1    
   142   71  194 1    
   143   72   73 2    
   144   72   74 am   BACKBONE|DICT|INTERRES
   145   74   75 1    
   146   74  195 1    
   147   75   76 1    
   148   75   77 1    
   149   75  196 1    
   150   76  197 1    
   151   76  198 1    
   152   76  199 1    
   153   77   78 2    
   154   77   79 am   BACKBONE|DICT|INTERRES
   155   79   80 1    
   156   79  200 1    
   157   80   81 1    
   158   80   82 1    
   159   80  201 1    
   160   81  202 1    
   161   81  203 1    
   162   81  204 1    
   163   82   83 2    
   164   82   84 am   BACKBONE|DICT|INTERRES
   165   84   85 1    
   166   84  205 1    
   167   85   86 1    
   168   85   87 1    
   169   85  206 1    
   170   86  207 1    
   171   86  208 1    
   172   86  209 1    
   173   87   88 2    
   174   87   89 am   BACKBONE|DICT|INTERRES
   175   89   90 1    
   176   89  210 1    
   177   90   91 1    
   178   90   92 1    
   179   90  211 1    
   180   91  212 1    
   181   91  213 1    
   182   91  214 1    
   183   92   93 2    
   184   92   94 am   BACKBONE|DICT|INTERRES
   185   94   95 1    
   186   94  215 1    
   187   95   96 1    
   188   95   97 1    
   189   95  216 1    
   190   96  217 1    
   191   96  218 1    
   192   96  219 1    
   193   97   98 2    
   194   97   99 am   BACKBONE|DICT|INTERRES
   195   99  100 1    
   196   99  220 1    
   197  100  101 1    
   198  100  102 1    
   199  100  221 1    
   200  101  222 1    
   201  101  223 1    
   202  101  224 1    
   203  102  103 2    
   204  102  104 am   BACKBONE|DICT|INTERRES
   205  104  105 1    
   206  104  225 1    
   207  105  106 1    
   208  105  107 1    
   209  105  226 1    
   210  106  227 1    
   211  106  228 1    
   212  106  229 1    
   213  107  108 2    
   214  107  109 am   BACKBONE|DICT|INTERRES
   215  109  110 1    
   216  109  230 1    
   217  110  111 1    
   218  110  112 1    
   219  110  231 1    
   220  111  232 1    
   221  111  233 1    
   222  111  234 1    
   223  112  113 2    
   224  112  114 am   BACKBONE|DICT|INTERRES
   225  114  115 1    
   226  114  235 1    
   227  115  116 1    
   228  115  117 1    
   229  115  236 1    
   230  116  237 1    
   231  116  238 1    
   232  116  239 1    
   233  117  118 2    
   234  117  119 am   BACKBONE|DICT|INTERRES
   235  119  120 1    
   236  119  240 1    
   237  120  121 1    
   238  120  124 1    
   239  120  241 1    
   240  121  122 am   BACKBONE|DICT|INTERRES
   241  121  123 2    
   242  122  242 1    
   243  122  243 1    
   244  124  125 1    
   245  124  244 1    
   246  124  245 1    
   247  125  126 1    
   248  126  246 1    
   249  126  247 1    
@<TRIPOS>SUBSTRUCTURE
     1 UNK         1 GROUP             0       ****    0 ROOT    
