@<TRIPOS>MOLECULE
3R540
247   249    1
SMALL
USER_CHARGES


@<TRIPOS>ATOM
      1 CA          2.5661   -9.4355  -53.4154 C.3       0 UNK        -0.1800 
      2 C           2.7407  -10.4324  -52.2782 C.2       0 UNK         0.5000 
      3 O           3.5184  -10.1810  -51.3572 O.2       0 UNK        -0.5000 
      4 N           2.0281  -11.5638  -52.3427 N.am      1 UNK        -0.5000 
      5 CA          2.0109  -12.6041  -51.3121 C.3       1 UNK         0.1400 
      6 C6          1.3969  -13.9147  -51.8618 C.3       23 UNK        -0.0398 
      7 S7          1.5261  -15.3207  -50.7065 S.3       23 UNK        -0.2404 
      8 C8          0.6101  -16.5919  -51.6282 C.3       23 UNK        -0.0205 
      9 C9          0.1056  -17.6767  -50.6934 C.ar      23 UNK        -0.0193 
     10 C10        -1.0849  -17.4830  -49.9866 C.ar      23 UNK        -0.1150 
     11 C11        -1.5619  -18.4670  -49.1173 C.ar      23 UNK        -0.0193 
     12 C12        -0.8464  -19.6575  -48.9762 C.ar      23 UNK        -0.1150 
     13 C13         0.3475  -19.8622  -49.6706 C.ar      23 UNK        -0.0193 
     14 C14         0.8227  -18.8661  -50.5286 C.ar      23 UNK        -0.1150 
     15 C15         1.1058  -21.1669  -49.4889 C.3       23 UNK        -0.0205 
     16 S16         2.0652  -21.1469  -47.9441 S.3       23 UNK        -0.2404 
     17 C17         2.3529  -22.9212  -47.6576 C.3       23 UNK        -0.0398 
     18 CA          1.4087  -23.5924  -46.6279 C.3       11 UNK         0.1400 
     19 N           1.4683  -23.0217  -45.2763 N.am      11 UNK        -0.5000 
     20 C           1.1298  -23.7235  -44.1820 C.2       10 UNK         0.5000 
     21 O           0.7792  -24.9042  -44.2174 O.2       10 UNK        -0.5000 
     22 CA          1.1510  -22.9947  -42.8259 C.3       10 UNK         0.1400 
     23 CB          2.5879  -22.8153  -42.3133 C.3       10 UNK        -0.1800 
     24 N           0.4679  -21.7034  -42.8607 N.am      10 UNK        -0.5000 
     25 C          -0.8417  -21.5409  -43.0990 C.2       9 UNK         0.5000 
     26 O          -1.6242  -22.4748  -43.2815 O.2       9 UNK        -0.5000 
     27 CA         -1.3554  -20.0888  -43.1905 C.3       9 UNK         0.1400 
     28 CB         -1.7069  -19.5427  -41.7992 C.3       9 UNK        -0.1800 
     29 N          -0.4088  -19.1848  -43.8482 N.am      9 UNK        -0.5000 
     30 C           0.0240  -19.3358  -45.1075 C.2       8 UNK         0.5000 
     31 O          -0.3625  -20.2359  -45.8464 O.2       8 UNK        -0.5000 
     32 CA          1.1152  -18.3717  -45.5984 C.3       8 UNK         0.1400 
     33 CB          0.5230  -17.0324  -46.0497 C.3       8 UNK        -0.1800 
     34 N           2.1419  -18.1590  -44.5809 N.am      8 UNK        -0.5000 
     35 C           3.0313  -19.0910  -44.2080 C.2       7 UNK         0.5000 
     36 O           3.1180  -20.2047  -44.7253 O.2       7 UNK        -0.5000 
     37 CA          3.9519  -18.7309  -43.0273 C.3       7 UNK         0.1400 
     38 CB          5.1776  -17.9442  -43.5153 C.3       7 UNK        -0.1800 
     39 N           3.2600  -17.9579  -41.9948 N.am      7 UNK        -0.5000 
     40 C           2.2706  -18.4353  -41.2261 C.2       6 UNK         0.5000 
     41 O           1.8772  -19.6006  -41.2658 O.2       6 UNK        -0.5000 
     42 CA          1.5717  -17.4252  -40.2950 C.3       6 UNK         0.1400 
     43 CB          2.3005  -17.3401  -38.9459 C.3       6 UNK        -0.1800 
     44 N           1.4672  -16.0833  -40.8784 N.am      6 UNK        -0.5000 
     45 C           0.7727  -15.7925  -41.9866 C.2       5 UNK         0.5000 
     46 O           0.1405  -16.6324  -42.6298 O.2       5 UNK        -0.5000 
     47 CA          0.8707  -14.3409  -42.4910 C.3       5 UNK         0.1400 
     48 CB          2.1787  -14.1472  -43.2751 C.3       5 UNK        -0.1800 
     49 N          -0.2588  -13.9563  -43.3418 N.am      5 UNK        -0.5000 
     50 C          -1.5129  -13.7794  -42.8979 C.2       4 UNK         0.5000 
     51 O          -1.8349  -13.9243  -41.7171 O.2       4 UNK        -0.5000 
     52 CA         -2.5911  -13.3242  -43.9052 C.3       4 UNK         0.1400 
     53 CB         -3.0408  -11.8869  -43.5945 C.3       4 UNK        -0.1800 
     54 N          -2.1569  -13.3749  -45.3009 N.am      4 UNK        -0.5000 
     55 C          -2.2029  -14.4607  -46.0826 C.2       3 UNK         0.5000 
     56 O          -2.6570  -15.5451  -45.7182 O.2       3 UNK        -0.5000 
     57 CA         -1.6541  -14.3164  -47.5190 C.3       3 UNK         0.1400 
     58 CB         -2.8089  -14.1503  -48.5172 C.3       3 UNK        -0.1800 
     59 N          -0.6984  -13.2227  -47.7315 N.am      3 UNK        -0.5000 
     60 C           0.4529  -13.0365  -47.0738 C.2       2 UNK         0.5000 
     61 O           0.8133  -13.7317  -46.1251 O.2       2 UNK        -0.5000 
     62 CA          1.3486  -11.8901  -47.5803 C.3       2 UNK         0.1400 
     63 CB          2.5035  -11.5742  -46.6127 C.3       2 UNK        -0.1800 
     64 N           1.9075  -12.2217  -48.8896 N.am      2 UNK        -0.5000 
     65 C           1.2660  -12.0970  -50.0577 C.2       1 UNK         0.5000 
     66 O           0.1280  -11.6320  -50.1664 O.2       1 UNK        -0.5000 
     67 C          -0.0399  -23.7410  -47.1370 C.2       11 UNK         0.5000 
     68 O          -0.3106  -24.6986  -47.8600 O.2       11 UNK        -0.5000 
     69 N          -0.9590  -22.8525  -46.7229 N.am      12 UNK        -0.5000 
     70 CA         -2.3915  -22.9376  -47.0265 C.3       12 UNK         0.1400 
     71 CB         -3.1517  -21.7376  -46.4431 C.3       12 UNK        -0.1800 
     72 C          -3.0317  -24.2333  -46.5100 C.2       12 UNK         0.5000 
     73 O          -3.8201  -24.8400  -47.2331 O.2       12 UNK        -0.5000 
     74 N          -2.6575  -24.6478  -45.2921 N.am      13 UNK        -0.5000 
     75 CA         -3.1080  -25.8915  -44.6672 C.3       13 UNK         0.1400 
     76 CB         -2.6340  -25.9230  -43.2067 C.3       13 UNK        -0.1800 
     77 C          -2.6412  -27.1529  -45.4202 C.2       13 UNK         0.5000 
     78 O          -3.3759  -28.1403  -45.4580 O.2       13 UNK        -0.5000 
     79 N          -1.4432  -27.0928  -46.0168 N.am      14 UNK        -0.5000 
     80 CA         -0.8740  -28.1631  -46.8340 C.3       14 UNK         0.1400 
     81 CB          0.6542  -28.0064  -46.8830 C.3       14 UNK        -0.1800 
     82 C          -1.4694  -28.1856  -48.2538 C.2       14 UNK         0.5000 
     83 O          -1.8067  -29.2579  -48.7565 O.2       14 UNK        -0.5000 
     84 N          -1.5810  -27.0042  -48.8751 N.am      15 UNK        -0.5000 
     85 CA         -2.0476  -26.8204  -50.2507 C.3       15 UNK         0.1400 
     86 CB         -1.5880  -25.4370  -50.7430 C.3       15 UNK        -0.1800 
     87 C          -3.5723  -26.9518  -50.4220 C.2       15 UNK         0.5000 
     88 O          -4.0243  -27.1774  -51.5447 O.2       15 UNK        -0.5000 
     89 N          -4.3257  -26.7686  -49.3268 N.am      16 UNK        -0.5000 
     90 CA         -5.7735  -26.5289  -49.2770 C.3       16 UNK         0.1400 
     91 CB         -6.5782  -27.7284  -49.8214 C.3       16 UNK        -0.1800 
     92 C          -6.1190  -25.1817  -49.9491 C.2       16 UNK         0.5000 
     93 O          -7.0061  -25.1172  -50.8021 O.2       16 UNK        -0.5000 
     94 N          -5.3690  -24.1482  -49.5347 N.am      17 UNK        -0.5000 
     95 CA         -5.2624  -22.7855  -50.0679 C.3       17 UNK         0.1400 
     96 CB         -6.6303  -22.0800  -50.1363 C.3       17 UNK        -0.1800 
     97 C          -4.5259  -22.7363  -51.4224 C.2       17 UNK         0.5000 
     98 O          -4.7687  -23.5654  -52.3013 O.2       17 UNK        -0.5000 
     99 N          -3.6284  -21.7533  -51.5706 N.am      18 UNK        -0.5000 
    100 CA        -2.8942  -21.4942  -52.8112 C.3       18 UNK         0.1400 
    101 CB        -1.6592  -20.6368  -52.4994 C.3       18 UNK        -0.1800 
    102 C         -3.7760  -20.8215  -53.8817 C.2       18 UNK         0.5000 
    103 O         -4.8131  -20.2364  -53.5624 O.2       18 UNK        -0.5000 
    104 N         -3.3313  -20.9089  -55.1412 N.am      19 UNK        -0.5000 
    105 CA        -4.0503  -20.4178  -56.3202 C.3       19 UNK         0.1400 
    106 CB        -3.4283  -21.0560  -57.5727 C.3       19 UNK        -0.1800 
    107 C         -4.0852  -18.8819  -56.4635 C.2       19 UNK         0.5000 
    108 O         -4.9089  -18.3759  -57.2275 O.2       19 UNK        -0.5000 
    109 N         -3.1998  -18.1710  -55.7551 N.am      20 UNK        -0.5000 
    110 CA        -3.0983  -16.7143  -55.7545 C.3       20 UNK         0.1400 
    111 CB        -1.7820  -16.3026  -56.4323 C.3       20 UNK        -0.1800 
    112 C         -3.1362  -16.2058  -54.3087 C.2       20 UNK         0.5000 
    113 O         -2.5801  -16.8586  -53.4225 O.2       20 UNK        -0.5000 
    114 N         -3.7865  -15.0502  -54.1060 N.am      21 UNK        -0.5000 
    115 CA        -3.9363  -14.2558  -52.8730 C.3       21 UNK         0.1400 
    116 CB        -2.5659  -13.7517  -52.3865 C.3       21 UNK        -0.1800 
    117 C         -4.7099  -14.9298  -51.7174 C.2       21 UNK         0.5000 
    118 O         -5.3844  -14.2351  -50.9576 O.2       21 UNK        -0.5000 
    119 N         -4.6027  -16.2552  -51.6057 N.am      22 UNK        -0.5000 
    120 CA        -5.2161  -17.1120  -50.5820 C.3       22 UNK         0.1400 
    121 C         -6.7653  -17.2587  -50.6715 C.2       22 UNK         0.5000 
    122 N         -7.4107  -16.8515  -51.7577 N.am      22 UNK        -0.7600 
    123 O         -7.3956  -17.7414  -49.7355 O.2       22 UNK        -0.5000 
    124 C124       -4.5076  -18.4928  -50.5672 C.3       23 UNK        -0.0398 
    125 S125       -4.2550  -19.1879  -48.9025 S.3       23 UNK        -0.2404 
    126 C126       -2.8253  -18.2285  -48.3034 C.3       23 UNK        -0.0205 
    127 H127        3.5211   -9.2597  -53.9105 H         1 UNK         0.0600 
    128 H128        2.2017   -8.4843  -53.0275 H         1 UNK         0.0600 
    129 H129        1.8565   -9.7921  -54.1625 H         1 UNK         0.0600 
    130 H130        1.3847  -11.6950  -53.1099 H         1 UNK         0.3000 
    131 H131        3.0487  -12.8125  -51.0417 H         1 UNK         0.0600 
    132 H132        1.9025  -14.1995  -52.7857 H         1 UNK         0.0800 
    133 H133        0.3490  -13.7623  -52.1221 H         1 UNK         0.0800 
    134 H134       -0.2365  -16.1457  -52.1501 H         1 UNK         0.0800 
    135 H135        1.2546  -17.0167  -52.3990 H         1 UNK         0.0800 
    136 H136       -1.6332  -16.5600  -50.1096 H         1 UNK         0.1150 
    137 H137       -1.2047  -20.4258  -48.3102 H         1 UNK         0.1150 
    138 H138        1.7473  -19.0163  -51.0677 H         1 UNK         0.1150 
    139 H139        0.3942  -21.9935  -49.4788 H         1 UNK         0.0800 
    140 H140        1.7765  -21.3456  -50.3304 H         1 UNK         0.0800 
    141 H141        3.3816  -23.0256  -47.3106 H         1 UNK         0.0800 
    142 H142        2.3161  -23.4529  -48.6101 H         1 UNK         0.0800 
    143 H143        1.7814  -24.6162  -46.5449 H         1 UNK         0.0600 
    144 H144        1.7402  -22.0488  -45.1956 H         1 UNK         0.3000 
    145 H145        0.6198  -23.6240  -42.1086 H         1 UNK         0.0600 
    146 H146        3.0992  -23.7761  -42.2438 H         1 UNK         0.0600 
    147 H147        3.1777  -22.1779  -42.9712 H         1 UNK         0.0600 
    148 H148        2.5984  -22.3689  -41.3188 H         1 UNK         0.0600 
    149 H149        1.0295  -20.8831  -42.6612 H         1 UNK         0.3000 
    150 H150       -2.2675  -20.0960  -43.7898 H         1 UNK         0.0600 
    151 H151       -2.0966  -18.5262  -41.8603 H         1 UNK         0.0600 
    152 H152       -0.8391  -19.5301  -41.1405 H         1 UNK         0.0600 
    153 H153       -2.4708  -20.1577  -41.3222 H         1 UNK         0.0600 
    154 H154       -0.0893  -18.3795  -43.3160 H         1 UNK         0.3000 
    155 H155        1.5919  -18.8178  -46.4704 H         1 UNK         0.0600 
    156 H156       -0.2372  -17.1928  -46.8137 H         1 UNK         0.0600 
    157 H157        1.2889  -16.3905  -46.4846 H         1 UNK         0.0600 
    158 H158        0.0538  -16.4907  -45.2295 H         1 UNK         0.0600 
    159 H159        2.0961  -17.2930  -44.0665 H         1 UNK         0.3000 
    160 H160        4.2996  -19.6641  -42.5788 H         1 UNK         0.0600 
    161 H161        5.7223  -18.5048  -44.2762 H         1 UNK         0.0600 
    162 H162        5.8718  -17.7487  -42.6979 H         1 UNK         0.0600 
    163 H163        4.8948  -16.9859  -43.9531 H         1 UNK         0.0600 
    164 H164        3.5267  -16.9904  -41.8912 H         1 UNK         0.3000 
    165 H165        0.5590  -17.7896  -40.1123 H         1 UNK         0.0600 
    166 H166        1.7677  -16.6918  -38.2499 H         1 UNK         0.0600 
    167 H167        2.3739  -18.3238  -38.4799 H         1 UNK         0.0600 
    168 H168        3.3141  -16.9533  -39.0578 H         1 UNK         0.0600 
    169 H169        1.9700  -15.3463  -40.4049 H         1 UNK         0.3000 
    170 H170        0.8832  -13.6750  -41.6257 H         1 UNK         0.0600 
    171 H171        2.2683  -13.1267  -43.6478 H         1 UNK         0.0600 
    172 H172        3.0490  -14.3386  -42.6466 H         1 UNK         0.0600 
    173 H173        2.2384  -14.8209  -44.1309 H         1 UNK         0.0600 
    174 H174       -0.0625  -13.8639  -44.3334 H         1 UNK         0.3000 
    175 H175       -3.4528  -13.9825  -43.7758 H         1 UNK         0.0600 
    176 H176       -2.2192  -11.1770  -43.6983 H         1 UNK         0.0600 
    177 H177       -3.8439  -11.5719  -44.2610 H         1 UNK         0.0600 
    178 H178       -3.4182  -11.8050  -42.5743 H         1 UNK         0.0600 
    179 H179       -1.7632  -12.5287  -45.6844 H         1 UNK         0.3000 
    180 H180       -1.1353  -15.2458  -47.7568 H         1 UNK         0.0600 
    181 H181       -2.4536  -14.2600  -49.5402 H         1 UNK         0.0600 
    182 H182       -3.2816  -13.1716  -48.4274 H         1 UNK         0.0600 
    183 H183       -3.5862  -14.8990  -48.3635 H         1 UNK         0.0600 
    184 H184       -0.8790  -12.6172  -48.5237 H         1 UNK         0.3000 
    185 H185        0.7302  -10.9940  -47.6650 H         1 UNK         0.0600 
    186 H186        3.1734  -12.4261  -46.4885 H         1 UNK         0.0600 
    187 H187        3.0959  -10.7312  -46.9687 H         1 UNK         0.0600 
    188 H188        2.1232  -11.3092  -45.6253 H         1 UNK         0.0600 
    189 H189        2.8250  -12.6435  -48.8824 H         1 UNK         0.3000 
    190 H190       -0.6552  -22.0360  -46.1959 H         1 UNK         0.3000 
    191 H191       -2.4957  -22.9163  -48.1129 H         1 UNK         0.0600 
    192 H192       -3.1236  -21.7314  -45.3546 H         1 UNK         0.0600 
    193 H193       -4.2011  -21.7608  -46.7398 H         1 UNK         0.0600 
    194 H194       -2.7455  -20.7913  -46.7868 H         1 UNK         0.0600 
    195 H195       -2.0346  -24.0611  -44.7482 H         1 UNK         0.3000 
    196 H196       -4.2000  -25.8898  -44.6716 H         1 UNK         0.0600 
    197 H197       -2.9838  -26.8240  -42.7012 H         1 UNK         0.0600 
    198 H198       -3.0165  -25.0674  -42.6497 H         1 UNK         0.0600 
    199 H199       -1.5460  -25.9073  -43.1364 H         1 UNK         0.0600 
    200 H200       -0.9091  -26.2381  -45.9431 H         1 UNK         0.3000 
    201 H201       -1.0962  -29.1223  -46.3613 H         1 UNK         0.0600 
    202 H202        1.0850  -28.0369  -45.8820 H         1 UNK         0.0600 
    203 H203        0.9525  -27.0653  -47.3456 H         1 UNK         0.0600 
    204 H204        1.1098  -28.8131  -47.4584 H         1 UNK         0.0600 
    205 H205       -1.2294  -26.1709  -48.4073 H         1 UNK         0.3000 
    206 H206       -1.5782  -27.5800  -50.8793 H         1 UNK         0.0600 
    207 H207       -1.8890  -25.2667  -51.7776 H         1 UNK         0.0600 
    208 H208       -2.0178  -24.6345  -50.1419 H         1 UNK         0.0600 
    209 H209       -0.5029  -25.3423  -50.6999 H         1 UNK         0.0600 
    210 H210       -3.8350  -26.5453  -48.4687 H         1 UNK         0.3000 
    211 H211       -6.0276  -26.4209  -48.2214 H         1 UNK         0.0600 
    212 H212       -6.4516  -27.8567  -50.8963 H         1 UNK         0.0600 
    213 H213       -7.6442  -27.5923  -49.6365 H         1 UNK         0.0600 
    214 H214       -6.2793  -28.6565  -49.3343 H         1 UNK         0.0600 
    215 H215       -4.7096  -24.3629  -48.7908 H         1 UNK         0.3000 
    216 H216       -4.6552  -22.2446  -49.3410 H         1 UNK         0.0600 
    217 H217       -6.5106  -21.0251  -50.3839 H         1 UNK         0.0600 
    218 H218       -7.1499  -22.1311  -49.1796 H         1 UNK         0.0600 
    219 H219       -7.2780  -22.5155  -50.8974 H         1 UNK         0.0600 
    220 H220       -3.4985  -21.0839  -50.8264 H         1 UNK         0.3000 
    221 H221       -2.5485  -22.4503  -53.2106 H         1 UNK         0.0600 
    222 H222       -1.9268  -19.6643  -52.0882 H         1 UNK         0.0600 
    223 H223       -1.0111  -21.1400  -51.7831 H         1 UNK         0.0600 
    224 H224       -1.0644  -20.4562  -53.3953 H         1 UNK         0.0600 
    225 H225       -2.4617  -21.3901  -55.3207 H         1 UNK         0.3000 
    226 H226       -5.0863  -20.7559  -56.2480 H         1 UNK         0.0600 
    227 H227       -3.4754  -22.1443  -57.5270 H         1 UNK         0.0600 
    228 H228       -3.9592  -20.7486  -58.4748 H         1 UNK         0.0600 
    229 H229       -2.3832  -20.7684  -57.6935 H         1 UNK         0.0600 
    230 H230       -2.6054  -18.6484  -55.0920 H         1 UNK         0.3000 
    231 H231       -3.9306  -16.2668  -56.3016 H         1 UNK         0.0600 
    232 H232       -1.7474  -16.6483  -57.4656 H         1 UNK         0.0600 
    233 H233       -1.6721  -15.2175  -56.4480 H         1 UNK         0.0600 
    234 H234       -0.9155  -16.7138  -55.9125 H         1 UNK         0.0600 
    235 H235       -4.2292  -14.6317  -54.9125 H         1 UNK         0.3000 
    236 H236       -4.5207  -13.3809  -53.1618 H         1 UNK         0.0600 
    237 H237       -2.6814  -13.0152  -51.5905 H         1 UNK         0.0600 
    238 H238       -1.9569  -14.5651  -51.9938 H         1 UNK         0.0600 
    239 H239       -2.0104  -13.2713  -53.1918 H         1 UNK         0.0600 
    240 H240       -3.9758  -16.7139  -52.2618 H         1 UNK         0.3000 
    241 H241       -5.0255  -16.6144  -49.6301 H         1 UNK         0.0600 
    242 H242       -8.4132  -16.9449  -51.8041 H         1 UNK         0.3800 
    243 H243       -6.9072  -16.4493  -52.5314 H         1 UNK         0.3800 
    244 H244       -5.0610  -19.2182  -51.1638 H         1 UNK         0.0800 
    245 H245       -3.5314  -18.4299  -51.0452 H         1 UNK         0.0800 
    246 H246       -3.0812  -17.1702  -48.2954 H         1 UNK         0.0800 
    247 H247       -2.6315  -18.4900  -47.2622 H         1 UNK         0.0800 
@<TRIPOS>BOND
     1    1    2 1    
     2    1  127 1    
     3    1  128 1    
     4    1  129 1    
     5    2    3 2    
     6    2    4 am   BACKBONE|DICT|INTERRES
     7    4    5 1    
     8    4  130 1    
     9    5    6 1    
    10    5   65 1    
    11    5  131 1    
    12    6    7 1    
    13    6  132 1    
    14    6  133 1    
    15    7    8 1    
    16    8    9 1    
    17    8  134 1    
    18    8  135 1    
    19    9   10 ar   
    20    9   14 ar   
    21   10   11 ar   
    22   10  136 1    
    23   11   12 ar   
    24   11  126 1    
    25   12   13 ar   
    26   12  137 1    
    27   13   14 ar   
    28   13   15 1    
    29   14  138 1    
    30   15   16 1    
    31   15  139 1    
    32   15  140 1    
    33   16   17 1    
    34   17   18 1    
    35   17  141 1    
    36   17  142 1    
    37   18   19 1    
    38   18   67 1    
    39   18  143 1    
    40   19   20 am   BACKBONE|DICT|INTERRES
    41   19  144 1    
    42   20   21 2    
    43   20   22 1    
    44   22   23 1    
    45   22   24 1    
    46   22  145 1    
    47   23  146 1    
    48   23  147 1    
    49   23  148 1    
    50   24   25 am   BACKBONE|DICT|INTERRES
    51   24  149 1    
    52   25   26 2    
    53   25   27 1    
    54   27   28 1    
    55   27   29 1    
    56   27  150 1    
    57   28  151 1    
    58   28  152 1    
    59   28  153 1    
    60   29   30 am   BACKBONE|DICT|INTERRES
    61   29  154 1    
    62   30   31 2    
    63   30   32 1    
    64   32   33 1    
    65   32   34 1    
    66   32  155 1    
    67   33  156 1    
    68   33  157 1    
    69   33  158 1    
    70   34   35 am   BACKBONE|DICT|INTERRES
    71   34  159 1    
    72   35   36 2    
    73   35   37 1    
    74   37   38 1    
    75   37   39 1    
    76   37  160 1    
    77   38  161 1    
    78   38  162 1    
    79   38  163 1    
    80   39   40 am   BACKBONE|DICT|INTERRES
    81   39  164 1    
    82   40   41 2    
    83   40   42 1    
    84   42   43 1    
    85   42   44 1    
    86   42  165 1    
    87   43  166 1    
    88   43  167 1    
    89   43  168 1    
    90   44   45 am   BACKBONE|DICT|INTERRES
    91   44  169 1    
    92   45   46 2    
    93   45   47 1    
    94   47   48 1    
    95   47   49 1    
    96   47  170 1    
    97   48  171 1    
    98   48  172 1    
    99   48  173 1    
   100   49   50 am   BACKBONE|DICT|INTERRES
   101   49  174 1    
   102   50   51 2    
   103   50   52 1    
   104   52   53 1    
   105   52   54 1    
   106   52  175 1    
   107   53  176 1    
   108   53  177 1    
   109   53  178 1    
   110   54   55 am   BACKBONE|DICT|INTERRES
   111   54  179 1    
   112   55   56 2    
   113   55   57 1    
   114   57   58 1    
   115   57   59 1    
   116   57  180 1    
   117   58  181 1    
   118   58  182 1    
   119   58  183 1    
   120   59   60 am   BACKBONE|DICT|INTERRES
   121   59  184 1    
   122   60   61 2    
   123   60   62 1    
   124   62   63 1    
   125   62   64 1    
   126   62  185 1    
   127   63  186 1    
   128   63  187 1    
   129   63  188 1    
   130   64   65 am   BACKBONE|DICT|INTERRES
   131   64  189 1    
   132   65   66 2    
   133   67   68 2    
   134   67   69 am   BACKBONE|DICT|INTERRES
   135   69   70 1    
   136   69  190 1    
   137   70   71 1    
   138   70   72 1    
   139   70  191 1    
   140   71  192 1    
   141   71  193 1    
   142   71  194 1    
   143   72   73 2    
   144   72   74 am   BACKBONE|DICT|INTERRES
   145   74   75 1    
   146   74  195 1    
   147   75   76 1    
   148   75   77 1    
   149   75  196 1    
   150   76  197 1    
   151   76  198 1    
   152   76  199 1    
   153   77   78 2    
   154   77   79 am   BACKBONE|DICT|INTERRES
   155   79   80 1    
   156   79  200 1    
   157   80   81 1    
   158   80   82 1    
   159   80  201 1    
   160   81  202 1    
   161   81  203 1    
   162   81  204 1    
   163   82   83 2    
   164   82   84 am   BACKBONE|DICT|INTERRES
   165   84   85 1    
   166   84  205 1    
   167   85   86 1    
   168   85   87 1    
   169   85  206 1    
   170   86  207 1    
   171   86  208 1    
   172   86  209 1    
   173   87   88 2    
   174   87   89 am   BACKBONE|DICT|INTERRES
   175   89   90 1    
   176   89  210 1    
   177   90   91 1    
   178   90   92 1    
   179   90  211 1    
   180   91  212 1    
   181   91  213 1    
   182   91  214 1    
   183   92   93 2    
   184   92   94 am   BACKBONE|DICT|INTERRES
   185   94   95 1    
   186   94  215 1    
   187   95   96 1    
   188   95   97 1    
   189   95  216 1    
   190   96  217 1    
   191   96  218 1    
   192   96  219 1    
   193   97   98 2    
   194   97   99 am   BACKBONE|DICT|INTERRES
   195   99  100 1    
   196   99  220 1    
   197  100  101 1    
   198  100  102 1    
   199  100  221 1    
   200  101  222 1    
   201  101  223 1    
   202  101  224 1    
   203  102  103 2    
   204  102  104 am   BACKBONE|DICT|INTERRES
   205  104  105 1    
   206  104  225 1    
   207  105  106 1    
   208  105  107 1    
   209  105  226 1    
   210  106  227 1    
   211  106  228 1    
   212  106  229 1    
   213  107  108 2    
   214  107  109 am   BACKBONE|DICT|INTERRES
   215  109  110 1    
   216  109  230 1    
   217  110  111 1    
   218  110  112 1    
   219  110  231 1    
   220  111  232 1    
   221  111  233 1    
   222  111  234 1    
   223  112  113 2    
   224  112  114 am   BACKBONE|DICT|INTERRES
   225  114  115 1    
   226  114  235 1    
   227  115  116 1    
   228  115  117 1    
   229  115  236 1    
   230  116  237 1    
   231  116  238 1    
   232  116  239 1    
   233  117  118 2    
   234  117  119 am   BACKBONE|DICT|INTERRES
   235  119  120 1    
   236  119  240 1    
   237  120  121 1    
   238  120  124 1    
   239  120  241 1    
   240  121  122 am   BACKBONE|DICT|INTERRES
   241  121  123 2    
   242  122  242 1    
   243  122  243 1    
   244  124  125 1    
   245  124  244 1    
   246  124  245 1    
   247  125  126 1    
   248  126  246 1    
   249  126  247 1    
@<TRIPOS>SUBSTRUCTURE
     1 UNK         1 GROUP             0       ****    0 ROOT    
