@<TRIPOS>MOLECULE
3R540
247   249    1
SMALL
USER_CHARGES


@<TRIPOS>ATOM
      1 CA         -3.4775  -15.0984  -44.6266 C.3       0 UNK        -0.1800 
      2 C          -2.3747  -14.2170  -45.1931 C.2       0 UNK         0.5000 
      3 O          -1.2268  -14.3220  -44.7662 O.2       0 UNK        -0.5000 
      4 N          -2.7286  -13.3491  -46.1534 N.am      1 UNK        -0.5000 
      5 CA         -1.8463  -12.3795  -46.8260 C.3       1 UNK         0.1400 
      6 C6         -0.6978  -13.0322  -47.6485 C.3       23 UNK        -0.0398 
      7 S7         -1.2762  -14.0672  -49.0412 S.3       23 UNK        -0.2404 
      8 C8         -1.4726  -15.6825  -48.2328 C.3       23 UNK        -0.0205 
      9 C9         -1.4674  -16.8362  -49.2221 C.ar      23 UNK        -0.0193 
     10 C10        -2.6486  -17.2242  -49.8603 C.ar      23 UNK        -0.1150 
     11 C11        -2.6620  -18.3264  -50.7203 C.ar      23 UNK        -0.0193 
     12 C12        -1.4783  -19.0335  -50.9473 C.ar      23 UNK        -0.1150 
     13 C13        -0.2899  -18.6540  -50.3187 C.ar      23 UNK        -0.0193 
     14 C14        -0.2902  -17.5509  -49.4599 C.ar      23 UNK        -0.1150 
     15 C15         0.9938  -19.4320  -50.5744 C.3       23 UNK        -0.0205 
     16 S16         0.9641  -21.1044  -49.8487 S.3       23 UNK        -0.2404 
     17 C17         0.8740  -20.7444  -48.0621 C.3       23 UNK        -0.0398 
     18 CA         -0.1805  -21.5891  -47.3065 C.3       11 UNK         0.1400 
     19 N           0.0008  -21.4791  -45.8562 N.am      11 UNK        -0.5000 
     20 C          -0.6363  -22.2110  -44.9319 C.2       10 UNK         0.5000 
     21 O          -1.4197  -23.1189  -45.2027 O.2       10 UNK        -0.5000 
     22 CA         -0.4033  -21.8251  -43.4578 C.3       10 UNK         0.1400 
     23 CB          0.9082  -22.4216  -42.9270 C.3       10 UNK        -0.1800 
     24 N          -0.4072  -20.3744  -43.2595 N.am      10 UNK        -0.5000 
     25 C          -1.4774  -19.5924  -43.4621 C.2       9 UNK         0.5000 
     26 O          -2.5928  -20.0257  -43.7491 O.2       9 UNK        -0.5000 
     27 CA         -1.2533  -18.0722  -43.3953 C.3       9 UNK         0.1400 
     28 CB         -1.3926  -17.5455  -41.9595 C.3       9 UNK        -0.1800 
     29 N           0.0451  -17.6854  -43.9467 N.am      9 UNK        -0.5000 
     30 C           0.3456  -17.7322  -45.2518 C.2       8 UNK         0.5000 
     31 O          -0.4517  -18.0907  -46.1168 O.2       8 UNK        -0.5000 
     32 CA          1.7932  -17.3824  -45.6500 C.3       8 UNK         0.1400 
     33 CB          1.9883  -15.8614  -45.7392 C.3       8 UNK        -0.1800 
     34 N           2.7798  -17.9375  -44.7230 N.am      8 UNK        -0.5000 
     35 C           3.0016  -19.2459  -44.5376 C.2       7 UNK         0.5000 
     36 O           2.4362  -20.1275  -45.1814 O.2       7 UNK        -0.5000 
     37 CA          3.9772  -19.6365  -43.4088 C.3       7 UNK         0.1400 
     38 CB          5.4111  -19.7302  -43.9498 C.3       7 UNK        -0.1800 
     39 N           3.9552  -18.7245  -42.2595 N.am      7 UNK        -0.5000 
     40 C           2.8725  -18.4182  -41.5285 C.2       6 UNK         0.5000 
     41 O           1.7589  -18.8939  -41.7496 O.2       6 UNK        -0.5000 
     42 CA          3.0445  -17.3877  -40.3931 C.3       6 UNK         0.1400 
     43 CB          2.3836  -17.8805  -39.0957 C.3       6 UNK        -0.1800 
     44 N           4.4546  -17.0920  -40.1129 N.am      6 UNK        -0.5000 
     45 C           5.2455  -16.1068  -40.5714 C.2       5 UNK         0.5000 
     46 O           6.4476  -16.1098  -40.3126 O.2       5 UNK        -0.5000 
     47 CA          4.6922  -14.9375  -41.4220 C.3       5 UNK         0.1400 
     48 CB          4.3813  -15.3558  -42.8679 C.3       5 UNK        -0.1800 
     49 N           3.5457  -14.2250  -40.8612 N.am      5 UNK        -0.5000 
     50 C           3.4783  -13.6328  -39.6630 C.2       4 UNK         0.5000 
     51 O           4.3899  -13.6468  -38.8344 O.2       4 UNK        -0.5000 
     52 CA          2.1828  -12.8391  -39.3900 C.3       4 UNK         0.1400 
     53 CB          2.1502  -12.2128  -37.9843 C.3       4 UNK        -0.1800 
     54 N           2.0107  -11.7778  -40.3859 N.am      4 UNK        -0.5000 
     55 C           1.5146  -11.9466  -41.6178 C.2       3 UNK         0.5000 
     56 O           1.0924  -13.0262  -42.0385 O.2       3 UNK        -0.5000 
     57 CA          1.5842  -10.7302  -42.5572 C.3       3 UNK         0.1400 
     58 CB          2.7508  -10.8897  -43.5447 C.3       3 UNK        -0.1800 
     59 N           0.3495  -10.5387  -43.3133 N.am      3 UNK        -0.5000 
     60 C          -0.8223  -10.1526  -42.7995 C.2       2 UNK         0.5000 
     61 O          -0.9928   -9.9219  -41.6013 O.2       2 UNK        -0.5000 
     62 CA         -2.0046   -9.9636  -43.7733 C.3       2 UNK         0.1400 
     63 CB         -1.9914   -8.5478  -44.3808 C.3       2 UNK        -0.1800 
     64 N          -2.1465  -10.9855  -44.8212 N.am      2 UNK        -0.5000 
     65 C          -1.3427  -11.2794  -45.8562 C.2       1 UNK         0.5000 
     66 O          -0.2652  -10.7182  -46.0621 O.2       1 UNK        -0.5000 
     67 C          -1.6305  -21.2623  -47.7317 C.2       11 UNK         0.5000 
     68 O          -2.2057  -21.9964  -48.5377 O.2       11 UNK        -0.5000 
     69 N          -2.2182  -20.2129  -47.1384 N.am      12 UNK        -0.5000 
     70 CA         -3.6204  -19.8394  -47.3252 C.3       12 UNK         0.1400 
     71 CB         -3.8952  -18.4888  -46.6506 C.3       12 UNK        -0.1800 
     72 C          -4.5927  -20.9136  -46.8065 C.2       12 UNK         0.5000 
     73 O          -5.5304  -21.2725  -47.5182 O.2       12 UNK        -0.5000 
     74 N          -4.3318  -21.4398  -45.6005 N.am      13 UNK        -0.5000 
     75 CA         -5.1007  -22.5206  -44.9747 C.3       13 UNK         0.1400 
     76 CB         -4.6190  -22.7228  -43.5304 C.3       13 UNK        -0.1800 
     77 C          -5.0378  -23.8442  -45.7623 C.2       13 UNK         0.5000 
     78 O          -6.0360  -24.5616  -45.8304 O.2       13 UNK        -0.5000 
     79 N          -3.8818  -24.1178  -46.3803 N.am      14 UNK        -0.5000 
     80 CA         -3.6478  -25.2380  -47.2926 C.3       14 UNK         0.1400 
     81 CB         -2.1339  -25.4977  -47.3731 C.3       14 UNK        -0.1800 
     82 C          -4.2306  -25.0203  -48.7053 C.2       14 UNK         0.5000 
     83 O          -4.0924  -25.9106  -49.5455 O.2       14 UNK        -0.5000 
     84 N          -4.8301  -23.8469  -48.9659 N.am      15 UNK        -0.5000 
     85 CA         -5.3940  -23.3996  -50.2442 C.3       15 UNK         0.1400 
     86 CB         -6.6688  -24.1978  -50.5845 C.3       15 UNK        -0.1800 
     87 C          -4.3497  -23.4215  -51.3770 C.2       15 UNK         0.5000 
     88 O          -4.6227  -23.9217  -52.4721 O.2       15 UNK        -0.5000 
     89 N          -3.1383  -22.9382  -51.0624 N.am      16 UNK        -0.5000 
     90 CA         -1.9371  -22.9166  -51.9041 C.3       16 UNK         0.1400 
     91 CB         -2.1831  -22.0761  -53.1760 C.3       16 UNK        -0.1800 
     92 C          -1.4041  -24.3149  -52.2795 C.2       16 UNK         0.5000 
     93 O          -0.5508  -24.4062  -53.1608 O.2       16 UNK        -0.5000 
     94 N          -1.9663  -25.3842  -51.6910 N.am      17 UNK        -0.5000 
     95 CA         -1.8600  -26.7808  -52.1330 C.3       17 UNK         0.1400 
     96 CB         -0.4427  -27.3303  -51.8710 C.3       17 UNK        -0.1800 
     97 C          -2.3236  -26.9751  -53.5985 C.2       17 UNK         0.5000 
     98 O          -1.8254  -27.8654  -54.2888 O.2       17 UNK        -0.5000 
     99 N          -3.2421  -26.1034  -54.0508 N.am      18 UNK        -0.5000 
    100 CA        -3.7404  -25.9397  -55.4202 C.3       18 UNK         0.1400 
    101 CB        -4.5103  -27.1953  -55.8796 C.3       18 UNK        -0.1800 
    102 C         -2.6709  -25.4906  -56.4454 C.2       18 UNK         0.5000 
    103 O         -2.9149  -25.5918  -57.6489 O.2       18 UNK        -0.5000 
    104 N         -1.5176  -24.9832  -55.9798 N.am      19 UNK        -0.5000 
    105 CA        -0.4266  -24.4948  -56.8321 C.3       19 UNK         0.1400 
    106 CB         0.8983  -24.5779  -56.0582 C.3       19 UNK        -0.1800 
    107 C         -0.6571  -23.0612  -57.3526 C.2       19 UNK         0.5000 
    108 O          0.0463  -22.6319  -58.2683 O.2       19 UNK        -0.5000 
    109 N         -1.6289  -22.3515  -56.7705 N.am      20 UNK        -0.5000 
    110 CA        -2.0959  -21.0316  -57.1794 C.3       20 UNK         0.1400 
    111 CB        -1.5542  -19.9719  -56.2044 C.3       20 UNK        -0.1800 
    112 C         -3.6310  -21.0417  -57.1836 C.2       20 UNK         0.5000 
    113 O         -4.2420  -21.9594  -56.6272 O.2       20 UNK        -0.5000 
    114 N         -4.2291  -20.0074  -57.7893 N.am      21 UNK        -0.5000 
    115 CA        -5.6778  -19.8469  -57.9656 C.3       21 UNK         0.1400 
    116 CB        -5.9427  -18.5803  -58.7940 C.3       21 UNK        -0.1800 
    117 C         -6.4880  -19.8107  -56.6536 C.2       21 UNK         0.5000 
    118 O         -7.6533  -20.2099  -56.6549 O.2       21 UNK        -0.5000 
    119 N         -5.8568  -19.3567  -55.5638 N.am      22 UNK        -0.5000 
    120 CA        -6.4004  -19.4090  -54.1984 C.3       22 UNK         0.1400 
    121 C         -6.2154  -20.7789  -53.4792 C.2       22 UNK         0.5000 
    122 N         -5.6019  -21.7834  -54.0929 N.am      22 UNK        -0.7600 
    123 O         -6.6400  -20.9330  -52.3377 O.2       22 UNK        -0.5000 
    124 C124       -5.9068  -18.2158  -53.3400 C.3       23 UNK        -0.0398 
    125 S125       -4.0966  -18.1440  -53.0812 S.3       23 UNK        -0.2404 
    126 C126       -3.9615  -18.7668  -51.3749 C.3       23 UNK        -0.0205 
    127 H127       -4.4631  -14.6605  -44.7859 H         1 UNK         0.0600 
    128 H128       -3.3388  -15.2386  -43.5544 H         1 UNK         0.0600 
    129 H129       -3.4564  -16.0749  -45.1067 H         1 UNK         0.0600 
    130 H130       -3.6912  -13.3302  -46.4610 H         1 UNK         0.3000 
    131 H131       -2.4827  -11.8494  -47.5361 H         1 UNK         0.0600 
    132 H132       -0.0717  -12.2593  -48.0972 H         1 UNK         0.0800 
    133 H133       -0.0322  -13.6058  -47.0046 H         1 UNK         0.0800 
    134 H134       -0.6861  -15.8265  -47.4943 H         1 UNK         0.0800 
    135 H135       -2.4123  -15.6849  -47.6828 H         1 UNK         0.0800 
    136 H136       -3.5615  -16.6769  -49.6719 H         1 UNK         0.1150 
    137 H137       -1.4771  -19.8860  -51.6071 H         1 UNK         0.1150 
    138 H138        0.6220  -17.2561  -48.9610 H         1 UNK         0.1150 
    139 H139        1.1454  -19.5202  -51.6511 H         1 UNK         0.0800 
    140 H140        1.8591  -18.8907  -50.1887 H         1 UNK         0.0800 
    141 H141        0.7026  -19.6819  -47.8955 H         1 UNK         0.0800 
    142 H142        1.8651  -20.9498  -47.6560 H         1 UNK         0.0800 
    143 H143       -0.0047  -22.6368  -47.5592 H         1 UNK         0.0600 
    144 H144        0.6845  -20.7966  -45.5418 H         1 UNK         0.3000 
    145 H145       -1.2238  -22.2423  -42.8706 H         1 UNK         0.0600 
    146 H146        1.0717  -22.1518  -41.8835 H         1 UNK         0.0600 
    147 H147        0.8883  -23.5105  -42.9837 H         1 UNK         0.0600 
    148 H148        1.7701  -22.0824  -43.5001 H         1 UNK         0.0600 
    149 H149        0.4629  -19.9381  -42.9747 H         1 UNK         0.3000 
    150 H150       -2.0291  -17.6011  -44.0000 H         1 UNK         0.0600 
    151 H151       -2.3825  -17.7694  -41.5602 H         1 UNK         0.0600 
    152 H152       -1.2653  -16.4632  -41.9244 H         1 UNK         0.0600 
    153 H153       -0.6612  -17.9928  -41.2867 H         1 UNK         0.0600 
    154 H154        0.7694  -17.4613  -43.2810 H         1 UNK         0.3000 
    155 H155        1.9828  -17.8094  -46.6370 H         1 UNK         0.0600 
    156 H156        1.7316  -15.3613  -44.8040 H         1 UNK         0.0600 
    157 H157        1.3596  -15.4360  -46.5194 H         1 UNK         0.0600 
    158 H158        3.0191  -15.6065  -45.9860 H         1 UNK         0.0600 
    159 H159        3.3008  -17.2804  -44.1644 H         1 UNK         0.3000 
    160 H160        3.6826  -20.6238  -43.0485 H         1 UNK         0.0600 
    161 H161        5.7775  -18.7611  -44.2908 H         1 UNK         0.0600 
    162 H162        5.4658  -20.4182  -44.7947 H         1 UNK         0.0600 
    163 H163        6.0973  -20.0999  -43.1876 H         1 UNK         0.0600 
    164 H164        4.8391  -18.3172  -41.9924 H         1 UNK         0.3000 
    165 H165        2.5058  -16.4978  -40.7086 H         1 UNK         0.0600 
    166 H166        2.4762  -17.1387  -38.3021 H         1 UNK         0.0600 
    167 H167        1.3181  -18.0652  -39.2397 H         1 UNK         0.0600 
    168 H168        2.8332  -18.8090  -38.7417 H         1 UNK         0.0600 
    169 H169        4.9043  -17.7893  -39.5377 H         1 UNK         0.3000 
    170 H170        5.4997  -14.2044  -41.4784 H         1 UNK         0.0600 
    171 H171        4.3125  -14.4819  -43.5165 H         1 UNK         0.0600 
    172 H172        3.4334  -15.8848  -42.9379 H         1 UNK         0.0600 
    173 H173        5.1629  -15.9984  -43.2756 H         1 UNK         0.0600 
    174 H174        2.7445  -14.1046  -41.4715 H         1 UNK         0.3000 
    175 H175        1.3482  -13.5402  -39.4599 H         1 UNK         0.0600 
    176 H176        2.9575  -11.4930  -37.8429 H         1 UNK         0.0600 
    177 H177        1.2066  -11.6969  -37.8057 H         1 UNK         0.0600 
    178 H178        2.2514  -12.9776  -37.2132 H         1 UNK         0.0600 
    179 H179        2.3759  -10.8715  -40.1301 H         1 UNK         0.3000 
    180 H180        1.7574   -9.8311  -41.9621 H         1 UNK         0.0600 
    181 H181        2.6134  -11.7579  -44.1911 H         1 UNK         0.0600 
    182 H182        3.6966  -11.0195  -43.0169 H         1 UNK         0.0600 
    183 H183        2.8516  -10.0109  -44.1818 H         1 UNK         0.0600 
    184 H184        0.3861  -10.7072  -44.3147 H         1 UNK         0.3000 
    185 H185       -2.9100  -10.0455  -43.1698 H         1 UNK         0.0600 
    186 H186       -1.9900   -7.7886  -43.5976 H         1 UNK         0.0600 
    187 H187       -1.1097   -8.3773  -44.9991 H         1 UNK         0.0600 
    188 H188       -2.8730   -8.3751  -44.9980 H         1 UNK         0.0600 
    189 H189       -2.9818  -11.5479  -44.7406 H         1 UNK         0.3000 
    190 H190       -1.6603  -19.6130  -46.5389 H         1 UNK         0.3000 
    191 H191       -3.7890  -19.7246  -48.3974 H         1 UNK         0.0600 
    192 H192       -3.1816  -17.7365  -46.9781 H         1 UNK         0.0600 
    193 H193       -4.8931  -18.1258  -46.8985 H         1 UNK         0.0600 
    194 H194       -3.8307  -18.5547  -45.5651 H         1 UNK         0.0600 
    195 H195       -3.5650  -21.0542  -45.0555 H         1 UNK         0.3000 
    196 H196       -6.1458  -22.2062  -44.9428 H         1 UNK         0.0600 
    197 H197       -5.2001  -23.4980  -43.0295 H         1 UNK         0.0600 
    198 H198       -4.7259  -21.8078  -42.9473 H         1 UNK         0.0600 
    199 H199       -3.5715  -23.0220  -43.4936 H         1 UNK         0.0600 
    200 H200       -3.0870  -23.5101  -46.2046 H         1 UNK         0.3000 
    201 H201       -4.1246  -26.1289  -46.8795 H         1 UNK         0.0600 
    202 H202       -1.7152  -25.6981  -46.3868 H         1 UNK         0.0600 
    203 H203       -1.6031  -24.6435  -47.7946 H         1 UNK         0.0600 
    204 H204       -1.9130  -26.3629  -47.9995 H         1 UNK         0.0600 
    205 H205       -4.8720  -23.1606  -48.2217 H         1 UNK         0.3000 
    206 H206       -5.6800  -22.3556  -50.1102 H         1 UNK         0.0600 
    207 H207       -7.1529  -23.7933  -51.4744 H         1 UNK         0.0600 
    208 H208       -7.3924  -24.1484  -49.7710 H         1 UNK         0.0600 
    209 H209       -6.4512  -25.2485  -50.7786 H         1 UNK         0.0600 
    210 H210       -2.9884  -22.5984  -50.1132 H         1 UNK         0.3000 
    211 H211       -1.1625  -22.4292  -51.3141 H         1 UNK         0.0600 
    212 H212       -2.7687  -22.6232  -53.9152 H         1 UNK         0.0600 
    213 H213       -1.2377  -21.8057  -53.6472 H         1 UNK         0.0600 
    214 H214       -2.7201  -21.1541  -52.9606 H         1 UNK         0.0600 
    215 H215       -2.6758  -25.2199  -50.9859 H         1 UNK         0.3000 
    216 H216       -2.5566  -27.3499  -51.5159 H         1 UNK         0.0600 
    217 H217       -0.3990  -28.4036  -52.0586 H         1 UNK         0.0600 
    218 H218       -0.1443  -27.1706  -50.8349 H         1 UNK         0.0600 
    219 H219        0.3016  -26.8568  -52.5119 H         1 UNK         0.0600 
    220 H220       -3.5996  -25.4164  -53.3928 H         1 UNK         0.3000 
    221 H221       -4.4578  -25.1189  -55.3708 H         1 UNK         0.0600 
    222 H222       -3.8458  -28.0459  -56.0325 H         1 UNK         0.0600 
    223 H223       -5.2647  -27.4846  -55.1480 H         1 UNK         0.0600 
    224 H224       -5.0287  -27.0142  -56.8218 H         1 UNK         0.0600 
    225 H225       -1.3601  -24.9281  -54.9789 H         1 UNK         0.3000 
    226 H226       -0.3436  -25.1496  -57.7021 H         1 UNK         0.0600 
    227 H227        1.0531  -25.5726  -55.6396 H         1 UNK         0.0600 
    228 H228        1.7441  -24.3644  -56.7128 H         1 UNK         0.0600 
    229 H229        0.9331  -23.8581  -55.2401 H         1 UNK         0.0600 
    230 H230       -2.2172  -22.8132  -56.0908 H         1 UNK         0.3000 
    231 H231       -1.7544  -20.8059  -58.1918 H         1 UNK         0.0600 
    232 H232       -1.9814  -20.0809  -55.2075 H         1 UNK         0.0600 
    233 H233       -1.7912  -18.9650  -56.5491 H         1 UNK         0.0600 
    234 H234       -0.4697  -20.0354  -56.1136 H         1 UNK         0.0600 
    235 H235       -3.6521  -19.2898  -58.2041 H         1 UNK         0.3000 
    236 H236       -6.0324  -20.7072  -58.5370 H         1 UNK         0.0600 
    237 H237       -5.4609  -18.6380  -59.7702 H         1 UNK         0.0600 
    238 H238       -7.0108  -18.4431  -58.9689 H         1 UNK         0.0600 
    239 H239       -5.5754  -17.6860  -58.2890 H         1 UNK         0.0600 
    240 H240       -4.8963  -19.0580  -55.6458 H         1 UNK         0.3000 
    241 H241       -7.4826  -19.2891  -54.2756 H         1 UNK         0.0600 
    242 H242       -5.4445  -22.6471  -53.5847 H         1 UNK         0.3800 
    243 H243       -5.2410  -21.6952  -55.0373 H         1 UNK         0.3800 
    244 H244       -6.1996  -17.2853  -53.8278 H         1 UNK         0.0800 
    245 H245       -6.4238  -18.2026  -52.3795 H         1 UNK         0.0800 
    246 H246       -4.0290  -19.8558  -51.3768 H         1 UNK         0.0800 
    247 H247       -4.8040  -18.4126  -50.7794 H         1 UNK         0.0800 
@<TRIPOS>BOND
     1    1    2 1    
     2    1  127 1    
     3    1  128 1    
     4    1  129 1    
     5    2    3 2    
     6    2    4 am   BACKBONE|DICT|INTERRES
     7    4    5 1    
     8    4  130 1    
     9    5    6 1    
    10    5   65 1    
    11    5  131 1    
    12    6    7 1    
    13    6  132 1    
    14    6  133 1    
    15    7    8 1    
    16    8    9 1    
    17    8  134 1    
    18    8  135 1    
    19    9   10 ar   
    20    9   14 ar   
    21   10   11 ar   
    22   10  136 1    
    23   11   12 ar   
    24   11  126 1    
    25   12   13 ar   
    26   12  137 1    
    27   13   14 ar   
    28   13   15 1    
    29   14  138 1    
    30   15   16 1    
    31   15  139 1    
    32   15  140 1    
    33   16   17 1    
    34   17   18 1    
    35   17  141 1    
    36   17  142 1    
    37   18   19 1    
    38   18   67 1    
    39   18  143 1    
    40   19   20 am   BACKBONE|DICT|INTERRES
    41   19  144 1    
    42   20   21 2    
    43   20   22 1    
    44   22   23 1    
    45   22   24 1    
    46   22  145 1    
    47   23  146 1    
    48   23  147 1    
    49   23  148 1    
    50   24   25 am   BACKBONE|DICT|INTERRES
    51   24  149 1    
    52   25   26 2    
    53   25   27 1    
    54   27   28 1    
    55   27   29 1    
    56   27  150 1    
    57   28  151 1    
    58   28  152 1    
    59   28  153 1    
    60   29   30 am   BACKBONE|DICT|INTERRES
    61   29  154 1    
    62   30   31 2    
    63   30   32 1    
    64   32   33 1    
    65   32   34 1    
    66   32  155 1    
    67   33  156 1    
    68   33  157 1    
    69   33  158 1    
    70   34   35 am   BACKBONE|DICT|INTERRES
    71   34  159 1    
    72   35   36 2    
    73   35   37 1    
    74   37   38 1    
    75   37   39 1    
    76   37  160 1    
    77   38  161 1    
    78   38  162 1    
    79   38  163 1    
    80   39   40 am   BACKBONE|DICT|INTERRES
    81   39  164 1    
    82   40   41 2    
    83   40   42 1    
    84   42   43 1    
    85   42   44 1    
    86   42  165 1    
    87   43  166 1    
    88   43  167 1    
    89   43  168 1    
    90   44   45 am   BACKBONE|DICT|INTERRES
    91   44  169 1    
    92   45   46 2    
    93   45   47 1    
    94   47   48 1    
    95   47   49 1    
    96   47  170 1    
    97   48  171 1    
    98   48  172 1    
    99   48  173 1    
   100   49   50 am   BACKBONE|DICT|INTERRES
   101   49  174 1    
   102   50   51 2    
   103   50   52 1    
   104   52   53 1    
   105   52   54 1    
   106   52  175 1    
   107   53  176 1    
   108   53  177 1    
   109   53  178 1    
   110   54   55 am   BACKBONE|DICT|INTERRES
   111   54  179 1    
   112   55   56 2    
   113   55   57 1    
   114   57   58 1    
   115   57   59 1    
   116   57  180 1    
   117   58  181 1    
   118   58  182 1    
   119   58  183 1    
   120   59   60 am   BACKBONE|DICT|INTERRES
   121   59  184 1    
   122   60   61 2    
   123   60   62 1    
   124   62   63 1    
   125   62   64 1    
   126   62  185 1    
   127   63  186 1    
   128   63  187 1    
   129   63  188 1    
   130   64   65 am   BACKBONE|DICT|INTERRES
   131   64  189 1    
   132   65   66 2    
   133   67   68 2    
   134   67   69 am   BACKBONE|DICT|INTERRES
   135   69   70 1    
   136   69  190 1    
   137   70   71 1    
   138   70   72 1    
   139   70  191 1    
   140   71  192 1    
   141   71  193 1    
   142   71  194 1    
   143   72   73 2    
   144   72   74 am   BACKBONE|DICT|INTERRES
   145   74   75 1    
   146   74  195 1    
   147   75   76 1    
   148   75   77 1    
   149   75  196 1    
   150   76  197 1    
   151   76  198 1    
   152   76  199 1    
   153   77   78 2    
   154   77   79 am   BACKBONE|DICT|INTERRES
   155   79   80 1    
   156   79  200 1    
   157   80   81 1    
   158   80   82 1    
   159   80  201 1    
   160   81  202 1    
   161   81  203 1    
   162   81  204 1    
   163   82   83 2    
   164   82   84 am   BACKBONE|DICT|INTERRES
   165   84   85 1    
   166   84  205 1    
   167   85   86 1    
   168   85   87 1    
   169   85  206 1    
   170   86  207 1    
   171   86  208 1    
   172   86  209 1    
   173   87   88 2    
   174   87   89 am   BACKBONE|DICT|INTERRES
   175   89   90 1    
   176   89  210 1    
   177   90   91 1    
   178   90   92 1    
   179   90  211 1    
   180   91  212 1    
   181   91  213 1    
   182   91  214 1    
   183   92   93 2    
   184   92   94 am   BACKBONE|DICT|INTERRES
   185   94   95 1    
   186   94  215 1    
   187   95   96 1    
   188   95   97 1    
   189   95  216 1    
   190   96  217 1    
   191   96  218 1    
   192   96  219 1    
   193   97   98 2    
   194   97   99 am   BACKBONE|DICT|INTERRES
   195   99  100 1    
   196   99  220 1    
   197  100  101 1    
   198  100  102 1    
   199  100  221 1    
   200  101  222 1    
   201  101  223 1    
   202  101  224 1    
   203  102  103 2    
   204  102  104 am   BACKBONE|DICT|INTERRES
   205  104  105 1    
   206  104  225 1    
   207  105  106 1    
   208  105  107 1    
   209  105  226 1    
   210  106  227 1    
   211  106  228 1    
   212  106  229 1    
   213  107  108 2    
   214  107  109 am   BACKBONE|DICT|INTERRES
   215  109  110 1    
   216  109  230 1    
   217  110  111 1    
   218  110  112 1    
   219  110  231 1    
   220  111  232 1    
   221  111  233 1    
   222  111  234 1    
   223  112  113 2    
   224  112  114 am   BACKBONE|DICT|INTERRES
   225  114  115 1    
   226  114  235 1    
   227  115  116 1    
   228  115  117 1    
   229  115  236 1    
   230  116  237 1    
   231  116  238 1    
   232  116  239 1    
   233  117  118 2    
   234  117  119 am   BACKBONE|DICT|INTERRES
   235  119  120 1    
   236  119  240 1    
   237  120  121 1    
   238  120  124 1    
   239  120  241 1    
   240  121  122 am   BACKBONE|DICT|INTERRES
   241  121  123 2    
   242  122  242 1    
   243  122  243 1    
   244  124  125 1    
   245  124  244 1    
   246  124  245 1    
   247  125  126 1    
   248  126  246 1    
   249  126  247 1    
@<TRIPOS>SUBSTRUCTURE
     1 UNK         1 GROUP             0       ****    0 ROOT    
