@<TRIPOS>MOLECULE
3R540
247   249    1
SMALL
USER_CHARGES


@<TRIPOS>ATOM
      1 CA         -3.2090  -13.7591  -45.0656 C.3       0 UNK        -0.1800 
      2 C          -2.0071  -12.9007  -45.4328 C.2       0 UNK         0.5000 
      3 O          -2.1499  -11.6960  -45.6446 O.2       0 UNK        -0.5000 
      4 N          -0.8186  -13.5091  -45.4920 N.am      1 UNK        -0.5000 
      5 CA          0.4572  -12.8636  -45.8163 C.3       1 UNK         0.1400 
      6 C6          1.4354  -13.8456  -46.5122 C.3       23 UNK        -0.0398 
      7 S7          0.8262  -14.4376  -48.1267 S.3       23 UNK        -0.2404 
      8 C8          0.1801  -16.0767  -47.6752 C.3       23 UNK        -0.0205 
      9 C9         -0.2116  -16.8735  -48.9088 C.ar      23 UNK        -0.0193 
     10 C10        -1.4776  -16.7118  -49.4822 C.ar      23 UNK        -0.1150 
     11 C11        -1.8509  -17.4693  -50.5962 C.ar      23 UNK        -0.0193 
     12 C12        -0.9438  -18.3812  -51.1425 C.ar      23 UNK        -0.1150 
     13 C13         0.3167  -18.5613  -50.5714 C.ar      23 UNK        -0.0193 
     14 C14         0.6799  -17.8010  -49.4566 C.ar      23 UNK        -0.1150 
     15 C15         1.2836  -19.5764  -51.1595 C.3       23 UNK        -0.0205 
     16 S16         1.3303  -21.1184  -50.1913 S.3       23 UNK        -0.2404 
     17 C17        -0.3077  -21.8588  -50.5180 C.3       23 UNK        -0.0398 
     18 CA         -1.1365  -22.0242  -49.2220 C.3       11 UNK         0.1400 
     19 N          -1.4783  -20.7391  -48.5962 N.am      11 UNK        -0.5000 
     20 C          -2.0208  -20.6159  -47.3776 C.2       10 UNK         0.5000 
     21 O          -2.3230  -21.5763  -46.6668 O.2       10 UNK        -0.5000 
     22 CA         -2.3442  -19.1909  -46.9051 C.3       10 UNK         0.1400 
     23 CB         -3.7974  -18.8281  -47.2437 C.3       10 UNK        -0.1800 
     24 N          -2.1389  -19.0219  -45.4701 N.am      10 UNK        -0.5000 
     25 C          -0.9423  -19.0011  -44.8726 C.2       9 UNK         0.5000 
     26 O           0.1298  -19.1435  -45.4653 O.2       9 UNK        -0.5000 
     27 CA         -0.9551  -18.7757  -43.3478 C.3       9 UNK         0.1400 
     28 CB         -0.7445  -20.1040  -42.6050 C.3       9 UNK        -0.1800 
     29 N           0.0542  -17.8132  -42.9011 N.am      9 UNK        -0.5000 
     30 C           0.1845  -16.5545  -43.3441 C.2       8 UNK         0.5000 
     31 O          -0.5552  -16.0426  -44.1866 O.2       8 UNK        -0.5000 
     32 CA          1.3064  -15.6951  -42.7316 C.3       8 UNK         0.1400 
     33 CB          0.7016  -14.6048  -41.8345 C.3       8 UNK        -0.1800 
     34 N           2.3220  -16.4362  -41.9761 N.am      8 UNK        -0.5000 
     35 C           3.2416  -17.2474  -42.5220 C.2       7 UNK         0.5000 
     36 O           3.3018  -17.4723  -43.7307 O.2       7 UNK        -0.5000 
     37 CA          4.2627  -17.9145  -41.5756 C.3       7 UNK         0.1400 
     38 CB          5.6709  -17.9815  -42.1927 C.3       7 UNK        -0.1800 
     39 N           4.3545  -17.2272  -40.2874 N.am      7 UNK        -0.5000 
     40 C           3.7836  -17.6380  -39.1474 C.2       6 UNK         0.5000 
     41 O           3.1057  -18.6616  -39.0538 O.2       6 UNK        -0.5000 
     42 CA          3.9869  -16.7514  -37.9012 C.3       6 UNK         0.1400 
     43 CB          5.1215  -17.3070  -37.0271 C.3       6 UNK        -0.1800 
     44 N           4.2741  -15.3496  -38.2155 N.am      6 UNK        -0.5000 
     45 C           3.4182  -14.5060  -38.8073 C.2       5 UNK         0.5000 
     46 O           2.2729  -14.8227  -39.1255 O.2       5 UNK        -0.5000 
     47 CA          3.9227  -13.0819  -39.1166 C.3       5 UNK         0.1400 
     48 CB          5.1098  -12.6393  -38.2331 C.3       5 UNK        -0.1800 
     49 N           4.2522  -12.8930  -40.5330 N.am      5 UNK        -0.5000 
     50 C           5.1192  -13.6003  -41.2772 C.2       4 UNK         0.5000 
     51 O           5.7076  -14.6028  -40.8678 O.2       4 UNK        -0.5000 
     52 CA          5.3961  -13.1119  -42.7160 C.3       4 UNK         0.1400 
     53 CB          5.0544  -14.1944  -43.7509 C.3       4 UNK        -0.1800 
     54 N           4.6716  -11.8869  -43.0585 N.am      4 UNK        -0.5000 
     55 C           5.0946  -10.6429  -42.7910 C.2       3 UNK         0.5000 
     56 O           6.1765  -10.3939  -42.2580 O.2       3 UNK        -0.5000 
     57 CA          4.1529   -9.4757  -43.1610 C.3       3 UNK         0.1400 
     58 CB          4.5826   -8.8441  -44.4939 C.3       3 UNK        -0.1800 
     59 N           2.7385   -9.8484  -43.2504 N.am      3 UNK        -0.5000 
     60 C           1.9955  -10.3163  -42.2384 C.2       2 UNK         0.5000 
     61 O           2.4172  -10.4492  -41.0888 O.2       2 UNK        -0.5000 
     62 CA          0.5572  -10.7618  -42.5720 C.3       2 UNK         0.1400 
     63 CB         -0.4263   -9.6050  -42.3419 C.3       2 UNK        -0.1800 
     64 N           0.3420  -11.3067  -43.9206 N.am      2 UNK        -0.5000 
     65 C           1.0578  -12.2651  -44.5275 C.2       1 UNK         0.5000 
     66 O           2.1171  -12.7056  -44.0825 O.2       1 UNK        -0.5000 
     67 C          -2.3754  -22.9133  -49.4649 C.2       11 UNK         0.5000 
     68 O          -2.2553  -24.1366  -49.4125 O.2       11 UNK        -0.5000 
     69 N          -3.5516  -22.2943  -49.6470 N.am      12 UNK        -0.5000 
     70 CA         -4.8541  -22.9585  -49.7609 C.3       12 UNK         0.1400 
     71 CB         -5.8868  -21.9400  -50.2677 C.3       12 UNK        -0.1800 
     72 C          -5.3468  -23.6397  -48.4630 C.2       12 UNK         0.5000 
     73 O          -6.3634  -24.3333  -48.5040 O.2       12 UNK        -0.5000 
     74 N          -4.6464  -23.4424  -47.3356 N.am      13 UNK        -0.5000 
     75 CA         -4.8730  -24.1930  -46.0991 C.3       13 UNK         0.1400 
     76 CB         -4.4326  -23.3405  -44.8985 C.3       13 UNK        -0.1800 
     77 C          -4.1347  -25.5481  -46.0953 C.2       13 UNK         0.5000 
     78 O          -4.5065  -26.4251  -45.3144 O.2       13 UNK        -0.5000 
     79 N          -3.1037  -25.6950  -46.9405 N.am      14 UNK        -0.5000 
     80 CA         -2.2705  -26.8924  -47.0494 C.3       14 UNK         0.1400 
     81 CB         -0.7895  -26.4828  -46.9804 C.3       14 UNK        -0.1800 
     82 C          -2.5708  -27.6501  -48.3518 C.2       14 UNK         0.5000 
     83 O          -2.8565  -28.8477  -48.3099 O.2       14 UNK        -0.5000 
     84 N          -2.5113  -26.9360  -49.4809 N.am      15 UNK        -0.5000 
     85 CA         -2.8812  -27.4193  -50.8083 C.3       15 UNK         0.1400 
     86 CB         -2.0112  -26.6857  -51.8451 C.3       15 UNK        -0.1800 
     87 C          -4.3741  -27.1582  -51.0743 C.2       15 UNK         0.5000 
     88 O          -5.0394  -26.4891  -50.2820 O.2       15 UNK        -0.5000 
     89 N          -4.8760  -27.6595  -52.2090 N.am      16 UNK        -0.5000 
     90 CA         -6.1874  -27.2882  -52.7427 C.3       16 UNK         0.1400 
     91 CB         -6.5335  -28.2192  -53.9148 C.3       16 UNK        -0.1800 
     92 C          -6.1811  -25.8221  -53.2127 C.2       16 UNK         0.5000 
     93 O          -5.1609  -25.3568  -53.7246 O.2       16 UNK        -0.5000 
     94 N          -7.3191  -25.1292  -53.0853 N.am      17 UNK        -0.5000 
     95 CA         -7.4690  -23.7164  -53.4571 C.3       17 UNK         0.1400 
     96 CB         -8.8516  -23.2189  -53.0112 C.3       17 UNK        -0.1800 
     97 C          -7.2425  -23.4294  -54.9560 C.2       17 UNK         0.5000 
     98 O          -6.8271  -22.3249  -55.3025 O.2       17 UNK        -0.5000 
     99 N          -7.4970  -24.4324  -55.8078 N.am      18 UNK        -0.5000 
    100 CA        -7.2308  -24.3898  -57.2459 C.3       18 UNK         0.1400 
    101 CB        -8.1232  -25.4282  -57.9438 C.3       18 UNK        -0.1800 
    102 C         -5.7486  -24.6376  -57.5942 C.2       18 UNK         0.5000 
    103 O         -5.3049  -24.2088  -58.6602 O.2       18 UNK        -0.5000 
    104 N         -5.0166  -25.3352  -56.7137 N.am      19 UNK        -0.5000 
    105 CA        -3.5877  -25.6166  -56.8625 C.3       19 UNK         0.1400 
    106 CB        -3.2539  -26.9475  -56.1690 C.3       19 UNK        -0.1800 
    107 C         -2.7333  -24.4736  -56.2894 C.2       19 UNK         0.5000 
    108 O         -1.7066  -24.1249  -56.8742 O.2       19 UNK        -0.5000 
    109 N         -3.1813  -23.9088  -55.1611 N.am      20 UNK        -0.5000 
    110 CA        -2.6114  -22.7335  -54.5109 C.3       20 UNK         0.1400 
    111 CB        -3.2954  -22.5580  -53.1453 C.3       20 UNK        -0.1800 
    112 C         -2.7781  -21.4544  -55.3533 C.2       20 UNK         0.5000 
    113 O         -3.6755  -21.3657  -56.1945 O.2       20 UNK        -0.5000 
    114 N         -1.9387  -20.4534  -55.0603 N.am      21 UNK        -0.5000 
    115 CA        -1.9652  -19.1261  -55.6852 C.3       21 UNK         0.1400 
    116 CB        -0.6715  -18.3839  -55.3114 C.3       21 UNK        -0.1800 
    117 C         -3.2014  -18.2769  -55.3140 C.2       21 UNK         0.5000 
    118 O         -3.4321  -17.2427  -55.9418 O.2       21 UNK        -0.5000 
    119 N         -3.9565  -18.7105  -54.2966 N.am      22 UNK        -0.5000 
    120 CA        -5.1522  -18.0361  -53.7681 C.3       22 UNK         0.1400 
    121 C         -6.3911  -18.0715  -54.7103 C.2       22 UNK         0.5000 
    122 N         -6.4424  -18.9468  -55.7071 N.am      22 UNK        -0.7600 
    123 O         -7.3197  -17.2881  -54.5326 O.2       22 UNK        -0.5000 
    124 C124       -5.5373  -18.5485  -52.3510 C.3       23 UNK        -0.0398 
    125 S125       -4.1417  -18.8806  -51.2153 S.3       23 UNK        -0.2404 
    126 C126       -3.2242  -17.3058  -51.2267 C.3       23 UNK        -0.0205 
    127 H127       -2.9389  -14.8105  -44.9624 H         1 UNK         0.0600 
    128 H128       -3.9757  -13.6807  -45.8362 H         1 UNK         0.0600 
    129 H129       -3.6358  -13.4225  -44.1209 H         1 UNK         0.0600 
    130 H130       -0.7552  -14.4844  -45.2086 H         1 UNK         0.3000 
    131 H131        0.2800  -12.0330  -46.5029 H         1 UNK         0.0600 
    132 H132        2.3932  -13.3548  -46.6943 H         1 UNK         0.0800 
    133 H133        1.6556  -14.6999  -45.8709 H         1 UNK         0.0800 
    134 H134        0.9282  -16.6255  -47.1002 H         1 UNK         0.0800 
    135 H135       -0.6845  -15.9620  -47.0200 H         1 UNK         0.0800 
    136 H136       -2.1709  -16.0008  -49.0550 H         1 UNK         0.1150 
    137 H137       -1.2310  -18.9607  -52.0080 H         1 UNK         0.1150 
    138 H138        1.6548  -17.9389  -49.0100 H         1 UNK         0.1150 
    139 H139        1.0296  -19.8023  -52.1963 H         1 UNK         0.0800 
    140 H140        2.2858  -19.1460  -51.1812 H         1 UNK         0.0800 
    141 H141       -0.1301  -22.8305  -50.9832 H         1 UNK         0.0800 
    142 H142       -0.8520  -21.2680  -51.2544 H         1 UNK         0.0800 
    143 H143       -0.5165  -22.5678  -48.5053 H         1 UNK         0.0600 
    144 H144       -1.2422  -19.9084  -49.1221 H         1 UNK         0.3000 
    145 H145       -1.6811  -18.4989  -47.4175 H         1 UNK         0.0600 
    146 H146       -4.0225  -17.7986  -46.9643 H         1 UNK         0.0600 
    147 H147       -3.9843  -18.9186  -48.3128 H         1 UNK         0.0600 
    148 H148       -4.5059  -19.4806  -46.7317 H         1 UNK         0.0600 
    149 H149       -2.9720  -18.9365  -44.9071 H         1 UNK         0.3000 
    150 H150       -1.9293  -18.3735  -43.0625 H         1 UNK         0.0600 
    151 H151        0.2364  -20.5311  -42.8181 H         1 UNK         0.0600 
    152 H152       -1.4936  -20.8400  -42.9009 H         1 UNK         0.0600 
    153 H153       -0.8275  -19.9725  -41.5259 H         1 UNK         0.0600 
    154 H154        0.7211  -18.1429  -42.2204 H         1 UNK         0.3000 
    155 H155        1.8069  -15.2097  -43.5677 H         1 UNK         0.0600 
    156 H156        0.2513  -15.0278  -40.9362 H         1 UNK         0.0600 
    157 H157       -0.0775  -14.0481  -42.3562 H         1 UNK         0.0600 
    158 H158        1.4606  -13.8844  -41.5292 H         1 UNK         0.0600 
    159 H159        2.3412  -16.2798  -40.9765 H         1 UNK         0.3000 
    160 H160        3.9212  -18.9412  -41.4305 H         1 UNK         0.0600 
    161 H161        6.0865  -16.9881  -42.3576 H         1 UNK         0.0600 
    162 H162        5.6631  -18.5019  -43.1511 H         1 UNK         0.0600 
    163 H163        6.3567  -18.5221  -41.5402 H         1 UNK         0.0600 
    164 H164        4.8701  -16.3514  -40.2887 H         1 UNK         0.3000 
    165 H165        3.0615  -16.7837  -37.3225 H         1 UNK         0.0600 
    166 H166        4.9282  -18.3435  -36.7474 H         1 UNK         0.0600 
    167 H167        6.0796  -17.2805  -37.5479 H         1 UNK         0.0600 
    168 H168        5.2243  -16.7367  -36.1036 H         1 UNK         0.0600 
    169 H169        5.2087  -15.0228  -38.0177 H         1 UNK         0.3000 
    170 H170        3.0885  -12.4116  -38.9040 H         1 UNK         0.0600 
    171 H171        4.8773  -12.7560  -37.1737 H         1 UNK         0.0600 
    172 H172        6.0175  -13.2069  -38.4406 H         1 UNK         0.0600 
    173 H173        5.3396  -11.5862  -38.3958 H         1 UNK         0.0600 
    174 H174        3.7903  -12.1053  -40.9718 H         1 UNK         0.3000 
    175 H175        6.4686  -12.9189  -42.7849 H         1 UNK         0.0600 
    176 H176        5.2251  -13.8389  -44.7670 H         1 UNK         0.0600 
    177 H177        5.6736  -15.0797  -43.6122 H         1 UNK         0.0600 
    178 H178        4.0145  -14.5064  -43.6774 H         1 UNK         0.0600 
    179 H179        3.7545  -12.0202  -43.4795 H         1 UNK         0.3000 
    180 H180        4.2482   -8.7211  -42.3776 H         1 UNK         0.0600 
    181 H181        4.4838   -9.5477  -45.3216 H         1 UNK         0.0600 
    182 H182        5.6248   -8.5241  -44.4576 H         1 UNK         0.0600 
    183 H183        3.9825   -7.9641  -44.7261 H         1 UNK         0.0600 
    184 H184        2.3133   -9.7946  -44.1642 H         1 UNK         0.3000 
    185 H185        0.3062  -11.5580  -41.8693 H         1 UNK         0.0600 
    186 H186       -1.4592   -9.9383  -42.4446 H         1 UNK         0.0600 
    187 H187       -0.3186   -9.1913  -41.3381 H         1 UNK         0.0600 
    188 H188       -0.2630   -8.7931  -43.0517 H         1 UNK         0.0600 
    189 H189       -0.5243  -11.0365  -44.3719 H         1 UNK         0.3000 
    190 H190       -3.5640  -21.2847  -49.6602 H         1 UNK         0.3000 
    191 H191       -4.7627  -23.7454  -50.5126 H         1 UNK         0.0600 
    192 H192       -5.6070  -21.5561  -51.2475 H         1 UNK         0.0600 
    193 H193       -6.8727  -22.3945  -50.3722 H         1 UNK         0.0600 
    194 H194       -5.9845  -21.0932  -49.5873 H         1 UNK         0.0600 
    195 H195       -3.8452  -22.8208  -47.3418 H         1 UNK         0.3000 
    196 H196       -5.9405  -24.3946  -45.9882 H         1 UNK         0.0600 
    197 H197       -4.7084  -23.8221  -43.9597 H         1 UNK         0.0600 
    198 H198       -4.9062  -22.3587  -44.9125 H         1 UNK         0.0600 
    199 H199       -3.3524  -23.1934  -44.8812 H         1 UNK         0.0600 
    200 H200       -2.9043  -24.9507  -47.5971 H         1 UNK         0.3000 
    201 H201       -2.4650  -27.5728  -46.2178 H         1 UNK         0.0600 
    202 H202       -0.1387  -27.3524  -47.0803 H         1 UNK         0.0600 
    203 H203       -0.5230  -25.7794  -47.7703 H         1 UNK         0.0600 
    204 H204       -0.5584  -26.0120  -46.0248 H         1 UNK         0.0600 
    205 H205       -2.3388  -25.9351  -49.4192 H         1 UNK         0.3000 
    206 H206       -2.6944  -28.4925  -50.8821 H         1 UNK         0.0600 
    207 H207       -0.9501  -26.8297  -51.6413 H         1 UNK         0.0600 
    208 H208       -2.1983  -27.0531  -52.8544 H         1 UNK         0.0600 
    209 H209       -2.2077  -25.6129  -51.8468 H         1 UNK         0.0600 
    210 H210       -4.2702  -28.1786  -52.8267 H         1 UNK         0.3000 
    211 H211       -6.9365  -27.4109  -51.9576 H         1 UNK         0.0600 
    212 H212       -5.8133  -28.1302  -54.7292 H         1 UNK         0.0600 
    213 H213       -7.5187  -27.9877  -54.3215 H         1 UNK         0.0600 
    214 H214       -6.5522  -29.2618  -53.5971 H         1 UNK         0.0600 
    215 H215       -8.1249  -25.5745  -52.6698 H         1 UNK         0.3000 
    216 H216       -6.7139  -23.1519  -52.9074 H         1 UNK         0.0600 
    217 H217       -8.9814  -22.1620  -53.2485 H         1 UNK         0.0600 
    218 H218       -8.9810  -23.3260  -51.9340 H         1 UNK         0.0600 
    219 H219       -9.6549  -23.7677  -53.5041 H         1 UNK         0.0600 
    220 H220       -7.8574  -25.2982  -55.4355 H         1 UNK         0.3000 
    221 H221       -7.4989  -23.4014  -57.6254 H         1 UNK         0.0600 
    222 H222       -7.9069  -26.4410  -57.6012 H         1 UNK         0.0600 
    223 H223       -9.1789  -25.2287  -57.7593 H         1 UNK         0.0600 
    224 H224       -7.9741  -25.4084  -59.0242 H         1 UNK         0.0600 
    225 H225       -5.4314  -25.5861  -55.8266 H         1 UNK         0.3000 
    226 H226       -3.3452  -25.7212  -57.9222 H         1 UNK         0.0600 
    227 H227       -2.1992  -27.1959  -56.2927 H         1 UNK         0.0600 
    228 H228       -3.4571  -26.9111  -55.0988 H         1 UNK         0.0600 
    229 H229       -3.8331  -27.7681  -56.5926 H         1 UNK         0.0600 
    230 H230       -4.0109  -24.3019  -54.7254 H         1 UNK         0.3000 
    231 H231       -1.5459  -22.9144  -54.3548 H         1 UNK         0.0600 
    232 H232       -4.3670  -22.3902  -53.2572 H         1 UNK         0.0600 
    233 H233       -2.8870  -21.7082  -52.5982 H         1 UNK         0.0600 
    234 H234       -3.1621  -23.4417  -52.5214 H         1 UNK         0.0600 
    235 H235       -1.2246  -20.6012  -54.3629 H         1 UNK         0.3000 
    236 H236       -1.9807  -19.2621  -56.7685 H         1 UNK         0.0600 
    237 H237        0.2105  -18.9448  -55.6210 H         1 UNK         0.0600 
    238 H238       -0.6228  -17.4112  -55.8026 H         1 UNK         0.0600 
    239 H239       -0.6008  -18.2102  -54.2374 H         1 UNK         0.0600 
    240 H240       -3.6927  -19.5658  -53.8338 H         1 UNK         0.3000 
    241 H241       -4.8969  -16.9796  -53.6720 H         1 UNK         0.0600 
    242 H242       -5.7041  -19.6235  -55.8382 H         1 UNK         0.3800 
    243 H243       -7.2498  -18.9679  -56.3090 H         1 UNK         0.3800 
    244 H244       -6.2092  -17.8377  -51.8673 H         1 UNK         0.0800 
    245 H245       -6.0995  -19.4804  -52.4323 H         1 UNK         0.0800 
    246 H246       -3.8100  -16.5463  -50.7069 H         1 UNK         0.0800 
    247 H247       -3.0813  -16.9510  -52.2467 H         1 UNK         0.0800 
@<TRIPOS>BOND
     1    1    2 1    
     2    1  127 1    
     3    1  128 1    
     4    1  129 1    
     5    2    3 2    
     6    2    4 am   BACKBONE|DICT|INTERRES
     7    4    5 1    
     8    4  130 1    
     9    5    6 1    
    10    5   65 1    
    11    5  131 1    
    12    6    7 1    
    13    6  132 1    
    14    6  133 1    
    15    7    8 1    
    16    8    9 1    
    17    8  134 1    
    18    8  135 1    
    19    9   10 ar   
    20    9   14 ar   
    21   10   11 ar   
    22   10  136 1    
    23   11   12 ar   
    24   11  126 1    
    25   12   13 ar   
    26   12  137 1    
    27   13   14 ar   
    28   13   15 1    
    29   14  138 1    
    30   15   16 1    
    31   15  139 1    
    32   15  140 1    
    33   16   17 1    
    34   17   18 1    
    35   17  141 1    
    36   17  142 1    
    37   18   19 1    
    38   18   67 1    
    39   18  143 1    
    40   19   20 am   BACKBONE|DICT|INTERRES
    41   19  144 1    
    42   20   21 2    
    43   20   22 1    
    44   22   23 1    
    45   22   24 1    
    46   22  145 1    
    47   23  146 1    
    48   23  147 1    
    49   23  148 1    
    50   24   25 am   BACKBONE|DICT|INTERRES
    51   24  149 1    
    52   25   26 2    
    53   25   27 1    
    54   27   28 1    
    55   27   29 1    
    56   27  150 1    
    57   28  151 1    
    58   28  152 1    
    59   28  153 1    
    60   29   30 am   BACKBONE|DICT|INTERRES
    61   29  154 1    
    62   30   31 2    
    63   30   32 1    
    64   32   33 1    
    65   32   34 1    
    66   32  155 1    
    67   33  156 1    
    68   33  157 1    
    69   33  158 1    
    70   34   35 am   BACKBONE|DICT|INTERRES
    71   34  159 1    
    72   35   36 2    
    73   35   37 1    
    74   37   38 1    
    75   37   39 1    
    76   37  160 1    
    77   38  161 1    
    78   38  162 1    
    79   38  163 1    
    80   39   40 am   BACKBONE|DICT|INTERRES
    81   39  164 1    
    82   40   41 2    
    83   40   42 1    
    84   42   43 1    
    85   42   44 1    
    86   42  165 1    
    87   43  166 1    
    88   43  167 1    
    89   43  168 1    
    90   44   45 am   BACKBONE|DICT|INTERRES
    91   44  169 1    
    92   45   46 2    
    93   45   47 1    
    94   47   48 1    
    95   47   49 1    
    96   47  170 1    
    97   48  171 1    
    98   48  172 1    
    99   48  173 1    
   100   49   50 am   BACKBONE|DICT|INTERRES
   101   49  174 1    
   102   50   51 2    
   103   50   52 1    
   104   52   53 1    
   105   52   54 1    
   106   52  175 1    
   107   53  176 1    
   108   53  177 1    
   109   53  178 1    
   110   54   55 am   BACKBONE|DICT|INTERRES
   111   54  179 1    
   112   55   56 2    
   113   55   57 1    
   114   57   58 1    
   115   57   59 1    
   116   57  180 1    
   117   58  181 1    
   118   58  182 1    
   119   58  183 1    
   120   59   60 am   BACKBONE|DICT|INTERRES
   121   59  184 1    
   122   60   61 2    
   123   60   62 1    
   124   62   63 1    
   125   62   64 1    
   126   62  185 1    
   127   63  186 1    
   128   63  187 1    
   129   63  188 1    
   130   64   65 am   BACKBONE|DICT|INTERRES
   131   64  189 1    
   132   65   66 2    
   133   67   68 2    
   134   67   69 am   BACKBONE|DICT|INTERRES
   135   69   70 1    
   136   69  190 1    
   137   70   71 1    
   138   70   72 1    
   139   70  191 1    
   140   71  192 1    
   141   71  193 1    
   142   71  194 1    
   143   72   73 2    
   144   72   74 am   BACKBONE|DICT|INTERRES
   145   74   75 1    
   146   74  195 1    
   147   75   76 1    
   148   75   77 1    
   149   75  196 1    
   150   76  197 1    
   151   76  198 1    
   152   76  199 1    
   153   77   78 2    
   154   77   79 am   BACKBONE|DICT|INTERRES
   155   79   80 1    
   156   79  200 1    
   157   80   81 1    
   158   80   82 1    
   159   80  201 1    
   160   81  202 1    
   161   81  203 1    
   162   81  204 1    
   163   82   83 2    
   164   82   84 am   BACKBONE|DICT|INTERRES
   165   84   85 1    
   166   84  205 1    
   167   85   86 1    
   168   85   87 1    
   169   85  206 1    
   170   86  207 1    
   171   86  208 1    
   172   86  209 1    
   173   87   88 2    
   174   87   89 am   BACKBONE|DICT|INTERRES
   175   89   90 1    
   176   89  210 1    
   177   90   91 1    
   178   90   92 1    
   179   90  211 1    
   180   91  212 1    
   181   91  213 1    
   182   91  214 1    
   183   92   93 2    
   184   92   94 am   BACKBONE|DICT|INTERRES
   185   94   95 1    
   186   94  215 1    
   187   95   96 1    
   188   95   97 1    
   189   95  216 1    
   190   96  217 1    
   191   96  218 1    
   192   96  219 1    
   193   97   98 2    
   194   97   99 am   BACKBONE|DICT|INTERRES
   195   99  100 1    
   196   99  220 1    
   197  100  101 1    
   198  100  102 1    
   199  100  221 1    
   200  101  222 1    
   201  101  223 1    
   202  101  224 1    
   203  102  103 2    
   204  102  104 am   BACKBONE|DICT|INTERRES
   205  104  105 1    
   206  104  225 1    
   207  105  106 1    
   208  105  107 1    
   209  105  226 1    
   210  106  227 1    
   211  106  228 1    
   212  106  229 1    
   213  107  108 2    
   214  107  109 am   BACKBONE|DICT|INTERRES
   215  109  110 1    
   216  109  230 1    
   217  110  111 1    
   218  110  112 1    
   219  110  231 1    
   220  111  232 1    
   221  111  233 1    
   222  111  234 1    
   223  112  113 2    
   224  112  114 am   BACKBONE|DICT|INTERRES
   225  114  115 1    
   226  114  235 1    
   227  115  116 1    
   228  115  117 1    
   229  115  236 1    
   230  116  237 1    
   231  116  238 1    
   232  116  239 1    
   233  117  118 2    
   234  117  119 am   BACKBONE|DICT|INTERRES
   235  119  120 1    
   236  119  240 1    
   237  120  121 1    
   238  120  124 1    
   239  120  241 1    
   240  121  122 am   BACKBONE|DICT|INTERRES
   241  121  123 2    
   242  122  242 1    
   243  122  243 1    
   244  124  125 1    
   245  124  244 1    
   246  124  245 1    
   247  125  126 1    
   248  126  246 1    
   249  126  247 1    
@<TRIPOS>SUBSTRUCTURE
     1 UNK         1 GROUP             0       ****    0 ROOT    
