@<TRIPOS>MOLECULE
3R540
247   249    1
SMALL
USER_CHARGES


@<TRIPOS>ATOM
      1 CA         -1.3164   -9.1589  -50.4788 C.3       0 UNK        -0.1800 
      2 C          -0.4487  -10.1373  -49.7010 C.2       0 UNK         0.5000 
      3 O           0.0687   -9.7902  -48.6391 O.2       0 UNK        -0.5000 
      4 N          -0.3022  -11.3681  -50.2104 N.am      1 UNK        -0.5000 
      5 CA          0.5145  -12.4404  -49.6220 C.3       1 UNK         0.1400 
      6 C6          0.7719  -13.6008  -50.6114 C.3       23 UNK        -0.0398 
      7 S7         -0.7365  -14.3391  -51.3403 S.3       23 UNK        -0.2404 
      8 C8         -0.7384  -16.0308  -50.6444 C.3       23 UNK        -0.0205 
      9 C9          0.5641  -16.8056  -50.8457 C.ar      23 UNK        -0.0193 
     10 C10         1.3261  -16.6870  -52.0159 C.ar      23 UNK        -0.1150 
     11 C11         2.5592  -17.3356  -52.1315 C.ar      23 UNK        -0.0193 
     12 C12         3.0108  -18.1434  -51.0828 C.ar      23 UNK        -0.1150 
     13 C13         2.2509  -18.2909  -49.9192 C.ar      23 UNK        -0.0193 
     14 C14         1.0287  -17.6227  -49.8117 C.ar      23 UNK        -0.1150 
     15 C15         2.7845  -19.1061  -48.7490 C.3       23 UNK        -0.0205 
     16 S16         2.3924  -20.8799  -48.8780 S.3       23 UNK        -0.2404 
     17 C17         0.5904  -20.9062  -48.6003 C.3       23 UNK        -0.0398 
     18 CA          0.1341  -22.1706  -47.8289 C.3       11 UNK         0.1400 
     19 N           0.4485  -22.1151  -46.3959 N.am      11 UNK        -0.5000 
     20 C           0.2757  -23.1350  -45.5407 C.2       10 UNK         0.5000 
     21 O          -0.1023  -24.2567  -45.8809 O.2       10 UNK        -0.5000 
     22 CA          0.5062  -22.8436  -44.0460 C.3       10 UNK         0.1400 
     23 CB          2.0035  -22.8430  -43.7043 C.3       10 UNK        -0.1800 
     24 N          -0.1096  -21.5863  -43.6168 N.am      10 UNK        -0.5000 
     25 C          -1.4310  -21.3546  -43.6204 C.2       9 UNK         0.5000 
     26 O          -2.2692  -22.1973  -43.9351 O.2       9 UNK        -0.5000 
     27 CA         -1.8999  -19.9328  -43.2632 C.3       9 UNK         0.1400 
     28 CB         -1.9597  -19.7384  -41.7412 C.3       9 UNK        -0.1800 
     29 N          -1.0585  -18.8975  -43.8589 N.am      9 UNK        -0.5000 
     30 C          -0.8866  -18.7112  -45.1747 C.2       8 UNK         0.5000 
     31 O          -1.4687  -19.3563  -46.0452 O.2       8 UNK        -0.5000 
     32 CA          0.1659  -17.6700  -45.5845 C.3       8 UNK         0.1400 
     33 CB         -0.4191  -16.2522  -45.5294 C.3       8 UNK        -0.1800 
     34 N           1.3748  -17.7650  -44.7632 N.am      8 UNK        -0.5000 
     35 C           2.1974  -18.8255  -44.7675 C.2       7 UNK         0.5000 
     36 O           2.0425  -19.8015  -45.5001 O.2       7 UNK        -0.5000 
     37 CA          3.3482  -18.8265  -43.7473 C.3       7 UNK         0.1400 
     38 CB          4.5769  -18.0895  -44.2941 C.3       7 UNK        -0.1800 
     39 N           2.9441  -18.2413  -42.4697 N.am      7 UNK        -0.5000 
     40 C           2.1296  -18.8593  -41.6024 C.2       6 UNK         0.5000 
     41 O           1.6877  -19.9951  -41.7760 O.2       6 UNK        -0.5000 
     42 CA          1.6957  -18.0618  -40.3583 C.3       6 UNK         0.1400 
     43 CB          2.7072  -18.2477  -39.2179 C.3       6 UNK        -0.1800 
     44 N           1.5165  -16.6318  -40.6174 N.am      6 UNK        -0.5000 
     45 C           0.6397  -16.1135  -41.4879 C.2       5 UNK         0.5000 
     46 O          -0.1249  -16.7984  -42.1658 O.2       5 UNK        -0.5000 
     47 CA          0.6160  -14.5824  -41.6506 C.3       5 UNK         0.1400 
     48 CB          1.2147  -13.8209  -40.4476 C.3       5 UNK        -0.1800 
     49 N           1.2478  -14.1308  -42.8938 N.am      5 UNK        -0.5000 
     50 C           2.5085  -14.3504  -43.3052 C.2       4 UNK         0.5000 
     51 O           3.2757  -15.1423  -42.7555 O.2       4 UNK        -0.5000 
     52 CA          3.0169  -13.5388  -44.5206 C.3       4 UNK         0.1400 
     53 CB          3.3627  -14.4502  -45.7087 C.3       4 UNK        -0.1800 
     54 N           2.0804  -12.5028  -44.9650 N.am      4 UNK        -0.5000 
     55 C           1.8514  -11.3504  -44.3138 C.2       3 UNK         0.5000 
     56 O           2.4823  -11.0031  -43.3149 O.2       3 UNK        -0.5000 
     57 CA          0.7147  -10.4414  -44.8310 C.3       3 UNK         0.1400 
     58 CB          1.2957   -9.2135  -45.5479 C.3       3 UNK        -0.1800 
     59 N          -0.2322  -11.1083  -45.7281 N.am      3 UNK        -0.5000 
     60 C          -1.0153  -12.1505  -45.4069 C.2       2 UNK         0.5000 
     61 O          -1.0709  -12.6350  -44.2758 O.2       2 UNK        -0.5000 
     62 CA         -1.8197  -12.8027  -46.5526 C.3       2 UNK         0.1400 
     63 CB         -3.2622  -12.2768  -46.5613 C.3       2 UNK        -0.1800 
     64 N          -1.2316  -12.6004  -47.8807 N.am      2 UNK        -0.5000 
     65 C           0.0114  -12.9452  -48.2515 C.2       1 UNK         0.5000 
     66 O           0.7813  -13.5747  -47.5266 O.2       1 UNK        -0.5000 
     67 C          -1.3622  -22.4575  -48.0721 C.2       11 UNK         0.5000 
     68 O          -1.6802  -23.3419  -48.8663 O.2       11 UNK        -0.5000 
     69 N          -2.2509  -21.7463  -47.3630 N.am      12 UNK        -0.5000 
     70 CA         -3.7010  -21.9400  -47.4215 C.3       12 UNK         0.1400 
     71 CB         -4.4092  -20.8548  -46.5989 C.3       12 UNK        -0.1800 
     72 C          -4.1368  -23.3441  -46.9691 C.2       12 UNK         0.5000 
     73 O          -4.9719  -23.9559  -47.6325 O.2       12 UNK        -0.5000 
     74 N          -3.5439  -23.8509  -45.8792 N.am      13 UNK        -0.5000 
     75 CA         -3.7693  -25.2030  -45.3664 C.3       13 UNK         0.1400 
     76 CB         -3.0628  -25.3750  -44.0135 C.3       13 UNK        -0.1800 
     77 C          -3.3279  -26.2922  -46.3596 C.2       13 UNK         0.5000 
     78 O          -4.0876  -27.2305  -46.6032 O.2       13 UNK        -0.5000 
     79 N          -2.1390  -26.1221  -46.9566 N.am      14 UNK        -0.5000 
     80 CA         -1.5989  -26.9993  -47.9994 C.3       14 UNK         0.1400 
     81 CB         -0.1496  -26.5945  -48.3075 C.3       14 UNK        -0.1800 
     82 C          -2.4496  -27.0039  -49.2852 C.2       14 UNK         0.5000 
     83 O          -2.5836  -28.0480  -49.9238 O.2       14 UNK        -0.5000 
     84 N          -3.0386  -25.8480  -49.6159 N.am      15 UNK        -0.5000 
     85 CA         -3.9532  -25.6501  -50.7401 C.3       15 UNK         0.1400 
     86 CB         -3.8609  -24.1845  -51.1889 C.3       15 UNK        -0.1800 
     87 C          -5.4144  -26.0438  -50.4303 C.2       15 UNK         0.5000 
     88 O          -6.2769  -25.8326  -51.2826 O.2       15 UNK        -0.5000 
     89 N          -5.6788  -26.5942  -49.2352 N.am      16 UNK        -0.5000 
     90 CA         -6.9792  -27.0594  -48.7401 C.3       16 UNK         0.1400 
     91 CB         -7.4800  -28.2669  -49.5606 C.3       16 UNK        -0.1800 
     92 C          -8.0219  -25.9270  -48.6194 C.2       16 UNK         0.5000 
     93 O          -9.1670  -26.0840  -49.0463 O.2       16 UNK        -0.5000 
     94 N          -7.5891  -24.8062  -48.0268 N.am      17 UNK        -0.5000 
     95 CA         -8.3410  -23.5821  -47.7275 C.3       17 UNK         0.1400 
     96 CB         -9.5915  -23.8698  -46.8696 C.3       17 UNK        -0.1800 
     97 C          -8.6434  -22.7049  -48.9594 C.2       17 UNK         0.5000 
     98 O          -9.4565  -21.7835  -48.8625 O.2       17 UNK        -0.5000 
     99 N          -7.9627  -22.9670  -50.0823 N.am      18 UNK        -0.5000 
    100 CA        -7.9425  -22.0988  -51.2592 C.3       18 UNK         0.1400 
    101 CB        -7.5569  -22.9400  -52.4864 C.3       18 UNK        -0.1800 
    102 C         -6.9704  -20.9155  -51.0643 C.2       18 UNK         0.5000 
    103 O         -6.2408  -20.8625  -50.0707 O.2       18 UNK        -0.5000 
    104 N         -6.9621  -19.9930  -52.0376 N.am      19 UNK        -0.5000 
    105 CA        -6.1196  -18.7894  -52.0588 C.3       19 UNK         0.1400 
    106 CB        -6.5514  -17.8998  -53.2349 C.3       19 UNK        -0.1800 
    107 C         -4.6035  -19.0690  -52.1296 C.2       19 UNK         0.5000 
    108 O         -3.8144  -18.2012  -51.7560 O.2       19 UNK        -0.5000 
    109 N         -4.2307  -20.2647  -52.6091 N.am      20 UNK        -0.5000 
    110 CA        -2.8965  -20.8794  -52.6425 C.3       20 UNK         0.1400 
    111 CB        -2.3035  -20.9753  -51.2262 C.3       20 UNK        -0.1800 
    112 C         -1.8747  -20.2402  -53.6002 C.2       20 UNK         0.5000 
    113 O         -1.0376  -20.9673  -54.1344 O.2       20 UNK        -0.5000 
    114 N         -1.9415  -18.9174  -53.7874 N.am      21 UNK        -0.5000 
    115 CA        -1.0302  -18.1112  -54.5962 C.3       21 UNK         0.1400 
    116 CB        -1.4509  -16.6367  -54.4887 C.3       21 UNK        -0.1800 
    117 C         -1.0062  -18.5504  -56.0787 C.2       21 UNK         0.5000 
    118 O         -2.0350  -18.4280  -56.7445 O.2       21 UNK        -0.5000 
    119 N          0.1133  -19.0373  -56.6254 N.am      22 UNK        -0.5000 
    120 CA         1.3735  -19.4136  -55.9734 C.3       22 UNK         0.1400 
    121 C          2.0794  -20.5013  -56.8294 C.2       22 UNK         0.5000 
    122 N          2.8180  -21.4124  -56.2119 N.am      22 UNK        -0.7600 
    123 O          1.9759  -20.5176  -58.0550 O.2       22 UNK        -0.5000 
    124 C124        2.2895  -18.1884  -55.7078 C.3       23 UNK        -0.0398 
    125 S125        3.5615  -18.5360  -54.4430 S.3       23 UNK        -0.2404 
    126 C126        3.4523  -17.0921  -53.3407 C.3       23 UNK        -0.0205 
    127 H127       -1.7170   -9.6070  -51.3885 H         1 UNK         0.0600 
    128 H128       -0.7327   -8.2823  -50.7595 H         1 UNK         0.0600 
    129 H129       -2.1539   -8.8297  -49.8637 H         1 UNK         0.0600 
    130 H130       -0.7686  -11.6088  -51.0743 H         1 UNK         0.3000 
    131 H131        1.4901  -11.9956  -49.4138 H         1 UNK         0.0600 
    132 H132        1.3864  -14.3676  -50.1377 H         1 UNK         0.0800 
    133 H133        1.3759  -13.2301  -51.4405 H         1 UNK         0.0800 
    134 H134       -0.9665  -15.9500  -49.5802 H         1 UNK         0.0800 
    135 H135       -1.5565  -16.5992  -51.0883 H         1 UNK         0.0800 
    136 H136        0.9850  -16.0486  -52.8178 H         1 UNK         0.1150 
    137 H137        3.9705  -18.6350  -51.1617 H         1 UNK         0.1150 
    138 H138        0.4482  -17.7139  -48.9061 H         1 UNK         0.1150 
    139 H139        3.8684  -18.9956  -48.6948 H         1 UNK         0.0800 
    140 H140        2.4008  -18.7084  -47.8110 H         1 UNK         0.0800 
    141 H141        0.1279  -20.8536  -49.5863 H         1 UNK         0.0800 
    142 H142        0.2790  -20.0065  -48.0693 H         1 UNK         0.0800 
    143 H143        0.6753  -23.0261  -48.2390 H         1 UNK         0.0600 
    144 H144        0.8189  -21.2369  -46.0440 H         1 UNK         0.3000 
    145 H145        0.0363  -23.6490  -43.4779 H         1 UNK         0.0600 
    146 H146        2.1645  -22.6887  -42.6373 H         1 UNK         0.0600 
    147 H147        2.4619  -23.7968  -43.9682 H         1 UNK         0.0600 
    148 H148        2.5432  -22.0631  -44.2402 H         1 UNK         0.0600 
    149 H149        0.5157  -20.8573  -43.2932 H         1 UNK         0.3000 
    150 H150       -2.9087  -19.8053  -43.6605 H         1 UNK         0.0600 
    151 H151       -2.6256  -20.4697  -41.2814 H         1 UNK         0.0600 
    152 H152       -2.3356  -18.7478  -41.4846 H         1 UNK         0.0600 
    153 H153       -0.9789  -19.8531  -41.2805 H         1 UNK         0.0600 
    154 H154       -0.5798  -18.2706  -43.2166 H         1 UNK         0.3000 
    155 H155        0.4499  -17.8741  -46.6169 H         1 UNK         0.0600 
    156 H156       -0.7680  -15.9845  -44.5328 H         1 UNK         0.0600 
    157 H157       -1.2703  -16.1678  -46.2054 H         1 UNK         0.0600 
    158 H158        0.3110  -15.5073  -45.8360 H         1 UNK         0.0600 
    159 H159        1.5242  -17.0372  -44.0805 H         1 UNK         0.3000 
    160 H160        3.6355  -19.8663  -43.5766 H         1 UNK         0.0600 
    161 H161        4.3805  -17.0275  -44.4232 H         1 UNK         0.0600 
    162 H162        4.8773  -18.4915  -45.2627 H         1 UNK         0.0600 
    163 H163        5.4276  -18.1911  -43.6202 H         1 UNK         0.0600 
    164 H164        3.2301  -17.2860  -42.2863 H         1 UNK         0.3000 
    165 H165        0.7342  -18.4616  -40.0303 H         1 UNK         0.0600 
    166 H166        2.3663  -17.7600  -38.3044 H         1 UNK         0.0600 
    167 H167        2.8460  -19.3050  -38.9880 H         1 UNK         0.0600 
    168 H168        3.6841  -17.8362  -39.4750 H         1 UNK         0.0600 
    169 H169        2.1305  -16.0007  -40.1236 H         1 UNK         0.3000 
    170 H170       -0.4361  -14.3029  -41.7240 H         1 UNK         0.0600 
    171 H171        0.7386  -14.1221  -39.5134 H         1 UNK         0.0600 
    172 H172        2.2879  -13.9845  -40.3445 H         1 UNK         0.0600 
    173 H173        1.0581  -12.7474  -40.5547 H         1 UNK         0.0600 
    174 H174        0.6710  -13.5146  -43.4556 H         1 UNK         0.3000 
    175 H175        3.9384  -13.0429  -44.2087 H         1 UNK         0.0600 
    176 H176        2.5461  -15.1244  -45.9628 H         1 UNK         0.0600 
    177 H177        3.6026  -13.8680  -46.5987 H         1 UNK         0.0600 
    178 H178        4.2376  -15.0588  -45.4859 H         1 UNK         0.0600 
    179 H179        1.5305  -12.7229  -45.7888 H         1 UNK         0.3000 
    180 H180        0.1554  -10.0966  -43.9591 H         1 UNK         0.0600 
    181 H181        1.8614   -9.4990  -46.4358 H         1 UNK         0.0600 
    182 H182        1.9688   -8.6581  -44.8934 H         1 UNK         0.0600 
    183 H183        0.5075   -8.5278  -45.8596 H         1 UNK         0.0600 
    184 H184       -0.2393  -10.7787  -46.6866 H         1 UNK         0.3000 
    185 H185       -1.8483  -13.8758  -46.3630 H         1 UNK         0.0600 
    186 H186       -3.7415  -12.4341  -45.5940 H         1 UNK         0.0600 
    187 H187       -3.2990  -11.2080  -46.7765 H         1 UNK         0.0600 
    188 H188       -3.8659  -12.7918  -47.3088 H         1 UNK         0.0600 
    189 H189       -1.7862  -12.0778  -48.5427 H         1 UNK         0.3000 
    190 H190       -1.9170  -21.0024  -46.7538 H         1 UNK         0.3000 
    191 H191       -4.0109  -21.8230  -48.4612 H         1 UNK         0.0600 
    192 H192       -4.1342  -20.9027  -45.5454 H         1 UNK         0.0600 
    193 H193       -5.4927  -20.9632  -46.6636 H         1 UNK         0.0600 
    194 H194       -4.1603  -19.8590  -46.9659 H         1 UNK         0.0600 
    195 H195       -2.9060  -23.2639  -45.3472 H         1 UNK         0.3000 
    196 H196       -4.8426  -25.3200  -45.2033 H         1 UNK         0.0600 
    197 H197       -3.2225  -26.3768  -43.6130 H         1 UNK         0.0600 
    198 H198       -3.4444  -24.6666  -43.2782 H         1 UNK         0.0600 
    199 H199       -1.9867  -25.2215  -44.0975 H         1 UNK         0.0600 
    200 H200       -1.5597  -25.3336  -46.6815 H         1 UNK         0.3000 
    201 H201       -1.5912  -28.0176  -47.6056 H         1 UNK         0.0600 
    202 H202        0.4761  -26.6629  -47.4174 H         1 UNK         0.0600 
    203 H203       -0.0880  -25.5717  -48.6804 H         1 UNK         0.0600 
    204 H204        0.2869  -27.2477  -49.0640 H         1 UNK         0.0600 
    205 H205       -2.8199  -25.0221  -49.0675 H         1 UNK         0.3000 
    206 H206       -3.6225  -26.2747  -51.5722 H         1 UNK         0.0600 
    207 H207       -2.8245  -23.8920  -51.3564 H         1 UNK         0.0600 
    208 H208       -4.3900  -24.0289  -52.1281 H         1 UNK         0.0600 
    209 H209       -4.2877  -23.5088  -50.4465 H         1 UNK         0.0600 
    210 H210       -4.9107  -26.6921  -48.5825 H         1 UNK         0.3000 
    211 H211       -6.8024  -27.4118  -47.7229 H         1 UNK         0.0600 
    212 H212       -7.7281  -27.9889  -50.5853 H         1 UNK         0.0600 
    213 H213       -8.3771  -28.6966  -49.1134 H         1 UNK         0.0600 
    214 H214       -6.7284  -29.0553  -49.5993 H         1 UNK         0.0600 
    215 H215       -6.5969  -24.7424  -47.8014 H         1 UNK         0.3000 
    216 H216       -7.6679  -22.9830  -47.1126 H         1 UNK         0.0600 
    217 H217      -10.0253  -22.9441  -46.4900 H         1 UNK         0.0600 
    218 H218       -9.3451  -24.4877  -46.0062 H         1 UNK         0.0600 
    219 H219      -10.3684  -24.3797  -47.4395 H         1 UNK         0.0600 
    220 H220       -7.3042  -23.7329  -50.0733 H         1 UNK         0.3000 
    221 H221       -8.9435  -21.6935  -51.4208 H         1 UNK         0.0600 
    222 H222       -6.5334  -23.3043  -52.4177 H         1 UNK         0.0600 
    223 H223       -8.2106  -23.8064  -52.5912 H         1 UNK         0.0600 
    224 H224       -7.6389  -22.3628  -53.4078 H         1 UNK         0.0600 
    225 H225       -7.5906  -20.1072  -52.8199 H         1 UNK         0.3000 
    226 H226       -6.3011  -18.2420  -51.1316 H         1 UNK         0.0600 
    227 H227       -7.5999  -17.6135  -53.1500 H         1 UNK         0.0600 
    228 H228       -5.9670  -16.9790  -53.2645 H         1 UNK         0.0600 
    229 H229       -6.4160  -18.4047  -54.1922 H         1 UNK         0.0600 
    230 H230       -4.9757  -20.8626  -52.9350 H         1 UNK         0.3000 
    231 H231       -3.0584  -21.8971  -53.0004 H         1 UNK         0.0600 
    232 H232       -1.4204  -21.6147  -51.2239 H         1 UNK         0.0600 
    233 H233       -3.0200  -21.4058  -50.5294 H         1 UNK         0.0600 
    234 H234       -2.0063  -20.0002  -50.8386 H         1 UNK         0.0600 
    235 H235       -2.6463  -18.4166  -53.2559 H         1 UNK         0.3000 
    236 H236       -0.0468  -18.2022  -54.1397 H         1 UNK         0.0600 
    237 H237       -0.7546  -15.9913  -55.0255 H         1 UNK         0.0600 
    238 H238       -2.4455  -16.4672  -54.9032 H         1 UNK         0.0600 
    239 H239       -1.4684  -16.3050  -53.4530 H         1 UNK         0.0600 
    240 H240        0.0910  -19.3123  -57.5985 H         1 UNK         0.3000 
    241 H241        1.1279  -19.8843  -55.0212 H         1 UNK         0.0600 
    242 H242        3.2859  -22.1190  -56.7581 H         1 UNK         0.3800 
    243 H243        2.9389  -21.3986  -55.2107 H         1 UNK         0.3800 
    244 H244        2.7814  -17.8631  -56.6261 H         1 UNK         0.0800 
    245 H245        1.6979  -17.3344  -55.3793 H         1 UNK         0.0800 
    246 H246        3.1288  -16.2123  -53.8987 H         1 UNK         0.0800 
    247 H247        4.4574  -16.8598  -52.9855 H         1 UNK         0.0800 
@<TRIPOS>BOND
     1    1    2 1    
     2    1  127 1    
     3    1  128 1    
     4    1  129 1    
     5    2    3 2    
     6    2    4 am   BACKBONE|DICT|INTERRES
     7    4    5 1    
     8    4  130 1    
     9    5    6 1    
    10    5   65 1    
    11    5  131 1    
    12    6    7 1    
    13    6  132 1    
    14    6  133 1    
    15    7    8 1    
    16    8    9 1    
    17    8  134 1    
    18    8  135 1    
    19    9   10 ar   
    20    9   14 ar   
    21   10   11 ar   
    22   10  136 1    
    23   11   12 ar   
    24   11  126 1    
    25   12   13 ar   
    26   12  137 1    
    27   13   14 ar   
    28   13   15 1    
    29   14  138 1    
    30   15   16 1    
    31   15  139 1    
    32   15  140 1    
    33   16   17 1    
    34   17   18 1    
    35   17  141 1    
    36   17  142 1    
    37   18   19 1    
    38   18   67 1    
    39   18  143 1    
    40   19   20 am   BACKBONE|DICT|INTERRES
    41   19  144 1    
    42   20   21 2    
    43   20   22 1    
    44   22   23 1    
    45   22   24 1    
    46   22  145 1    
    47   23  146 1    
    48   23  147 1    
    49   23  148 1    
    50   24   25 am   BACKBONE|DICT|INTERRES
    51   24  149 1    
    52   25   26 2    
    53   25   27 1    
    54   27   28 1    
    55   27   29 1    
    56   27  150 1    
    57   28  151 1    
    58   28  152 1    
    59   28  153 1    
    60   29   30 am   BACKBONE|DICT|INTERRES
    61   29  154 1    
    62   30   31 2    
    63   30   32 1    
    64   32   33 1    
    65   32   34 1    
    66   32  155 1    
    67   33  156 1    
    68   33  157 1    
    69   33  158 1    
    70   34   35 am   BACKBONE|DICT|INTERRES
    71   34  159 1    
    72   35   36 2    
    73   35   37 1    
    74   37   38 1    
    75   37   39 1    
    76   37  160 1    
    77   38  161 1    
    78   38  162 1    
    79   38  163 1    
    80   39   40 am   BACKBONE|DICT|INTERRES
    81   39  164 1    
    82   40   41 2    
    83   40   42 1    
    84   42   43 1    
    85   42   44 1    
    86   42  165 1    
    87   43  166 1    
    88   43  167 1    
    89   43  168 1    
    90   44   45 am   BACKBONE|DICT|INTERRES
    91   44  169 1    
    92   45   46 2    
    93   45   47 1    
    94   47   48 1    
    95   47   49 1    
    96   47  170 1    
    97   48  171 1    
    98   48  172 1    
    99   48  173 1    
   100   49   50 am   BACKBONE|DICT|INTERRES
   101   49  174 1    
   102   50   51 2    
   103   50   52 1    
   104   52   53 1    
   105   52   54 1    
   106   52  175 1    
   107   53  176 1    
   108   53  177 1    
   109   53  178 1    
   110   54   55 am   BACKBONE|DICT|INTERRES
   111   54  179 1    
   112   55   56 2    
   113   55   57 1    
   114   57   58 1    
   115   57   59 1    
   116   57  180 1    
   117   58  181 1    
   118   58  182 1    
   119   58  183 1    
   120   59   60 am   BACKBONE|DICT|INTERRES
   121   59  184 1    
   122   60   61 2    
   123   60   62 1    
   124   62   63 1    
   125   62   64 1    
   126   62  185 1    
   127   63  186 1    
   128   63  187 1    
   129   63  188 1    
   130   64   65 am   BACKBONE|DICT|INTERRES
   131   64  189 1    
   132   65   66 2    
   133   67   68 2    
   134   67   69 am   BACKBONE|DICT|INTERRES
   135   69   70 1    
   136   69  190 1    
   137   70   71 1    
   138   70   72 1    
   139   70  191 1    
   140   71  192 1    
   141   71  193 1    
   142   71  194 1    
   143   72   73 2    
   144   72   74 am   BACKBONE|DICT|INTERRES
   145   74   75 1    
   146   74  195 1    
   147   75   76 1    
   148   75   77 1    
   149   75  196 1    
   150   76  197 1    
   151   76  198 1    
   152   76  199 1    
   153   77   78 2    
   154   77   79 am   BACKBONE|DICT|INTERRES
   155   79   80 1    
   156   79  200 1    
   157   80   81 1    
   158   80   82 1    
   159   80  201 1    
   160   81  202 1    
   161   81  203 1    
   162   81  204 1    
   163   82   83 2    
   164   82   84 am   BACKBONE|DICT|INTERRES
   165   84   85 1    
   166   84  205 1    
   167   85   86 1    
   168   85   87 1    
   169   85  206 1    
   170   86  207 1    
   171   86  208 1    
   172   86  209 1    
   173   87   88 2    
   174   87   89 am   BACKBONE|DICT|INTERRES
   175   89   90 1    
   176   89  210 1    
   177   90   91 1    
   178   90   92 1    
   179   90  211 1    
   180   91  212 1    
   181   91  213 1    
   182   91  214 1    
   183   92   93 2    
   184   92   94 am   BACKBONE|DICT|INTERRES
   185   94   95 1    
   186   94  215 1    
   187   95   96 1    
   188   95   97 1    
   189   95  216 1    
   190   96  217 1    
   191   96  218 1    
   192   96  219 1    
   193   97   98 2    
   194   97   99 am   BACKBONE|DICT|INTERRES
   195   99  100 1    
   196   99  220 1    
   197  100  101 1    
   198  100  102 1    
   199  100  221 1    
   200  101  222 1    
   201  101  223 1    
   202  101  224 1    
   203  102  103 2    
   204  102  104 am   BACKBONE|DICT|INTERRES
   205  104  105 1    
   206  104  225 1    
   207  105  106 1    
   208  105  107 1    
   209  105  226 1    
   210  106  227 1    
   211  106  228 1    
   212  106  229 1    
   213  107  108 2    
   214  107  109 am   BACKBONE|DICT|INTERRES
   215  109  110 1    
   216  109  230 1    
   217  110  111 1    
   218  110  112 1    
   219  110  231 1    
   220  111  232 1    
   221  111  233 1    
   222  111  234 1    
   223  112  113 2    
   224  112  114 am   BACKBONE|DICT|INTERRES
   225  114  115 1    
   226  114  235 1    
   227  115  116 1    
   228  115  117 1    
   229  115  236 1    
   230  116  237 1    
   231  116  238 1    
   232  116  239 1    
   233  117  118 2    
   234  117  119 am   BACKBONE|DICT|INTERRES
   235  119  120 1    
   236  119  240 1    
   237  120  121 1    
   238  120  124 1    
   239  120  241 1    
   240  121  122 am   BACKBONE|DICT|INTERRES
   241  121  123 2    
   242  122  242 1    
   243  122  243 1    
   244  124  125 1    
   245  124  244 1    
   246  124  245 1    
   247  125  126 1    
   248  126  246 1    
   249  126  247 1    
@<TRIPOS>SUBSTRUCTURE
     1 UNK         1 GROUP             0       ****    0 ROOT    
