@<TRIPOS>MOLECULE
3R540
247   249    1
SMALL
USER_CHARGES


@<TRIPOS>ATOM
      1 CA         -4.4243  -10.3107  -44.2975 C.3       0 UNK        -0.1800 
      2 C          -3.2752  -11.1341  -44.8612 C.2       0 UNK         0.5000 
      3 O          -2.9651  -12.1976  -44.3240 O.2       0 UNK        -0.5000 
      4 N          -2.6433  -10.6446  -45.9372 N.am      1 UNK        -0.5000 
      5 CA         -1.4987  -11.2301  -46.6479 C.3       1 UNK         0.1400 
      6 C6         -1.7682  -12.6646  -47.1760 C.3       23 UNK        -0.0398 
      7 S7         -0.5206  -13.2411  -48.3734 S.3       23 UNK        -0.2404 
      8 C8         -1.4651  -14.5407  -49.2198 C.3       23 UNK        -0.0205 
      9 C9         -0.5489  -15.4538  -50.0158 C.ar      23 UNK        -0.0193 
     10 C10        -0.3237  -15.2276  -51.3762 C.ar      23 UNK        -0.1150 
     11 C11         0.4988  -16.0885  -52.1078 C.ar      23 UNK        -0.0193 
     12 C12         1.1074  -17.1689  -51.4624 C.ar      23 UNK        -0.1150 
     13 C13         0.8778  -17.4228  -50.1080 C.ar      23 UNK        -0.0193 
     14 C14         0.0564  -16.5452  -49.3880 C.ar      23 UNK        -0.1150 
     15 C15         1.5294  -18.6638  -49.4935 C.3       23 UNK        -0.0205 
     16 S16         1.1033  -19.0236  -47.7563 S.3       23 UNK        -0.2404 
     17 C17        -0.6379  -19.5620  -47.8763 C.3       23 UNK        -0.0398 
     18 CA         -0.8679  -21.0021  -47.3519 C.3       11 UNK         0.1400 
     19 N          -0.2439  -21.2398  -46.0464 N.am      11 UNK        -0.5000 
     20 C          -0.0848  -22.4390  -45.4706 C.2       10 UNK         0.5000 
     21 O          -0.4074  -23.5000  -46.0027 O.2       10 UNK        -0.5000 
     22 CA          0.4849  -22.4470  -44.0390 C.3       10 UNK         0.1400 
     23 CB          2.0149  -22.5479  -44.0543 C.3       10 UNK        -0.1800 
     24 N           0.0791  -21.2632  -43.2792 N.am      10 UNK        -0.5000 
     25 C          -1.1748  -21.0561  -42.8503 C.2       9 UNK         0.5000 
     26 O          -2.0879  -21.8656  -43.0064 O.2       9 UNK        -0.5000 
     27 CA         -1.4769  -19.7019  -42.1874 C.3       9 UNK         0.1400 
     28 CB         -1.2482  -19.7851  -40.6722 C.3       9 UNK        -0.1800 
     29 N          -0.6951  -18.6051  -42.7669 N.am      9 UNK        -0.5000 
     30 C          -0.8709  -18.1551  -44.0200 C.2       8 UNK         0.5000 
     31 O          -1.7100  -18.6385  -44.7822 O.2       8 UNK        -0.5000 
     32 CA          0.0524  -17.0348  -44.5462 C.3       8 UNK         0.1400 
     33 CB         -0.7210  -15.9659  -45.3474 C.3       8 UNK        -0.1800 
     34 N           0.9217  -16.4346  -43.5310 N.am      8 UNK        -0.5000 
     35 C           0.5844  -15.6483  -42.4991 C.2       7 UNK         0.5000 
     36 O          -0.5504  -15.2145  -42.3021 O.2       7 UNK        -0.5000 
     37 CA          1.7260  -15.3199  -41.5104 C.3       7 UNK         0.1400 
     38 CB          1.2147  -14.8641  -40.1276 C.3       7 UNK        -0.1800 
     39 N           2.6949  -16.4210  -41.3830 N.am      7 UNK        -0.5000 
     40 C           2.4315  -17.6594  -40.9401 C.2       6 UNK         0.5000 
     41 O           1.3184  -18.0111  -40.5529 O.2       6 UNK        -0.5000 
     42 CA          3.5900  -18.6771  -40.9770 C.3       6 UNK         0.1400 
     43 CB          3.1365  -20.1083  -40.6155 C.3       6 UNK        -0.1800 
     44 N           4.3189  -18.6865  -42.2497 N.am      6 UNK        -0.5000 
     45 C           3.8369  -18.9525  -43.4718 C.2       5 UNK         0.5000 
     46 O           2.6410  -19.1345  -43.7160 O.2       5 UNK        -0.5000 
     47 CA          4.8891  -19.0013  -44.6033 C.3       5 UNK         0.1400 
     48 CB          4.3322  -19.5605  -45.9211 C.3       5 UNK        -0.1800 
     49 N           5.4378  -17.6774  -44.8786 N.am      5 UNK        -0.5000 
     50 C           6.3171  -17.0074  -44.1241 C.2       4 UNK         0.5000 
     51 O           6.8563  -17.4815  -43.1228 O.2       4 UNK        -0.5000 
     52 CA          6.6130  -15.5498  -44.5375 C.3       4 UNK         0.1400 
     53 CB          7.9301  -15.4730  -45.3243 C.3       4 UNK        -0.1800 
     54 N           5.5470  -14.9146  -45.3257 N.am      4 UNK        -0.5000 
     55 C           4.2873  -14.7332  -44.9063 C.2       3 UNK         0.5000 
     56 O           3.8712  -15.1331  -43.8179 O.2       3 UNK        -0.5000 
     57 CA          3.3223  -14.0494  -45.8934 C.3       3 UNK         0.1400 
     58 CB          2.7739  -15.0827  -46.8924 C.3       3 UNK        -0.1800 
     59 N           2.1967  -13.4002  -45.2170 N.am      3 UNK        -0.5000 
     60 C           2.2958  -12.3678  -44.3670 C.2       2 UNK         0.5000 
     61 O           3.3597  -11.8086  -44.0934 O.2       2 UNK        -0.5000 
     62 CA          0.9739  -11.8806  -43.7313 C.3       2 UNK         0.1400 
     63 CB          1.1190  -10.5377  -42.9863 C.3       2 UNK        -0.1800 
     64 N          -0.1394  -11.8185  -44.6847 N.am      2 UNK        -0.5000 
     65 C          -0.1939  -11.1202  -45.8289 C.2       1 UNK         0.5000 
     66 O           0.7144  -10.3967  -46.2402 O.2       1 UNK        -0.5000 
     67 C          -2.3744  -21.3252  -47.2910 C.2       11 UNK         0.5000 
     68 O          -2.8923  -22.0163  -48.1685 O.2       11 UNK        -0.5000 
     69 N          -3.0348  -20.8638  -46.2177 N.am      12 UNK        -0.5000 
     70 CA         -4.4327  -21.1568  -45.9037 C.3       12 UNK         0.1400 
     71 CB         -4.8842  -20.2947  -44.7160 C.3       12 UNK        -0.1800 
     72 C          -4.6801  -22.6515  -45.6276 C.2       12 UNK         0.5000 
     73 O          -5.6670  -23.1979  -46.1193 O.2       12 UNK        -0.5000 
     74 N          -3.7619  -23.3032  -44.8978 N.am      13 UNK        -0.5000 
     75 CA         -3.7782  -24.7463  -44.6315 C.3       13 UNK         0.1400 
     76 CB         -2.6931  -25.0948  -43.6025 C.3       13 UNK        -0.1800 
     77 C          -3.6142  -25.6030  -45.9033 C.2       13 UNK         0.5000 
     78 O          -4.1802  -26.6938  -45.9770 O.2       13 UNK        -0.5000 
     79 N          -2.8879  -25.0747  -46.8977 N.am      14 UNK        -0.5000 
     80 CA         -2.7481  -25.6413  -48.2412 C.3       14 UNK         0.1400 
     81 CB         -1.4387  -25.1271  -48.8645 C.3       14 UNK        -0.1800 
     82 C          -3.9563  -25.3483  -49.1604 C.2       14 UNK         0.5000 
     83 O          -3.9192  -25.7341  -50.3279 O.2       14 UNK        -0.5000 
     84 N          -4.9914  -24.6753  -48.6323 N.am      15 UNK        -0.5000 
     85 CA         -6.2427  -24.2688  -49.2826 C.3       15 UNK         0.1400 
     86 CB         -7.0416  -25.4840  -49.7961 C.3       15 UNK        -0.1800 
     87 C          -6.0817  -23.1397  -50.3220 C.2       15 UNK         0.5000 
     88 O          -7.0007  -22.8985  -51.1066 O.2       15 UNK        -0.5000 
     89 N          -4.9490  -22.4258  -50.2558 N.am      16 UNK        -0.5000 
     90 CA         -4.6171  -21.1908  -50.9650 C.3       16 UNK         0.1400 
     91 CB         -5.3064  -20.0011  -50.2617 C.3       16 UNK        -0.1800 
     92 C          -4.8585  -21.2419  -52.4911 C.2       16 UNK         0.5000 
     93 O          -4.5909  -22.2639  -53.1279 O.2       16 UNK        -0.5000 
     94 N          -5.3335  -20.1291  -53.0671 N.am      17 UNK        -0.5000 
     95 CA         -5.5764  -19.9419  -54.4989 C.3       17 UNK         0.1400 
     96 CB         -5.9768  -18.4816  -54.7508 C.3       17 UNK        -0.1800 
     97 C          -6.6187  -20.9041  -55.0983 C.2       17 UNK         0.5000 
     98 O          -6.5198  -21.2261  -56.2820 O.2       17 UNK        -0.5000 
     99 N          -7.5598  -21.3892  -54.2755 N.am      18 UNK        -0.5000 
    100 CA        -8.5717  -22.3771  -54.6626 C.3       18 UNK         0.1400 
    101 CB        -9.6251  -22.4900  -53.5504 C.3       18 UNK        -0.1800 
    102 C         -7.9776  -23.7612  -54.9961 C.2       18 UNK         0.5000 
    103 O         -8.5660  -24.4935  -55.7924 O.2       18 UNK        -0.5000 
    104 N         -6.8152  -24.0770  -54.4108 N.am      19 UNK        -0.5000 
    105 CA        -6.0287  -25.2816  -54.6808 C.3       19 UNK         0.1400 
    106 CB        -5.6594  -25.9244  -53.3373 C.3       19 UNK        -0.1800 
    107 C         -4.7710  -24.9760  -55.5197 C.2       19 UNK         0.5000 
    108 O         -3.9227  -25.8550  -55.6755 O.2       19 UNK        -0.5000 
    109 N         -4.6639  -23.7406  -56.0345 N.am      20 UNK        -0.5000 
    110 CA        -3.5488  -23.1850  -56.8100 C.3       20 UNK         0.1400 
    111 CB        -3.3874  -23.9230  -58.1555 C.3       20 UNK        -0.1800 
    112 C         -2.2232  -23.0790  -56.0218 C.2       20 UNK         0.5000 
    113 O         -1.1563  -22.9928  -56.6318 O.2       20 UNK        -0.5000 
    114 N         -2.3062  -23.0474  -54.6841 N.am      21 UNK        -0.5000 
    115 CA        -1.1700  -22.8478  -53.7806 C.3       21 UNK         0.1400 
    116 CB        -1.4789  -23.5218  -52.4320 C.3       21 UNK        -0.1800 
    117 C         -0.8340  -21.3554  -53.5803 C.2       21 UNK         0.5000 
    118 O          0.2423  -21.0506  -53.0661 O.2       21 UNK        -0.5000 
    119 N         -1.7536  -20.4705  -53.9971 N.am      22 UNK        -0.5000 
    120 CA        -1.7589  -19.0107  -53.8056 C.3       22 UNK         0.1400 
    121 C         -2.1116  -18.6015  -52.3453 C.2       22 UNK         0.5000 
    122 N         -2.8180  -17.4947  -52.1619 N.am      22 UNK        -0.7600 
    123 O         -1.7822  -19.2799  -51.3780 O.2       22 UNK        -0.5000 
    124 C124       -0.4726  -18.3300  -54.3516 C.3       23 UNK        -0.0398 
    125 S125       -0.6379  -16.5281  -54.6145 S.3       23 UNK        -0.2404 
    126 C126        0.7218  -15.8607  -53.5962 C.3       23 UNK        -0.0205 
    127 H127       -4.5905   -9.3985  -44.8711 H         1 UNK         0.0600 
    128 H128       -4.2130  -10.0301  -43.2657 H         1 UNK         0.0600 
    129 H129       -5.3451  -10.8938  -44.3115 H         1 UNK         0.0600 
    130 H130       -2.9461   -9.7515  -46.3012 H         1 UNK         0.3000 
    131 H131       -1.3646  -10.5923  -47.5236 H         1 UNK         0.0600 
    132 H132       -2.7426  -12.6860  -47.6660 H         1 UNK         0.0800 
    133 H133       -1.8266  -13.3874  -46.3620 H         1 UNK         0.0800 
    134 H134       -2.2096  -14.0827  -49.8728 H         1 UNK         0.0800 
    135 H135       -2.0175  -15.1296  -48.4857 H         1 UNK         0.0800 
    136 H136       -0.7989  -14.3913  -51.8692 H         1 UNK         0.1150 
    137 H137        1.7468  -17.8361  -52.0228 H         1 UNK         0.1150 
    138 H138       -0.1301  -16.7021  -48.3372 H         1 UNK         0.1150 
    139 H139        2.6121  -18.5469  -49.5542 H         1 UNK         0.0800 
    140 H140        1.2773  -19.5354  -50.1002 H         1 UNK         0.0800 
    141 H141       -0.9682  -19.4903  -48.9130 H         1 UNK         0.0800 
    142 H142       -1.2405  -18.8397  -47.3250 H         1 UNK         0.0800 
    143 H143       -0.4110  -21.6927  -48.0642 H         1 UNK         0.0600 
    144 H144        0.0450  -20.4182  -45.5374 H         1 UNK         0.3000 
    145 H145        0.0972  -23.3312  -43.5294 H         1 UNK         0.0600 
    146 H146        2.4613  -21.6899  -44.5516 H         1 UNK         0.0600 
    147 H147        2.3427  -23.4433  -44.5837 H         1 UNK         0.0600 
    148 H148        2.4192  -22.5981  -43.0432 H         1 UNK         0.0600 
    149 H149        0.7739  -20.5389  -43.1463 H         1 UNK         0.3000 
    150 H150       -2.5330  -19.4788  -42.3523 H         1 UNK         0.0600 
    151 H151       -0.2329  -20.1035  -40.4340 H         1 UNK         0.0600 
    152 H152       -1.9282  -20.5067  -40.2179 H         1 UNK         0.0600 
    153 H153       -1.4235  -18.8232  -40.1901 H         1 UNK         0.0600 
    154 H154        0.0229  -18.1964  -42.1788 H         1 UNK         0.3000 
    155 H155        0.7316  -17.5288  -45.2404 H         1 UNK         0.0600 
    156 H156       -1.4667  -15.4571  -44.7365 H         1 UNK         0.0600 
    157 H157       -1.2502  -16.4151  -46.1881 H         1 UNK         0.0600 
    158 H158       -0.0514  -15.2130  -45.7588 H         1 UNK         0.0600 
    159 H159        1.8859  -16.7401  -43.5665 H         1 UNK         0.3000 
    160 H160        2.2671  -14.4765  -41.9388 H         1 UNK         0.0600 
    161 H161        0.5855  -15.6192  -39.6556 H         1 UNK         0.0600 
    162 H162        0.6205  -13.9536  -40.2129 H         1 UNK         0.0600 
    163 H163        2.0428  -14.6473  -39.4530 H         1 UNK         0.0600 
    164 H164        3.6128  -16.2277  -41.7635 H         1 UNK         0.3000 
    165 H165        4.3015  -18.3546  -40.2156 H         1 UNK         0.0600 
    166 H166        2.6922  -20.1386  -39.6199 H         1 UNK         0.0600 
    167 H167        2.3922  -20.4879  -41.3161 H         1 UNK         0.0600 
    168 H168        3.9783  -20.8005  -40.6146 H         1 UNK         0.0600 
    169 H169        5.3085  -18.4688  -42.1905 H         1 UNK         0.3000 
    170 H170        5.6972  -19.6588  -44.2763 H         1 UNK         0.0600 
    171 H171        5.1077  -19.6147  -46.6852 H         1 UNK         0.0600 
    172 H172        3.9388  -20.5675  -45.7944 H         1 UNK         0.0600 
    173 H173        3.5307  -18.9324  -46.3059 H         1 UNK         0.0600 
    174 H174        5.0368  -17.1886  -45.6645 H         1 UNK         0.3000 
    175 H175        6.7296  -14.9730  -43.6177 H         1 UNK         0.0600 
    176 H176        8.7517  -15.9116  -44.7562 H         1 UNK         0.0600 
    177 H177        7.8639  -16.0085  -46.2722 H         1 UNK         0.0600 
    178 H178        8.2025  -14.4395  -45.5394 H         1 UNK         0.0600 
    179 H179        5.8113  -14.5754  -46.2395 H         1 UNK         0.3000 
    180 H180        3.8710  -13.2819  -46.4428 H         1 UNK         0.0600 
    181 H181        2.2451  -15.8924  -46.3892 H         1 UNK         0.0600 
    182 H182        3.5787  -15.5344  -47.4734 H         1 UNK         0.0600 
    183 H183        2.0868  -14.6240  -47.6032 H         1 UNK         0.0600 
    184 H184        1.2840  -13.7918  -45.3882 H         1 UNK         0.3000 
    185 H185        0.6972  -12.6319  -42.9915 H         1 UNK         0.0600 
    186 H186        1.8593  -10.6106  -42.1887 H         1 UNK         0.0600 
    187 H187        1.4349   -9.7358  -43.6543 H         1 UNK         0.0600 
    188 H188        0.1770  -10.2391  -42.5263 H         1 UNK         0.0600 
    189 H189       -0.9841  -12.3141  -44.4136 H         1 UNK         0.3000 
    190 H190       -2.5405  -20.2610  -45.5666 H         1 UNK         0.3000 
    191 H191       -5.0320  -20.8775  -46.7726 H         1 UNK         0.0600 
    192 H192       -4.7525  -19.2331  -44.9268 H         1 UNK         0.0600 
    193 H193       -5.9404  -20.4556  -44.4971 H         1 UNK         0.0600 
    194 H194       -4.3229  -20.5271  -43.8112 H         1 UNK         0.0600 
    195 H195       -3.0172  -22.7695  -44.4589 H         1 UNK         0.3000 
    196 H196       -4.7489  -24.9899  -44.1948 H         1 UNK         0.0600 
    197 H197       -2.7230  -26.1551  -43.3486 H         1 UNK         0.0600 
    198 H198       -2.8304  -24.5355  -42.6770 H         1 UNK         0.0600 
    199 H199       -1.6953  -24.8781  -43.9829 H         1 UNK         0.0600 
    200 H200       -2.4150  -24.1942  -46.7336 H         1 UNK         0.3000 
    201 H201       -2.6713  -26.7268  -48.1536 H         1 UNK         0.0600 
    202 H202       -1.2552  -25.5924  -49.8337 H         1 UNK         0.0600 
    203 H203       -0.5830  -25.3562  -48.2292 H         1 UNK         0.0600 
    204 H204       -1.4594  -24.0489  -49.0202 H         1 UNK         0.0600 
    205 H205       -4.9125  -24.3756  -47.6674 H         1 UNK         0.3000 
    206 H206       -6.8436  -23.8212  -48.4903 H         1 UNK         0.0600 
    207 H207       -7.2717  -26.1694  -48.9805 H         1 UNK         0.0600 
    208 H208       -7.9910  -25.1795  -50.2378 H         1 UNK         0.0600 
    209 H209       -6.4940  -26.0440  -50.5505 H         1 UNK         0.0600 
    210 H210       -4.2629  -22.7019  -49.5617 H         1 UNK         0.3000 
    211 H211       -3.5419  -21.0727  -50.8384 H         1 UNK         0.0600 
    212 H212       -5.0913  -20.0068  -49.1929 H         1 UNK         0.0600 
    213 H213       -4.9490  -19.0448  -50.6445 H         1 UNK         0.0600 
    214 H214       -6.3901  -20.0326  -50.3810 H         1 UNK         0.0600 
    215 H215       -5.5332  -19.3363  -52.4743 H         1 UNK         0.3000 
    216 H216       -4.6359  -20.1287  -55.0199 H         1 UNK         0.0600 
    217 H217       -6.8996  -18.2225  -54.2302 H         1 UNK         0.0600 
    218 H218       -6.1368  -18.2973  -55.8141 H         1 UNK         0.0600 
    219 H219       -5.1985  -17.7948  -54.4176 H         1 UNK         0.0600 
    220 H220       -7.5457  -21.1113  -53.3044 H         1 UNK         0.3000 
    221 H221       -9.0691  -22.0104  -55.5630 H         1 UNK         0.0600 
    222 H222       -9.1916  -22.8555  -52.6194 H         1 UNK         0.0600 
    223 H223      -10.0921  -21.5259  -53.3486 H         1 UNK         0.0600 
    224 H224      -10.4189  -23.1819  -53.8346 H         1 UNK         0.0600 
    225 H225       -6.3999  -23.4153  -53.7642 H         1 UNK         0.3000 
    226 H226       -6.6163  -26.0048  -55.2494 H         1 UNK         0.0600 
    227 H227       -6.5581  -26.2291  -52.8033 H         1 UNK         0.0600 
    228 H228       -5.0474  -26.8171  -53.4709 H         1 UNK         0.0600 
    229 H229       -5.1030  -25.2325  -52.7037 H         1 UNK         0.0600 
    230 H230       -5.4313  -23.1013  -55.8709 H         1 UNK         0.3000 
    231 H231       -3.8352  -22.1578  -57.0392 H         1 UNK         0.0600 
    232 H232       -3.0202  -24.9405  -58.0199 H         1 UNK         0.0600 
    233 H233       -2.6789  -23.4057  -58.8035 H         1 UNK         0.0600 
    234 H234       -4.3347  -23.9759  -58.6921 H         1 UNK         0.0600 
    235 H235       -3.2221  -23.0840  -54.2453 H         1 UNK         0.3000 
    236 H236       -0.2867  -23.3312  -54.2030 H         1 UNK         0.0600 
    237 H237       -2.3265  -23.0583  -51.9279 H         1 UNK         0.0600 
    238 H238       -1.7081  -24.5798  -52.5609 H         1 UNK         0.0600 
    239 H239       -0.6248  -23.4542  -51.7572 H         1 UNK         0.0600 
    240 H240       -2.5976  -20.8589  -54.3877 H         1 UNK         0.3000 
    241 H241       -2.5875  -18.6687  -54.4270 H         1 UNK         0.0600 
    242 H242       -3.0283  -17.2110  -51.2197 H         1 UNK         0.3800 
    243 H243       -3.0554  -16.8876  -52.9299 H         1 UNK         0.3800 
    244 H244       -0.2203  -18.7630  -55.3204 H         1 UNK         0.0800 
    245 H245        0.3804  -18.5438  -53.7111 H         1 UNK         0.0800 
    246 H246        0.8117  -14.7907  -53.7887 H         1 UNK         0.0800 
    247 H247        1.6658  -16.3053  -53.9153 H         1 UNK         0.0800 
@<TRIPOS>BOND
     1    1    2 1    
     2    1  127 1    
     3    1  128 1    
     4    1  129 1    
     5    2    3 2    
     6    2    4 am   BACKBONE|DICT|INTERRES
     7    4    5 1    
     8    4  130 1    
     9    5    6 1    
    10    5   65 1    
    11    5  131 1    
    12    6    7 1    
    13    6  132 1    
    14    6  133 1    
    15    7    8 1    
    16    8    9 1    
    17    8  134 1    
    18    8  135 1    
    19    9   10 ar   
    20    9   14 ar   
    21   10   11 ar   
    22   10  136 1    
    23   11   12 ar   
    24   11  126 1    
    25   12   13 ar   
    26   12  137 1    
    27   13   14 ar   
    28   13   15 1    
    29   14  138 1    
    30   15   16 1    
    31   15  139 1    
    32   15  140 1    
    33   16   17 1    
    34   17   18 1    
    35   17  141 1    
    36   17  142 1    
    37   18   19 1    
    38   18   67 1    
    39   18  143 1    
    40   19   20 am   BACKBONE|DICT|INTERRES
    41   19  144 1    
    42   20   21 2    
    43   20   22 1    
    44   22   23 1    
    45   22   24 1    
    46   22  145 1    
    47   23  146 1    
    48   23  147 1    
    49   23  148 1    
    50   24   25 am   BACKBONE|DICT|INTERRES
    51   24  149 1    
    52   25   26 2    
    53   25   27 1    
    54   27   28 1    
    55   27   29 1    
    56   27  150 1    
    57   28  151 1    
    58   28  152 1    
    59   28  153 1    
    60   29   30 am   BACKBONE|DICT|INTERRES
    61   29  154 1    
    62   30   31 2    
    63   30   32 1    
    64   32   33 1    
    65   32   34 1    
    66   32  155 1    
    67   33  156 1    
    68   33  157 1    
    69   33  158 1    
    70   34   35 am   BACKBONE|DICT|INTERRES
    71   34  159 1    
    72   35   36 2    
    73   35   37 1    
    74   37   38 1    
    75   37   39 1    
    76   37  160 1    
    77   38  161 1    
    78   38  162 1    
    79   38  163 1    
    80   39   40 am   BACKBONE|DICT|INTERRES
    81   39  164 1    
    82   40   41 2    
    83   40   42 1    
    84   42   43 1    
    85   42   44 1    
    86   42  165 1    
    87   43  166 1    
    88   43  167 1    
    89   43  168 1    
    90   44   45 am   BACKBONE|DICT|INTERRES
    91   44  169 1    
    92   45   46 2    
    93   45   47 1    
    94   47   48 1    
    95   47   49 1    
    96   47  170 1    
    97   48  171 1    
    98   48  172 1    
    99   48  173 1    
   100   49   50 am   BACKBONE|DICT|INTERRES
   101   49  174 1    
   102   50   51 2    
   103   50   52 1    
   104   52   53 1    
   105   52   54 1    
   106   52  175 1    
   107   53  176 1    
   108   53  177 1    
   109   53  178 1    
   110   54   55 am   BACKBONE|DICT|INTERRES
   111   54  179 1    
   112   55   56 2    
   113   55   57 1    
   114   57   58 1    
   115   57   59 1    
   116   57  180 1    
   117   58  181 1    
   118   58  182 1    
   119   58  183 1    
   120   59   60 am   BACKBONE|DICT|INTERRES
   121   59  184 1    
   122   60   61 2    
   123   60   62 1    
   124   62   63 1    
   125   62   64 1    
   126   62  185 1    
   127   63  186 1    
   128   63  187 1    
   129   63  188 1    
   130   64   65 am   BACKBONE|DICT|INTERRES
   131   64  189 1    
   132   65   66 2    
   133   67   68 2    
   134   67   69 am   BACKBONE|DICT|INTERRES
   135   69   70 1    
   136   69  190 1    
   137   70   71 1    
   138   70   72 1    
   139   70  191 1    
   140   71  192 1    
   141   71  193 1    
   142   71  194 1    
   143   72   73 2    
   144   72   74 am   BACKBONE|DICT|INTERRES
   145   74   75 1    
   146   74  195 1    
   147   75   76 1    
   148   75   77 1    
   149   75  196 1    
   150   76  197 1    
   151   76  198 1    
   152   76  199 1    
   153   77   78 2    
   154   77   79 am   BACKBONE|DICT|INTERRES
   155   79   80 1    
   156   79  200 1    
   157   80   81 1    
   158   80   82 1    
   159   80  201 1    
   160   81  202 1    
   161   81  203 1    
   162   81  204 1    
   163   82   83 2    
   164   82   84 am   BACKBONE|DICT|INTERRES
   165   84   85 1    
   166   84  205 1    
   167   85   86 1    
   168   85   87 1    
   169   85  206 1    
   170   86  207 1    
   171   86  208 1    
   172   86  209 1    
   173   87   88 2    
   174   87   89 am   BACKBONE|DICT|INTERRES
   175   89   90 1    
   176   89  210 1    
   177   90   91 1    
   178   90   92 1    
   179   90  211 1    
   180   91  212 1    
   181   91  213 1    
   182   91  214 1    
   183   92   93 2    
   184   92   94 am   BACKBONE|DICT|INTERRES
   185   94   95 1    
   186   94  215 1    
   187   95   96 1    
   188   95   97 1    
   189   95  216 1    
   190   96  217 1    
   191   96  218 1    
   192   96  219 1    
   193   97   98 2    
   194   97   99 am   BACKBONE|DICT|INTERRES
   195   99  100 1    
   196   99  220 1    
   197  100  101 1    
   198  100  102 1    
   199  100  221 1    
   200  101  222 1    
   201  101  223 1    
   202  101  224 1    
   203  102  103 2    
   204  102  104 am   BACKBONE|DICT|INTERRES
   205  104  105 1    
   206  104  225 1    
   207  105  106 1    
   208  105  107 1    
   209  105  226 1    
   210  106  227 1    
   211  106  228 1    
   212  106  229 1    
   213  107  108 2    
   214  107  109 am   BACKBONE|DICT|INTERRES
   215  109  110 1    
   216  109  230 1    
   217  110  111 1    
   218  110  112 1    
   219  110  231 1    
   220  111  232 1    
   221  111  233 1    
   222  111  234 1    
   223  112  113 2    
   224  112  114 am   BACKBONE|DICT|INTERRES
   225  114  115 1    
   226  114  235 1    
   227  115  116 1    
   228  115  117 1    
   229  115  236 1    
   230  116  237 1    
   231  116  238 1    
   232  116  239 1    
   233  117  118 2    
   234  117  119 am   BACKBONE|DICT|INTERRES
   235  119  120 1    
   236  119  240 1    
   237  120  121 1    
   238  120  124 1    
   239  120  241 1    
   240  121  122 am   BACKBONE|DICT|INTERRES
   241  121  123 2    
   242  122  242 1    
   243  122  243 1    
   244  124  125 1    
   245  124  244 1    
   246  124  245 1    
   247  125  126 1    
   248  126  246 1    
   249  126  247 1    
@<TRIPOS>SUBSTRUCTURE
     1 UNK         1 GROUP             0       ****    0 ROOT    
