@<TRIPOS>MOLECULE
3R540
247   249    1
SMALL
USER_CHARGES


@<TRIPOS>ATOM
      1 CA         -2.9206  -10.0370  -48.7430 C.3       0 UNK        -0.1800 
      2 C          -2.5360  -11.4541  -48.3446 C.2       0 UNK         0.5000 
      3 O          -1.4483  -11.6622  -47.8116 O.2       0 UNK        -0.5000 
      4 N          -3.4306  -12.4217  -48.5842 N.am      1 UNK        -0.5000 
      5 CA         -3.2630  -13.8542  -48.3004 C.3       1 UNK         0.1400 
      6 C6         -4.5060  -14.6372  -48.8037 C.3       23 UNK        -0.0398 
      7 S7         -4.4945  -16.4399  -48.5174 S.3       23 UNK        -0.2404 
      8 C8         -3.8695  -17.0692  -50.1097 C.3       23 UNK        -0.0205 
      9 C9         -2.3951  -16.7638  -50.3590 C.ar      23 UNK        -0.0193 
     10 C10        -1.9694  -16.4040  -51.6402 C.ar      23 UNK        -0.1150 
     11 C11        -0.6166  -16.1688  -51.9022 C.ar      23 UNK        -0.0193 
     12 C12         0.3174  -16.3039  -50.8712 C.ar      23 UNK        -0.1150 
     13 C13        -0.0893  -16.6731  -49.5863 C.ar      23 UNK        -0.0193 
     14 C14        -1.4476  -16.8857  -49.3371 C.ar      23 UNK        -0.1150 
     15 C15         0.9401  -16.8299  -48.4747 C.3       23 UNK        -0.0205 
     16 S16         0.9905  -18.5237  -47.7958 S.3       23 UNK        -0.2404 
     17 C17        -0.1841  -18.3930  -46.4071 C.3       23 UNK        -0.0398 
     18 CA         -1.3602  -19.3866  -46.4934 C.3       11 UNK         0.1400 
     19 N          -0.9007  -20.7674  -46.3362 N.am      11 UNK        -0.5000 
     20 C          -1.6465  -21.8601  -46.5388 C.2       10 UNK         0.5000 
     21 O          -2.8201  -21.8328  -46.9052 O.2       10 UNK        -0.5000 
     22 CA         -0.9745  -23.2038  -46.2042 C.3       10 UNK         0.1400 
     23 CB         -0.0388  -23.6400  -47.3426 C.3       10 UNK        -0.1800 
     24 N          -0.2141  -23.1641  -44.9502 N.am      10 UNK        -0.5000 
     25 C          -0.6962  -22.8224  -43.7485 C.2       9 UNK         0.5000 
     26 O          -1.8693  -22.5004  -43.5613 O.2       9 UNK        -0.5000 
     27 CA          0.2790  -22.7822  -42.5549 C.3       9 UNK         0.1400 
     28 CB          0.1712  -24.0695  -41.7172 C.3       9 UNK        -0.1800 
     29 N           1.6817  -22.4733  -42.8721 N.am      9 UNK        -0.5000 
     30 C           2.5806  -23.2097  -43.5463 C.2       8 UNK         0.5000 
     31 O           2.3016  -24.2447  -44.1515 O.2       8 UNK        -0.5000 
     32 CA          4.0409  -22.7070  -43.5555 C.3       8 UNK         0.1400 
     33 CB          4.3376  -21.9643  -44.8676 C.3       8 UNK        -0.1800 
     34 N           4.3663  -21.8260  -42.4310 N.am      8 UNK        -0.5000 
     35 C           4.3377  -22.1696  -41.1351 C.2       7 UNK         0.5000 
     36 O           4.1723  -23.3262  -40.7455 O.2       7 UNK        -0.5000 
     37 CA          4.4873  -21.0390  -40.0915 C.3       7 UNK         0.1400 
     38 CB          5.8078  -21.1925  -39.3195 C.3       7 UNK        -0.1800 
     39 N           4.4105  -19.6665  -40.6120 N.am      7 UNK        -0.5000 
     40 C           3.3873  -19.1073  -41.2734 C.2       6 UNK         0.5000 
     41 O           2.3659  -19.7216  -41.6008 O.2       6 UNK        -0.5000 
     42 CA          3.5563  -17.6274  -41.6655 C.3       6 UNK         0.1400 
     43 CB          4.9393  -17.3383  -42.2889 C.3       6 UNK        -0.1800 
     44 N           2.5052  -17.2736  -42.6117 N.am      6 UNK        -0.5000 
     45 C           2.0856  -16.0405  -42.9100 C.2       5 UNK         0.5000 
     46 O           2.5056  -15.0152  -42.3680 O.2       5 UNK        -0.5000 
     47 CA          0.9939  -15.9671  -43.9923 C.3       5 UNK         0.1400 
     48 CB         -0.3941  -16.2588  -43.4000 C.3       5 UNK        -0.1800 
     49 N           0.9596  -14.6966  -44.7131 N.am      5 UNK        -0.5000 
     50 C           1.9161  -14.2666  -45.5483 C.2       4 UNK         0.5000 
     51 O           2.9432  -14.9037  -45.7873 O.2       4 UNK        -0.5000 
     52 CA          1.6856  -12.9261  -46.2760 C.3       4 UNK         0.1400 
     53 CB          1.5066  -13.1552  -47.7865 C.3       4 UNK        -0.1800 
     54 N           0.5265  -12.1824  -45.7848 N.am      4 UNK        -0.5000 
     55 C           0.4888  -11.4570  -44.6603 C.2       3 UNK         0.5000 
     56 O           1.4517  -11.3048  -43.9086 O.2       3 UNK        -0.5000 
     57 CA         -0.8651  -10.8145  -44.3089 C.3       3 UNK         0.1400 
     58 CB         -1.0310   -9.4629  -45.0207 C.3       3 UNK        -0.1800 
     59 N          -1.9920  -11.6875  -44.6469 N.am      3 UNK        -0.5000 
     60 C          -2.3420  -12.7726  -43.9421 C.2       2 UNK         0.5000 
     61 O          -1.7651  -13.1277  -42.9152 O.2       2 UNK        -0.5000 
     62 CA         -3.5291  -13.6046  -44.4640 C.3       2 UNK         0.1400 
     63 CB         -4.8302  -13.1806  -43.7667 C.3       2 UNK        -0.1800 
     64 N          -3.7099  -13.5038  -45.9127 N.am      2 UNK        -0.5000 
     65 C          -2.9335  -14.1240  -46.8127 C.2       1 UNK         0.5000 
     66 O          -1.9696  -14.8301  -46.5125 O.2       1 UNK        -0.5000 
     67 C          -2.4305  -19.0013  -45.4523 C.2       11 UNK         0.5000 
     68 O          -3.3780  -18.2989  -45.7959 O.2       11 UNK        -0.5000 
     69 N          -2.2661  -19.4645  -44.2043 N.am      12 UNK        -0.5000 
     70 CA         -3.1975  -19.2006  -43.1043 C.3       12 UNK         0.1400 
     71 CB         -2.5352  -19.5651  -41.7662 C.3       12 UNK        -0.1800 
     72 C          -4.5300  -19.9494  -43.2855 C.2       12 UNK         0.5000 
     73 O          -5.5898  -19.3901  -43.0025 O.2       12 UNK        -0.5000 
     74 N          -4.4486  -21.1880  -43.7887 N.am      13 UNK        -0.5000 
     75 CA         -5.5937  -22.0054  -44.1871 C.3       13 UNK         0.1400 
     76 CB         -5.1239  -23.4602  -44.3454 C.3       13 UNK        -0.1800 
     77 C          -6.2580  -21.5184  -45.4910 C.2       13 UNK         0.5000 
     78 O          -7.4369  -21.8027  -45.7047 O.2       13 UNK        -0.5000 
     79 N          -5.4806  -20.8241  -46.3369 N.am      14 UNK        -0.5000 
     80 CA         -5.7776  -20.4223  -47.7154 C.3       14 UNK         0.1400 
     81 CB         -6.9004  -19.3664  -47.7577 C.3       14 UNK        -0.1800 
     82 C          -6.0519  -21.6565  -48.5994 C.2       14 UNK         0.5000 
     83 O          -7.0661  -21.7173  -49.2970 O.2       14 UNK        -0.5000 
     84 N          -5.1547  -22.6427  -48.4985 N.am      15 UNK        -0.5000 
     85 CA         -5.2775  -23.9720  -49.0853 C.3       15 UNK         0.1400 
     86 CB         -5.8212  -24.9297  -48.0098 C.3       15 UNK        -0.1800 
     87 C          -3.9154  -24.4427  -49.6146 C.2       15 UNK         0.5000 
     88 O          -2.9054  -23.7642  -49.4185 O.2       15 UNK        -0.5000 
     89 N          -3.9109  -25.6038  -50.2842 N.am      16 UNK        -0.5000 
     90 CA         -2.7505  -26.2242  -50.9326 C.3       16 UNK         0.1400 
     91 CB         -1.7367  -26.7237  -49.8775 C.3       16 UNK        -0.1800 
     92 C          -2.1510  -25.2831  -51.9979 C.2       16 UNK         0.5000 
     93 O          -2.9117  -24.7330  -52.7964 O.2       16 UNK        -0.5000 
     94 N          -0.8273  -25.0751  -51.9842 N.am      17 UNK        -0.5000 
     95 CA         -0.1023  -24.1960  -52.9069 C.3       17 UNK         0.1400 
     96 CB          1.4024  -24.2866  -52.6169 C.3       17 UNK        -0.1800 
     97 C          -0.5663  -22.7267  -52.8751 C.2       17 UNK         0.5000 
     98 O          -0.5314  -22.0644  -53.9128 O.2       17 UNK        -0.5000 
     99 N          -1.0465  -22.2565  -51.7144 N.am      18 UNK        -0.5000 
    100 CA        -1.5942  -20.9095  -51.5349 C.3       18 UNK         0.1400 
    101 CB        -1.7853  -20.6317  -50.0388 C.3       18 UNK        -0.1800 
    102 C         -2.9090  -20.6758  -52.3067 C.2       18 UNK         0.5000 
    103 O         -3.2469  -19.5254  -52.5805 O.2       18 UNK        -0.5000 
    104 N         -3.6111  -21.7604  -52.6585 N.am      19 UNK        -0.5000 
    105 CA        -4.7952  -21.7403  -53.5100 C.3       19 UNK         0.1400 
    106 CB        -5.8736  -22.6450  -52.8921 C.3       19 UNK        -0.1800 
    107 C         -4.4466  -22.1991  -54.9355 C.2       19 UNK         0.5000 
    108 O         -4.8107  -21.5233  -55.8978 O.2       19 UNK        -0.5000 
    109 N         -3.7613  -23.3449  -55.0490 N.am      20 UNK        -0.5000 
    110 CA        -3.5156  -24.0477  -56.3075 C.3       20 UNK         0.1400 
    111 CB        -3.0620  -25.4836  -56.0015 C.3       20 UNK        -0.1800 
    112 C         -2.5031  -23.3543  -57.2336 C.2       20 UNK         0.5000 
    113 O         -2.7086  -23.3560  -58.4483 O.2       20 UNK        -0.5000 
    114 N         -1.4301  -22.7963  -56.6587 N.am      21 UNK        -0.5000 
    115 CA        -0.3516  -22.1447  -57.4031 C.3       21 UNK         0.1400 
    116 CB         1.0076  -22.6699  -56.9103 C.3       21 UNK        -0.1800 
    117 C         -0.4355  -20.6190  -57.2647 C.2       21 UNK         0.5000 
    118 O         -0.3278  -19.9128  -58.2681 O.2       21 UNK        -0.5000 
    119 N         -0.6315  -20.1397  -56.0303 N.am      22 UNK        -0.5000 
    120 CA        -0.7160  -18.7090  -55.6961 C.3       22 UNK         0.1400 
    121 C         -2.0949  -18.0496  -56.0009 C.2       22 UNK         0.5000 
    122 N         -3.1381  -18.8002  -56.3332 N.am      22 UNK        -0.7600 
    123 O         -2.2183  -16.8293  -55.9596 O.2       22 UNK        -0.5000 
    124 C124       -0.2492  -18.4484  -54.2376 C.3       23 UNK        -0.0398 
    125 S125        0.8858  -17.0266  -54.0888 S.3       23 UNK        -0.2404 
    126 C126       -0.1652  -15.7650  -53.2987 C.3       23 UNK        -0.0205 
    127 H127       -3.8943  -10.0023  -49.2322 H         1 UNK         0.0600 
    128 H128       -2.1799   -9.6282  -49.4302 H         1 UNK         0.0600 
    129 H129       -2.9588   -9.3970  -47.8616 H         1 UNK         0.0600 
    130 H130       -4.3044  -12.1671  -49.0222 H         1 UNK         0.3000 
    131 H131       -2.3996  -14.1871  -48.8797 H         1 UNK         0.0600 
    132 H132       -4.6420  -14.4580  -49.8711 H         1 UNK         0.0800 
    133 H133       -5.4060  -14.2474  -48.3255 H         1 UNK         0.0800 
    134 H134       -4.0030  -18.1512  -50.1283 H         1 UNK         0.0800 
    135 H135       -4.4890  -16.6740  -50.9160 H         1 UNK         0.0800 
    136 H136       -2.6916  -16.3205  -52.4405 H         1 UNK         0.1150 
    137 H137        1.3640  -16.1284  -51.0772 H         1 UNK         0.1150 
    138 H138       -1.7708  -17.1559  -48.3443 H         1 UNK         0.1150 
    139 H139        1.9368  -16.5890  -48.8473 H         1 UNK         0.0800 
    140 H140        0.7367  -16.1066  -47.6854 H         1 UNK         0.0800 
    141 H141       -0.5510  -17.3668  -46.3418 H         1 UNK         0.0800 
    142 H142        0.3732  -18.5800  -45.4895 H         1 UNK         0.0800 
    143 H143       -1.8256  -19.2996  -47.4760 H         1 UNK         0.0600 
    144 H144        0.0585  -20.8930  -46.0496 H         1 UNK         0.3000 
    145 H145       -1.7638  -23.9505  -46.0972 H         1 UNK         0.0600 
    146 H146        0.3425  -24.6472  -47.1738 H         1 UNK         0.0600 
    147 H147       -0.5579  -23.6465  -48.3007 H         1 UNK         0.0600 
    148 H148        0.8163  -22.9702  -47.4414 H         1 UNK         0.0600 
    149 H149        0.7490  -23.4837  -44.9823 H         1 UNK         0.3000 
    150 H150       -0.0554  -21.9581  -41.9227 H         1 UNK         0.0600 
    151 H151       -0.8539  -24.2301  -41.3807 H         1 UNK         0.0600 
    152 H152        0.8003  -24.0146  -40.8285 H         1 UNK         0.0600 
    153 H153        0.4686  -24.9515  -42.2850 H         1 UNK         0.0600 
    154 H154        2.0191  -21.6103  -42.4576 H         1 UNK         0.3000 
    155 H155        4.6906  -23.5825  -43.4971 H         1 UNK         0.0600 
    156 H156        3.7274  -21.0657  -44.9689 H         1 UNK         0.0600 
    157 H157        4.1335  -22.5986  -45.7313 H         1 UNK         0.0600 
    158 H158        5.3851  -21.6678  -44.9253 H         1 UNK         0.0600 
    159 H159        4.5168  -20.8533  -42.6515 H         1 UNK         0.3000 
    160 H160        3.6647  -21.1602  -39.3839 H         1 UNK         0.0600 
    161 H161        6.6712  -21.0519  -39.9709 H         1 UNK         0.0600 
    162 H162        5.8912  -22.1848  -38.8739 H         1 UNK         0.0600 
    163 H163        5.8775  -20.4693  -38.5068 H         1 UNK         0.0600 
    164 H164        5.2127  -19.0865  -40.4126 H         1 UNK         0.3000 
    165 H165        3.4332  -17.0315  -40.7590 H         1 UNK         0.0600 
    166 H166        5.0235  -16.2986  -42.6055 H         1 UNK         0.0600 
    167 H167        5.7468  -17.5135  -41.5778 H         1 UNK         0.0600 
    168 H168        5.1234  -17.9649  -43.1626 H         1 UNK         0.0600 
    169 H169        2.0472  -18.0776  -43.0210 H         1 UNK         0.3000 
    170 H170        1.2330  -16.7293  -44.7307 H         1 UNK         0.0600 
    171 H171       -0.6510  -15.5465  -42.6157 H         1 UNK         0.0600 
    172 H172       -1.1723  -16.2139  -44.1622 H         1 UNK         0.0600 
    173 H173       -0.4304  -17.2550  -42.9589 H         1 UNK         0.0600 
    174 H174        0.1555  -14.1061  -44.5604 H         1 UNK         0.3000 
    175 H175        2.5807  -12.3190  -46.1271 H         1 UNK         0.0600 
    176 H176        0.5933  -13.7117  -48.0014 H         1 UNK         0.0600 
    177 H177        1.4494  -12.2077  -48.3225 H         1 UNK         0.0600 
    178 H178        2.3427  -13.7156  -48.2066 H         1 UNK         0.0600 
    179 H179       -0.2962  -12.1940  -46.3826 H         1 UNK         0.3000 
    180 H180       -0.8792  -10.6313  -43.2322 H         1 UNK         0.0600 
    181 H181       -1.9741   -8.9873  -44.7511 H         1 UNK         0.0600 
    182 H182       -1.0058   -9.5692  -46.1054 H         1 UNK         0.0600 
    183 H183       -0.2300   -8.7770  -44.7420 H         1 UNK         0.0600 
    184 H184       -2.4859  -11.4851  -45.5031 H         1 UNK         0.3000 
    185 H185       -3.3351  -14.6497  -44.2118 H         1 UNK         0.0600 
    186 H186       -5.6653  -13.8105  -44.0737 H         1 UNK         0.0600 
    187 H187       -4.7392  -13.2695  -42.6832 H         1 UNK         0.0600 
    188 H188       -5.0891  -12.1449  -43.9905 H         1 UNK         0.0600 
    189 H189       -4.4681  -12.9228  -46.2393 H         1 UNK         0.3000 
    190 H190       -1.5017  -20.0931  -44.0095 H         1 UNK         0.3000 
    191 H191       -3.4142  -18.1300  -43.0923 H         1 UNK         0.0600 
    192 H192       -3.1892  -19.3138  -40.9304 H         1 UNK         0.0600 
    193 H193       -1.6022  -19.0203  -41.6226 H         1 UNK         0.0600 
    194 H194       -2.3156  -20.6305  -41.6973 H         1 UNK         0.0600 
    195 H195       -3.5279  -21.5992  -43.9189 H         1 UNK         0.3000 
    196 H196       -6.3429  -21.9676  -43.3936 H         1 UNK         0.0600 
    197 H197       -4.3594  -23.5520  -45.1183 H         1 UNK         0.0600 
    198 H198       -4.7047  -23.8430  -43.4147 H         1 UNK         0.0600 
    199 H199       -5.9528  -24.1125  -44.6234 H         1 UNK         0.0600 
    200 H200       -4.5120  -20.7095  -46.0686 H         1 UNK         0.3000 
    201 H201       -4.8701  -19.9558  -48.1026 H         1 UNK         0.0600 
    202 H202       -7.8567  -19.7721  -47.4270 H         1 UNK         0.0600 
    203 H203       -7.0373  -18.9873  -48.7710 H         1 UNK         0.0600 
    204 H204       -6.6587  -18.5137  -47.1230 H         1 UNK         0.0600 
    205 H205       -4.3001  -22.4806  -47.9686 H         1 UNK         0.3000 
    206 H206       -5.9669  -23.9466  -49.9313 H         1 UNK         0.0600 
    207 H207       -5.9887  -25.9291  -48.4122 H         1 UNK         0.0600 
    208 H208       -5.1292  -25.0230  -47.1718 H         1 UNK         0.0600 
    209 H209       -6.7747  -24.5775  -47.6152 H         1 UNK         0.0600 
    210 H210       -4.7897  -26.0811  -50.4252 H         1 UNK         0.3000 
    211 H211       -3.1244  -27.0946  -51.4733 H         1 UNK         0.0600 
    212 H212       -0.9360  -27.3018  -50.3402 H         1 UNK         0.0600 
    213 H213       -2.2224  -27.3788  -49.1543 H         1 UNK         0.0600 
    214 H214       -1.2801  -25.9047  -49.3210 H         1 UNK         0.0600 
    215 H215       -0.2747  -25.5474  -51.2837 H         1 UNK         0.3000 
    216 H216       -0.2759  -24.5672  -53.9189 H         1 UNK         0.0600 
    217 H217        1.6374  -23.9582  -51.6037 H         1 UNK         0.0600 
    218 H218        1.9713  -23.6605  -53.3059 H         1 UNK         0.0600 
    219 H219        1.7663  -25.3077  -52.7331 H         1 UNK         0.0600 
    220 H220       -1.1081  -22.8791  -50.9198 H         1 UNK         0.3000 
    221 H221       -0.8575  -20.1984  -51.9113 H         1 UNK         0.0600 
    222 H222       -0.8714  -20.8228  -49.4762 H         1 UNK         0.0600 
    223 H223       -2.5827  -21.2375  -49.6111 H         1 UNK         0.0600 
    224 H224       -2.0527  -19.5899  -49.8750 H         1 UNK         0.0600 
    225 H225       -3.2446  -22.6730  -52.4170 H         1 UNK         0.3000 
    226 H226       -5.2055  -20.7304  -53.5756 H         1 UNK         0.0600 
    227 H227       -5.5247  -23.6706  -52.7668 H         1 UNK         0.0600 
    228 H228       -6.1776  -22.2747  -51.9132 H         1 UNK         0.0600 
    229 H229       -6.7656  -22.6742  -53.5191 H         1 UNK         0.0600 
    230 H230       -3.4919  -23.8444  -54.2031 H         1 UNK         0.3000 
    231 H231       -4.4644  -24.1056  -56.8454 H         1 UNK         0.0600 
    232 H232       -2.1231  -25.5000  -55.4472 H         1 UNK         0.0600 
    233 H233       -2.9111  -26.0512  -56.9207 H         1 UNK         0.0600 
    234 H234       -3.8079  -26.0151  -55.4101 H         1 UNK         0.0600 
    235 H235       -1.3520  -22.7897  -55.6489 H         1 UNK         0.3000 
    236 H236       -0.4219  -22.3815  -58.4669 H         1 UNK         0.0600 
    237 H237        1.0782  -23.7507  -57.0334 H         1 UNK         0.0600 
    238 H238        1.8243  -22.2243  -57.4793 H         1 UNK         0.0600 
    239 H239        1.1822  -22.4424  -55.8589 H         1 UNK         0.0600 
    240 H240       -0.6812  -20.7923  -55.2524 H         1 UNK         0.3000 
    241 H241       -0.0128  -18.2034  -56.3610 H         1 UNK         0.0600 
    242 H242       -4.0199  -18.3559  -56.5324 H         1 UNK         0.3800 
    243 H243       -3.0705  -19.8052  -56.3677 H         1 UNK         0.3800 
    244 H244        0.3072  -19.3064  -53.8582 H         1 UNK         0.0800 
    245 H245       -1.0950  -18.3357  -53.5599 H         1 UNK         0.0800 
    246 H246        0.3973  -14.8328  -53.2312 H         1 UNK         0.0800 
    247 H247       -1.0221  -15.5559  -53.9399 H         1 UNK         0.0800 
@<TRIPOS>BOND
     1    1    2 1    
     2    1  127 1    
     3    1  128 1    
     4    1  129 1    
     5    2    3 2    
     6    2    4 am   BACKBONE|DICT|INTERRES
     7    4    5 1    
     8    4  130 1    
     9    5    6 1    
    10    5   65 1    
    11    5  131 1    
    12    6    7 1    
    13    6  132 1    
    14    6  133 1    
    15    7    8 1    
    16    8    9 1    
    17    8  134 1    
    18    8  135 1    
    19    9   10 ar   
    20    9   14 ar   
    21   10   11 ar   
    22   10  136 1    
    23   11   12 ar   
    24   11  126 1    
    25   12   13 ar   
    26   12  137 1    
    27   13   14 ar   
    28   13   15 1    
    29   14  138 1    
    30   15   16 1    
    31   15  139 1    
    32   15  140 1    
    33   16   17 1    
    34   17   18 1    
    35   17  141 1    
    36   17  142 1    
    37   18   19 1    
    38   18   67 1    
    39   18  143 1    
    40   19   20 am   BACKBONE|DICT|INTERRES
    41   19  144 1    
    42   20   21 2    
    43   20   22 1    
    44   22   23 1    
    45   22   24 1    
    46   22  145 1    
    47   23  146 1    
    48   23  147 1    
    49   23  148 1    
    50   24   25 am   BACKBONE|DICT|INTERRES
    51   24  149 1    
    52   25   26 2    
    53   25   27 1    
    54   27   28 1    
    55   27   29 1    
    56   27  150 1    
    57   28  151 1    
    58   28  152 1    
    59   28  153 1    
    60   29   30 am   BACKBONE|DICT|INTERRES
    61   29  154 1    
    62   30   31 2    
    63   30   32 1    
    64   32   33 1    
    65   32   34 1    
    66   32  155 1    
    67   33  156 1    
    68   33  157 1    
    69   33  158 1    
    70   34   35 am   BACKBONE|DICT|INTERRES
    71   34  159 1    
    72   35   36 2    
    73   35   37 1    
    74   37   38 1    
    75   37   39 1    
    76   37  160 1    
    77   38  161 1    
    78   38  162 1    
    79   38  163 1    
    80   39   40 am   BACKBONE|DICT|INTERRES
    81   39  164 1    
    82   40   41 2    
    83   40   42 1    
    84   42   43 1    
    85   42   44 1    
    86   42  165 1    
    87   43  166 1    
    88   43  167 1    
    89   43  168 1    
    90   44   45 am   BACKBONE|DICT|INTERRES
    91   44  169 1    
    92   45   46 2    
    93   45   47 1    
    94   47   48 1    
    95   47   49 1    
    96   47  170 1    
    97   48  171 1    
    98   48  172 1    
    99   48  173 1    
   100   49   50 am   BACKBONE|DICT|INTERRES
   101   49  174 1    
   102   50   51 2    
   103   50   52 1    
   104   52   53 1    
   105   52   54 1    
   106   52  175 1    
   107   53  176 1    
   108   53  177 1    
   109   53  178 1    
   110   54   55 am   BACKBONE|DICT|INTERRES
   111   54  179 1    
   112   55   56 2    
   113   55   57 1    
   114   57   58 1    
   115   57   59 1    
   116   57  180 1    
   117   58  181 1    
   118   58  182 1    
   119   58  183 1    
   120   59   60 am   BACKBONE|DICT|INTERRES
   121   59  184 1    
   122   60   61 2    
   123   60   62 1    
   124   62   63 1    
   125   62   64 1    
   126   62  185 1    
   127   63  186 1    
   128   63  187 1    
   129   63  188 1    
   130   64   65 am   BACKBONE|DICT|INTERRES
   131   64  189 1    
   132   65   66 2    
   133   67   68 2    
   134   67   69 am   BACKBONE|DICT|INTERRES
   135   69   70 1    
   136   69  190 1    
   137   70   71 1    
   138   70   72 1    
   139   70  191 1    
   140   71  192 1    
   141   71  193 1    
   142   71  194 1    
   143   72   73 2    
   144   72   74 am   BACKBONE|DICT|INTERRES
   145   74   75 1    
   146   74  195 1    
   147   75   76 1    
   148   75   77 1    
   149   75  196 1    
   150   76  197 1    
   151   76  198 1    
   152   76  199 1    
   153   77   78 2    
   154   77   79 am   BACKBONE|DICT|INTERRES
   155   79   80 1    
   156   79  200 1    
   157   80   81 1    
   158   80   82 1    
   159   80  201 1    
   160   81  202 1    
   161   81  203 1    
   162   81  204 1    
   163   82   83 2    
   164   82   84 am   BACKBONE|DICT|INTERRES
   165   84   85 1    
   166   84  205 1    
   167   85   86 1    
   168   85   87 1    
   169   85  206 1    
   170   86  207 1    
   171   86  208 1    
   172   86  209 1    
   173   87   88 2    
   174   87   89 am   BACKBONE|DICT|INTERRES
   175   89   90 1    
   176   89  210 1    
   177   90   91 1    
   178   90   92 1    
   179   90  211 1    
   180   91  212 1    
   181   91  213 1    
   182   91  214 1    
   183   92   93 2    
   184   92   94 am   BACKBONE|DICT|INTERRES
   185   94   95 1    
   186   94  215 1    
   187   95   96 1    
   188   95   97 1    
   189   95  216 1    
   190   96  217 1    
   191   96  218 1    
   192   96  219 1    
   193   97   98 2    
   194   97   99 am   BACKBONE|DICT|INTERRES
   195   99  100 1    
   196   99  220 1    
   197  100  101 1    
   198  100  102 1    
   199  100  221 1    
   200  101  222 1    
   201  101  223 1    
   202  101  224 1    
   203  102  103 2    
   204  102  104 am   BACKBONE|DICT|INTERRES
   205  104  105 1    
   206  104  225 1    
   207  105  106 1    
   208  105  107 1    
   209  105  226 1    
   210  106  227 1    
   211  106  228 1    
   212  106  229 1    
   213  107  108 2    
   214  107  109 am   BACKBONE|DICT|INTERRES
   215  109  110 1    
   216  109  230 1    
   217  110  111 1    
   218  110  112 1    
   219  110  231 1    
   220  111  232 1    
   221  111  233 1    
   222  111  234 1    
   223  112  113 2    
   224  112  114 am   BACKBONE|DICT|INTERRES
   225  114  115 1    
   226  114  235 1    
   227  115  116 1    
   228  115  117 1    
   229  115  236 1    
   230  116  237 1    
   231  116  238 1    
   232  116  239 1    
   233  117  118 2    
   234  117  119 am   BACKBONE|DICT|INTERRES
   235  119  120 1    
   236  119  240 1    
   237  120  121 1    
   238  120  124 1    
   239  120  241 1    
   240  121  122 am   BACKBONE|DICT|INTERRES
   241  121  123 2    
   242  122  242 1    
   243  122  243 1    
   244  124  125 1    
   245  124  244 1    
   246  124  245 1    
   247  125  126 1    
   248  126  246 1    
   249  126  247 1    
@<TRIPOS>SUBSTRUCTURE
     1 UNK         1 GROUP             0       ****    0 ROOT    
