@<TRIPOS>MOLECULE
3R540
247   249    1
SMALL
USER_CHARGES


@<TRIPOS>ATOM
      1 CA         -2.8945  -10.1424  -44.8915 C.3       0 UNK        -0.1800 
      2 C          -1.5199  -10.2950  -45.5261 C.2       0 UNK         0.5000 
      3 O          -0.6814   -9.4011  -45.4017 O.2       0 UNK        -0.5000 
      4 N          -1.2807  -11.4259  -46.2006 N.am      1 UNK        -0.5000 
      5 CA         -0.0218  -11.7719  -46.8697 C.3       1 UNK         0.1400 
      6 C6         -0.2336  -12.8086  -48.0001 C.3       23 UNK        -0.0398 
      7 S7         -1.3311  -12.2008  -49.3257 S.3       23 UNK        -0.2404 
      8 C8         -2.8033  -13.2597  -49.1273 C.3       23 UNK        -0.0205 
      9 C9         -2.5035  -14.7384  -49.3423 C.ar      23 UNK        -0.0193 
     10 C10        -1.9666  -15.1836  -50.5543 C.ar      23 UNK        -0.1150 
     11 C11        -1.6794  -16.5373  -50.7516 C.ar      23 UNK        -0.0193 
     12 C12        -1.9494  -17.4527  -49.7316 C.ar      23 UNK        -0.1150 
     13 C13        -2.5038  -17.0231  -48.5224 C.ar      23 UNK        -0.0193 
     14 C14        -2.7744  -15.6655  -48.3314 C.ar      23 UNK        -0.1150 
     15 C15        -2.8085  -18.0270  -47.4253 C.3       23 UNK        -0.0205 
     16 S16        -4.3278  -18.9522  -47.7982 S.3       23 UNK        -0.2404 
     17 C17        -4.5654  -19.9330  -46.2815 C.3       23 UNK        -0.0398 
     18 CA         -3.8685  -21.3086  -46.3826 C.3       11 UNK         0.1400 
     19 N          -2.4123  -21.1730  -46.3141 N.am      11 UNK        -0.5000 
     20 C          -1.5182  -22.0892  -46.7029 C.2       10 UNK         0.5000 
     21 O          -1.8259  -23.1518  -47.2402 O.2       10 UNK        -0.5000 
     22 CA         -0.0436  -21.7836  -46.3766 C.3       10 UNK         0.1400 
     23 CB          0.6578  -21.1287  -47.5745 C.3       10 UNK        -0.1800 
     24 N           0.0879  -20.9054  -45.2119 N.am      10 UNK        -0.5000 
     25 C          -0.2347  -21.2441  -43.9605 C.2       9 UNK         0.5000 
     26 O          -0.6419  -22.3635  -43.6428 O.2       9 UNK        -0.5000 
     27 CA         -0.2006  -20.1182  -42.9198 C.3       9 UNK         0.1400 
     28 CB         -1.6058  -19.5115  -42.7854 C.3       9 UNK        -0.1800 
     29 N           0.1919  -20.6657  -41.6235 N.am      9 UNK        -0.5000 
     30 C           1.4038  -20.6978  -41.0481 C.2       8 UNK         0.5000 
     31 O           1.5918  -21.3658  -40.0323 O.2       8 UNK        -0.5000 
     32 CA          2.5937  -19.8818  -41.6095 C.3       8 UNK         0.1400 
     33 CB          3.1989  -20.5229  -42.8706 C.3       8 UNK        -0.1800 
     34 N           2.3264  -18.4607  -41.8410 N.am      8 UNK        -0.5000 
     35 C           1.9501  -17.5741  -40.9086 C.2       7 UNK         0.5000 
     36 O           1.7754  -17.8556  -39.7227 O.2       7 UNK        -0.5000 
     37 CA          1.7490  -16.1211  -41.3741 C.3       7 UNK         0.1400 
     38 CB          3.0915  -15.3772  -41.4365 C.3       7 UNK        -0.1800 
     39 N           1.0919  -16.0394  -42.6788 N.am      7 UNK        -0.5000 
     40 C          -0.2359  -16.0334  -42.8553 C.2       6 UNK         0.5000 
     41 O          -1.0420  -16.1094  -41.9282 O.2       6 UNK        -0.5000 
     42 CA         -0.7665  -15.8975  -44.2960 C.3       6 UNK         0.1400 
     43 CB         -1.5138  -14.5659  -44.4705 C.3       6 UNK        -0.1800 
     44 N           0.2984  -15.9872  -45.2992 N.am      6 UNK        -0.5000 
     45 C           0.6373  -17.1192  -45.9254 C.2       5 UNK         0.5000 
     46 O           0.0749  -18.1966  -45.7324 O.2       5 UNK        -0.5000 
     47 CA          1.8284  -17.0613  -46.8984 C.3       5 UNK         0.1400 
     48 CB          1.4499  -16.3348  -48.1952 C.3       5 UNK        -0.1800 
     49 N           3.0506  -16.4687  -46.3494 N.am      5 UNK        -0.5000 
     50 C           3.6733  -16.8361  -45.2234 C.2       4 UNK         0.5000 
     51 O           3.1912  -17.6127  -44.3999 O.2       4 UNK        -0.5000 
     52 CA          5.0716  -16.2479  -44.9550 C.3       4 UNK         0.1400 
     53 CB          6.1557  -17.0375  -45.7118 C.3       4 UNK        -0.1800 
     54 N           5.1935  -14.8042  -45.1861 N.am      4 UNK        -0.5000 
     55 C           5.1474  -14.1112  -46.3309 C.2       3 UNK         0.5000 
     56 O           4.9398  -14.6190  -47.4346 O.2       3 UNK        -0.5000 
     57 CA          5.3202  -12.5827  -46.1926 C.3       3 UNK         0.1400 
     58 CB          5.5606  -11.8914  -47.5464 C.3       3 UNK        -0.1800 
     59 N           4.1501  -11.9756  -45.5605 N.am      3 UNK        -0.5000 
     60 C           3.7949  -12.0965  -44.2743 C.2       2 UNK         0.5000 
     61 O           4.5062  -12.6322  -43.4228 O.2       2 UNK        -0.5000 
     62 CA          2.4062  -11.5597  -43.8701 C.3       2 UNK         0.1400 
     63 CB          2.5444  -10.2594  -43.0643 C.3       2 UNK        -0.1800 
     64 N           1.4844  -11.3259  -44.9875 N.am      2 UNK        -0.5000 
     65 C           1.0191  -12.2528  -45.8349 C.2       1 UNK         0.5000 
     66 O           1.3585  -13.4371  -45.7966 O.2       1 UNK        -0.5000 
     67 C          -4.4234  -22.2966  -45.3321 C.2       11 UNK         0.5000 
     68 O          -5.5504  -22.7616  -45.4977 O.2       11 UNK        -0.5000 
     69 N          -3.6367  -22.6225  -44.2971 N.am      12 UNK        -0.5000 
     70 CA         -3.9567  -23.6602  -43.3187 C.3       12 UNK         0.1400 
     71 CB         -3.5630  -23.1803  -41.9119 C.3       12 UNK        -0.1800 
     72 C          -3.2375  -24.9719  -43.6734 C.2       12 UNK         0.5000 
     73 O          -3.8635  -26.0317  -43.6527 O.2       12 UNK        -0.5000 
     74 N          -1.9382  -24.8774  -43.9899 N.am      13 UNK        -0.5000 
     75 CA         -1.0594  -26.0199  -44.2349 C.3       13 UNK         0.1400 
     76 CB          0.4025  -25.5514  -44.1658 C.3       13 UNK        -0.1800 
     77 C          -1.3286  -26.7474  -45.5645 C.2       13 UNK         0.5000 
     78 O          -1.2948  -27.9786  -45.5886 O.2       13 UNK        -0.5000 
     79 N          -1.5638  -25.9858  -46.6410 N.am      14 UNK        -0.5000 
     80 CA         -1.6883  -26.5004  -48.0089 C.3       14 UNK         0.1400 
     81 CB         -0.4917  -25.9849  -48.8283 C.3       14 UNK        -0.1800 
     82 C          -3.0111  -26.1009  -48.6869 C.2       14 UNK         0.5000 
     83 O          -3.2692  -26.5634  -49.7987 O.2       14 UNK        -0.5000 
     84 N          -3.8067  -25.2392  -48.0332 N.am      15 UNK        -0.5000 
     85 CA         -5.0180  -24.5903  -48.5526 C.3       15 UNK         0.1400 
     86 CB         -6.1415  -25.6199  -48.7937 C.3       15 UNK        -0.1800 
     87 C          -4.7257  -23.7121  -49.7886 C.2       15 UNK         0.5000 
     88 O          -5.5255  -23.6833  -50.7230 O.2       15 UNK        -0.5000 
     89 N          -3.5693  -23.0306  -49.7705 N.am      16 UNK        -0.5000 
     90 CA         -2.9299  -22.3456  -50.8988 C.3       16 UNK         0.1400 
     91 CB         -1.7344  -21.5343  -50.3814 C.3       16 UNK        -0.1800 
     92 C          -3.8357  -21.4651  -51.7786 C.2       16 UNK         0.5000 
     93 O          -3.7828  -21.5903  -53.0025 O.2       16 UNK        -0.5000 
     94 N          -4.6598  -20.6134  -51.1551 N.am      17 UNK        -0.5000 
     95 CA         -5.5719  -19.7114  -51.8635 C.3       17 UNK         0.1400 
     96 CB         -6.0750  -18.6264  -50.9013 C.3       17 UNK        -0.1800 
     97 C          -6.7539  -20.4351  -52.5376 C.2       17 UNK         0.5000 
     98 O          -7.2190  -19.9808  -53.5831 O.2       17 UNK        -0.5000 
     99 N          -7.2083  -21.5497  -51.9482 N.am      18 UNK        -0.5000 
    100 CA        -8.2712  -22.3972  -52.4939 C.3       18 UNK         0.1400 
    101 CB        -8.9340  -23.1856  -51.3537 C.3       18 UNK        -0.1800 
    102 C         -7.7326  -23.3492  -53.5762 C.2       18 UNK         0.5000 
    103 O         -8.4115  -23.5886  -54.5751 O.2       18 UNK        -0.5000 
    104 N         -6.5074  -23.8487  -53.3678 N.am      19 UNK        -0.5000 
    105 CA        -5.7597  -24.6988  -54.2949 C.3       19 UNK         0.1400 
    106 CB        -4.5874  -25.3347  -53.5299 C.3       19 UNK        -0.1800 
    107 C         -5.2385  -23.9473  -55.5371 C.2       19 UNK         0.5000 
    108 O         -4.8471  -24.5960  -56.5080 O.2       19 UNK        -0.5000 
    109 N         -5.2244  -22.6071  -55.4725 N.am      20 UNK        -0.5000 
    110 CA        -4.6778  -21.6655  -56.4543 C.3       20 UNK         0.1400 
    111 CB        -5.4323  -21.7484  -57.7975 C.3       20 UNK        -0.1800 
    112 C         -3.1471  -21.7962  -56.6006 C.2       20 UNK         0.5000 
    113 O         -2.6042  -21.6260  -57.6939 O.2       20 UNK        -0.5000 
    114 N         -2.4727  -22.0724  -55.4760 N.am      21 UNK        -0.5000 
    115 CA        -1.0173  -22.1947  -55.3692 C.3       21 UNK         0.1400 
    116 CB        -0.6776  -22.9409  -54.0701 C.3       21 UNK        -0.1800 
    117 C         -0.2966  -20.8323  -55.4157 C.2       21 UNK         0.5000 
    118 O          0.9192  -20.7973  -55.6081 O.2       21 UNK        -0.5000 
    119 N         -1.0554  -19.7423  -55.2426 N.am      22 UNK        -0.5000 
    120 CA        -0.5949  -18.3473  -55.3115 C.3       22 UNK         0.1400 
    121 C         -0.0956  -17.8874  -56.7147 C.2       22 UNK         0.5000 
    122 N         -0.3933  -18.5978  -57.7968 N.am      22 UNK        -0.7600 
    123 O          0.5748  -16.8642  -56.8212 O.2       22 UNK        -0.5000 
    124 C124       -1.6746  -17.3634  -54.7905 C.3       23 UNK        -0.0398 
    125 S125       -2.3237  -17.7725  -53.1336 S.3       23 UNK        -0.2404 
    126 C126       -1.0699  -17.0054  -52.0624 C.3       23 UNK        -0.0205 
    127 H127       -2.7975  -10.0173  -43.8131 H         1 UNK         0.0600 
    128 H128       -3.5259  -11.0116  -45.0776 H         1 UNK         0.0600 
    129 H129       -3.3979   -9.2636  -45.2943 H         1 UNK         0.0600 
    130 H130       -2.0077  -12.1227  -46.2577 H         1 UNK         0.3000 
    131 H131        0.3844  -10.8693  -47.3318 H         1 UNK         0.0600 
    132 H132       -0.6168  -13.7467  -47.5968 H         1 UNK         0.0800 
    133 H133        0.7220  -13.0470  -48.4696 H         1 UNK         0.0800 
    134 H134       -3.2342  -13.0876  -48.1400 H         1 UNK         0.0800 
    135 H135       -3.5592  -12.9479  -49.8492 H         1 UNK         0.0800 
    136 H136       -1.7624  -14.4702  -51.3403 H         1 UNK         0.1150 
    137 H137       -1.7368  -18.5008  -49.8838 H         1 UNK         0.1150 
    138 H138       -3.2025  -15.3331  -47.3964 H         1 UNK         0.1150 
    139 H139       -2.9054  -17.5248  -46.4617 H         1 UNK         0.0800 
    140 H140       -1.9702  -18.7168  -47.3392 H         1 UNK         0.0800 
    141 H141       -5.6435  -20.0532  -46.1577 H         1 UNK         0.0800 
    142 H142       -4.2221  -19.3738  -45.4096 H         1 UNK         0.0800 
    143 H143       -4.1177  -21.7366  -47.3543 H         1 UNK         0.0600 
    144 H144       -2.0608  -20.3268  -45.8927 H         1 UNK         0.3000 
    145 H145        0.4566  -22.7279  -46.1554 H         1 UNK         0.0600 
    146 H146        0.6944  -21.8108  -48.4236 H         1 UNK         0.0600 
    147 H147        1.6876  -20.8657  -47.3318 H         1 UNK         0.0600 
    148 H148        0.1485  -20.2194  -47.8971 H         1 UNK         0.0600 
    149 H149        0.3081  -19.9297  -45.4098 H         1 UNK         0.3000 
    150 H150        0.4747  -19.3381  -43.2621 H         1 UNK         0.0600 
    151 H151       -2.3518  -20.2633  -42.5241 H         1 UNK         0.0600 
    152 H152       -1.9226  -19.0433  -43.7179 H         1 UNK         0.0600 
    153 H153       -1.6291  -18.7446  -42.0119 H         1 UNK         0.0600 
    154 H154       -0.5193  -21.2421  -41.2000 H         1 UNK         0.3000 
    155 H155        3.3705  -19.9199  -40.8429 H         1 UNK         0.0600 
    156 H156        2.5856  -20.3595  -43.7554 H         1 UNK         0.0600 
    157 H157        3.3222  -21.5995  -42.7469 H         1 UNK         0.0600 
    158 H158        4.1845  -20.1067  -43.0803 H         1 UNK         0.0600 
    159 H159        2.5002  -18.1267  -42.7863 H         1 UNK         0.3000 
    160 H160        1.1298  -15.6168  -40.6288 H         1 UNK         0.0600 
    161 H161        3.7716  -15.8292  -42.1568 H         1 UNK         0.0600 
    162 H162        3.5886  -15.3885  -40.4658 H         1 UNK         0.0600 
    163 H163        2.9513  -14.3331  -41.7167 H         1 UNK         0.0600 
    164 H164        1.6851  -16.0265  -43.4959 H         1 UNK         0.3000 
    165 H165       -1.4900  -16.6997  -44.4521 H         1 UNK         0.0600 
    166 H166       -1.8424  -14.4278  -45.4998 H         1 UNK         0.0600 
    167 H167       -2.4028  -14.5343  -43.8395 H         1 UNK         0.0600 
    168 H168       -0.8915  -13.7156  -44.1927 H         1 UNK         0.0600 
    169 H169        0.8058  -15.1277  -45.5071 H         1 UNK         0.3000 
    170 H170        2.0707  -18.0935  -47.1582 H         1 UNK         0.0600 
    171 H171        0.5288  -16.7352  -48.6173 H         1 UNK         0.0600 
    172 H172        2.2279  -16.4453  -48.9506 H         1 UNK         0.0600 
    173 H173        1.3011  -15.2704  -48.0246 H         1 UNK         0.0600 
    174 H174        3.5380  -15.8010  -46.9406 H         1 UNK         0.3000 
    175 H175        5.2664  -16.3869  -43.8910 H         1 UNK         0.0600 
    176 H176        6.1227  -18.0944  -45.4442 H         1 UNK         0.0600 
    177 H177        6.0308  -16.9735  -46.7930 H         1 UNK         0.0600 
    178 H178        7.1529  -16.6718  -45.4668 H         1 UNK         0.0600 
    179 H179        5.2577  -14.2447  -44.3407 H         1 UNK         0.3000 
    180 H180        6.1944  -12.4016  -45.5636 H         1 UNK         0.0600 
    181 H181        5.7446  -10.8248  -47.4168 H         1 UNK         0.0600 
    182 H182        4.7074  -12.0054  -48.2165 H         1 UNK         0.0600 
    183 H183        6.4325  -12.3116  -48.0495 H         1 UNK         0.0600 
    184 H184        3.4890  -11.5355  -46.1822 H         1 UNK         0.3000 
    185 H185        1.9511  -12.3143  -43.2253 H         1 UNK         0.0600 
    186 H186        3.1931  -10.4006  -42.1987 H         1 UNK         0.0600 
    187 H187        2.9707   -9.4573  -43.6679 H         1 UNK         0.0600 
    188 H188        1.5771   -9.9217  -42.6915 H         1 UNK         0.0600 
    189 H189        1.0899  -10.3937  -45.0605 H         1 UNK         0.3000 
    190 H190       -2.7078  -22.2287  -44.2404 H         1 UNK         0.3000 
    191 H191       -5.0306  -23.8587  -43.3091 H         1 UNK         0.0600 
    192 H192       -4.0932  -22.2653  -41.6473 H         1 UNK         0.0600 
    193 H193       -3.8156  -23.9303  -41.1615 H         1 UNK         0.0600 
    194 H194       -2.4944  -22.9826  -41.8283 H         1 UNK         0.0600 
    195 H195       -1.4824  -23.9705  -43.9278 H         1 UNK         0.3000 
    196 H196       -1.2159  -26.7404  -43.4290 H         1 UNK         0.0600 
    197 H197        1.0887  -26.3881  -44.3035 H         1 UNK         0.0600 
    198 H198        0.6273  -25.1022  -43.1981 H         1 UNK         0.0600 
    199 H199        0.6262  -24.8130  -44.9358 H         1 UNK         0.0600 
    200 H200       -1.5669  -24.9754  -46.5496 H         1 UNK         0.3000 
    201 H201       -1.6586  -27.5916  -48.0166 H         1 UNK         0.0600 
    202 H202       -0.5168  -26.3704  -49.8483 H         1 UNK         0.0600 
    203 H203        0.4532  -26.3014  -48.3864 H         1 UNK         0.0600 
    204 H204       -0.4845  -24.8959  -48.8897 H         1 UNK         0.0600 
    205 H205       -3.4866  -24.9143  -47.1328 H         1 UNK         0.3000 
    206 H206       -5.3672  -23.9111  -47.7783 H         1 UNK         0.0600 
    207 H207       -6.3086  -26.2351  -47.9097 H         1 UNK         0.0600 
    208 H208       -7.0835  -25.1209  -49.0227 H         1 UNK         0.0600 
    209 H209       -5.9147  -26.2839  -49.6283 H         1 UNK         0.0600 
    210 H210       -2.9867  -23.1392  -48.9477 H         1 UNK         0.3000 
    211 H211       -2.5415  -23.1332  -51.5465 H         1 UNK         0.0600 
    212 H212       -2.0288  -20.8524  -49.5831 H         1 UNK         0.0600 
    213 H213       -1.2799  -20.9378  -51.1740 H         1 UNK         0.0600 
    214 H214       -0.9627  -22.1973  -49.9928 H         1 UNK         0.0600 
    215 H215       -4.6457  -20.5586  -50.1472 H         1 UNK         0.3000 
    216 H216       -5.0074  -19.2145  -52.6552 H         1 UNK         0.0600 
    217 H217       -6.5932  -19.0561  -50.0434 H         1 UNK         0.0600 
    218 H218       -6.7696  -17.9503  -51.4014 H         1 UNK         0.0600 
    219 H219       -5.2481  -18.0199  -50.5307 H         1 UNK         0.0600 
    220 H220       -6.7161  -21.9083  -51.1400 H         1 UNK         0.3000 
    221 H221       -9.0336  -21.7631  -52.9516 H         1 UNK         0.0600 
    222 H222       -8.2293  -23.8550  -50.8602 H         1 UNK         0.0600 
    223 H223       -9.3454  -22.5157  -50.5986 H         1 UNK         0.0600 
    224 H224       -9.7559  -23.7960  -51.7299 H         1 UNK         0.0600 
    225 H225       -6.0568  -23.6519  -52.4764 H         1 UNK         0.3000 
    226 H226       -6.4211  -25.4952  -54.6417 H         1 UNK         0.0600 
    227 H227       -4.9383  -25.9060  -52.6699 H         1 UNK         0.0600 
    228 H228       -4.0259  -26.0184  -54.1677 H         1 UNK         0.0600 
    229 H229       -3.8908  -24.5790  -53.1650 H         1 UNK         0.0600 
    230 H230       -5.5228  -22.1943  -54.5993 H         1 UNK         0.3000 
    231 H231       -4.8551  -20.6708  -56.0426 H         1 UNK         0.0600 
    232 H232       -5.2399  -22.6875  -58.3166 H         1 UNK         0.0600 
    233 H233       -5.1288  -20.9408  -58.4646 H         1 UNK         0.0600 
    234 H234       -6.5087  -21.6597  -57.6504 H         1 UNK         0.0600 
    235 H235       -2.9955  -22.1183  -54.6041 H         1 UNK         0.3000 
    236 H236       -0.6582  -22.7897  -56.2113 H         1 UNK         0.0600 
    237 H237       -0.9474  -22.3538  -53.1931 H         1 UNK         0.0600 
    238 H238       -1.1988  -23.8967  -54.0116 H         1 UNK         0.0600 
    239 H239        0.3914  -23.1476  -54.0075 H         1 UNK         0.0600 
    240 H240       -2.0372  -19.8748  -55.0525 H         1 UNK         0.3000 
    241 H241        0.2674  -18.2704  -54.6468 H         1 UNK         0.0600 
    242 H242       -0.0621  -18.2907  -58.6980 H         1 UNK         0.3800 
    243 H243       -0.9407  -19.4422  -57.7257 H         1 UNK         0.3800 
    244 H244       -2.5244  -17.3508  -55.4752 H         1 UNK         0.0800 
    245 H245       -1.2930  -16.3410  -54.7776 H         1 UNK         0.0800 
    246 H246       -0.2755  -17.7271  -51.8668 H         1 UNK         0.0800 
    247 H247       -0.5991  -16.1631  -52.5711 H         1 UNK         0.0800 
@<TRIPOS>BOND
     1    1    2 1    
     2    1  127 1    
     3    1  128 1    
     4    1  129 1    
     5    2    3 2    
     6    2    4 am   BACKBONE|DICT|INTERRES
     7    4    5 1    
     8    4  130 1    
     9    5    6 1    
    10    5   65 1    
    11    5  131 1    
    12    6    7 1    
    13    6  132 1    
    14    6  133 1    
    15    7    8 1    
    16    8    9 1    
    17    8  134 1    
    18    8  135 1    
    19    9   10 ar   
    20    9   14 ar   
    21   10   11 ar   
    22   10  136 1    
    23   11   12 ar   
    24   11  126 1    
    25   12   13 ar   
    26   12  137 1    
    27   13   14 ar   
    28   13   15 1    
    29   14  138 1    
    30   15   16 1    
    31   15  139 1    
    32   15  140 1    
    33   16   17 1    
    34   17   18 1    
    35   17  141 1    
    36   17  142 1    
    37   18   19 1    
    38   18   67 1    
    39   18  143 1    
    40   19   20 am   BACKBONE|DICT|INTERRES
    41   19  144 1    
    42   20   21 2    
    43   20   22 1    
    44   22   23 1    
    45   22   24 1    
    46   22  145 1    
    47   23  146 1    
    48   23  147 1    
    49   23  148 1    
    50   24   25 am   BACKBONE|DICT|INTERRES
    51   24  149 1    
    52   25   26 2    
    53   25   27 1    
    54   27   28 1    
    55   27   29 1    
    56   27  150 1    
    57   28  151 1    
    58   28  152 1    
    59   28  153 1    
    60   29   30 am   BACKBONE|DICT|INTERRES
    61   29  154 1    
    62   30   31 2    
    63   30   32 1    
    64   32   33 1    
    65   32   34 1    
    66   32  155 1    
    67   33  156 1    
    68   33  157 1    
    69   33  158 1    
    70   34   35 am   BACKBONE|DICT|INTERRES
    71   34  159 1    
    72   35   36 2    
    73   35   37 1    
    74   37   38 1    
    75   37   39 1    
    76   37  160 1    
    77   38  161 1    
    78   38  162 1    
    79   38  163 1    
    80   39   40 am   BACKBONE|DICT|INTERRES
    81   39  164 1    
    82   40   41 2    
    83   40   42 1    
    84   42   43 1    
    85   42   44 1    
    86   42  165 1    
    87   43  166 1    
    88   43  167 1    
    89   43  168 1    
    90   44   45 am   BACKBONE|DICT|INTERRES
    91   44  169 1    
    92   45   46 2    
    93   45   47 1    
    94   47   48 1    
    95   47   49 1    
    96   47  170 1    
    97   48  171 1    
    98   48  172 1    
    99   48  173 1    
   100   49   50 am   BACKBONE|DICT|INTERRES
   101   49  174 1    
   102   50   51 2    
   103   50   52 1    
   104   52   53 1    
   105   52   54 1    
   106   52  175 1    
   107   53  176 1    
   108   53  177 1    
   109   53  178 1    
   110   54   55 am   BACKBONE|DICT|INTERRES
   111   54  179 1    
   112   55   56 2    
   113   55   57 1    
   114   57   58 1    
   115   57   59 1    
   116   57  180 1    
   117   58  181 1    
   118   58  182 1    
   119   58  183 1    
   120   59   60 am   BACKBONE|DICT|INTERRES
   121   59  184 1    
   122   60   61 2    
   123   60   62 1    
   124   62   63 1    
   125   62   64 1    
   126   62  185 1    
   127   63  186 1    
   128   63  187 1    
   129   63  188 1    
   130   64   65 am   BACKBONE|DICT|INTERRES
   131   64  189 1    
   132   65   66 2    
   133   67   68 2    
   134   67   69 am   BACKBONE|DICT|INTERRES
   135   69   70 1    
   136   69  190 1    
   137   70   71 1    
   138   70   72 1    
   139   70  191 1    
   140   71  192 1    
   141   71  193 1    
   142   71  194 1    
   143   72   73 2    
   144   72   74 am   BACKBONE|DICT|INTERRES
   145   74   75 1    
   146   74  195 1    
   147   75   76 1    
   148   75   77 1    
   149   75  196 1    
   150   76  197 1    
   151   76  198 1    
   152   76  199 1    
   153   77   78 2    
   154   77   79 am   BACKBONE|DICT|INTERRES
   155   79   80 1    
   156   79  200 1    
   157   80   81 1    
   158   80   82 1    
   159   80  201 1    
   160   81  202 1    
   161   81  203 1    
   162   81  204 1    
   163   82   83 2    
   164   82   84 am   BACKBONE|DICT|INTERRES
   165   84   85 1    
   166   84  205 1    
   167   85   86 1    
   168   85   87 1    
   169   85  206 1    
   170   86  207 1    
   171   86  208 1    
   172   86  209 1    
   173   87   88 2    
   174   87   89 am   BACKBONE|DICT|INTERRES
   175   89   90 1    
   176   89  210 1    
   177   90   91 1    
   178   90   92 1    
   179   90  211 1    
   180   91  212 1    
   181   91  213 1    
   182   91  214 1    
   183   92   93 2    
   184   92   94 am   BACKBONE|DICT|INTERRES
   185   94   95 1    
   186   94  215 1    
   187   95   96 1    
   188   95   97 1    
   189   95  216 1    
   190   96  217 1    
   191   96  218 1    
   192   96  219 1    
   193   97   98 2    
   194   97   99 am   BACKBONE|DICT|INTERRES
   195   99  100 1    
   196   99  220 1    
   197  100  101 1    
   198  100  102 1    
   199  100  221 1    
   200  101  222 1    
   201  101  223 1    
   202  101  224 1    
   203  102  103 2    
   204  102  104 am   BACKBONE|DICT|INTERRES
   205  104  105 1    
   206  104  225 1    
   207  105  106 1    
   208  105  107 1    
   209  105  226 1    
   210  106  227 1    
   211  106  228 1    
   212  106  229 1    
   213  107  108 2    
   214  107  109 am   BACKBONE|DICT|INTERRES
   215  109  110 1    
   216  109  230 1    
   217  110  111 1    
   218  110  112 1    
   219  110  231 1    
   220  111  232 1    
   221  111  233 1    
   222  111  234 1    
   223  112  113 2    
   224  112  114 am   BACKBONE|DICT|INTERRES
   225  114  115 1    
   226  114  235 1    
   227  115  116 1    
   228  115  117 1    
   229  115  236 1    
   230  116  237 1    
   231  116  238 1    
   232  116  239 1    
   233  117  118 2    
   234  117  119 am   BACKBONE|DICT|INTERRES
   235  119  120 1    
   236  119  240 1    
   237  120  121 1    
   238  120  124 1    
   239  120  241 1    
   240  121  122 am   BACKBONE|DICT|INTERRES
   241  121  123 2    
   242  122  242 1    
   243  122  243 1    
   244  124  125 1    
   245  124  244 1    
   246  124  245 1    
   247  125  126 1    
   248  126  246 1    
   249  126  247 1    
@<TRIPOS>SUBSTRUCTURE
     1 UNK         1 GROUP             0       ****    0 ROOT    
