@<TRIPOS>MOLECULE
3R540
247   249    1
SMALL
USER_CHARGES


@<TRIPOS>ATOM
      1 CA          1.2902  -11.1120  -51.9832 C.3       0 UNK        -0.1800 
      2 C           1.9555  -10.9447  -50.6241 C.2       0 UNK         0.5000 
      3 O           2.3393   -9.8322  -50.2610 O.2       0 UNK        -0.5000 
      4 N           2.0997  -12.0457  -49.8786 N.am      1 UNK        -0.5000 
      5 CA          2.6311  -12.0749  -48.5134 C.3       1 UNK         0.1400 
      6 C6          3.2011  -13.4719  -48.1499 C.3       23 UNK        -0.0398 
      7 S7          2.0073  -14.8496  -48.2857 S.3       23 UNK        -0.2404 
      8 C8          2.5436  -15.6326  -49.8384 C.3       23 UNK        -0.0205 
      9 C9          1.6602  -16.8222  -50.1737 C.ar      23 UNK        -0.0193 
     10 C10         0.4608  -16.6369  -50.8687 C.ar      23 UNK        -0.1150 
     11 C11        -0.3739  -17.7242  -51.1448 C.ar      23 UNK        -0.0193 
     12 C12         0.0037  -19.0026  -50.7270 C.ar      23 UNK        -0.1150 
     13 C13         1.2033  -19.2011  -50.0376 C.ar      23 UNK        -0.0193 
     14 C14         2.0316  -18.1077  -49.7702 C.ar      23 UNK        -0.1150 
     15 C15         1.5835  -20.5937  -49.5539 C.3       23 UNK        -0.0205 
     16 S16         1.6220  -20.7089  -47.7342 S.3       23 UNK        -0.2404 
     17 C17        -0.0386  -20.1116  -47.2668 C.3       23 UNK        -0.0398 
     18 CA         -0.8494  -21.1516  -46.4658 C.3       11 UNK         0.1400 
     19 N          -0.2040  -21.5023  -45.2008 N.am      11 UNK        -0.5000 
     20 C          -0.4526  -22.5931  -44.4672 C.2       10 UNK         0.5000 
     21 O          -1.2563  -23.4630  -44.8053 O.2       10 UNK        -0.5000 
     22 CA          0.2761  -22.6923  -43.1087 C.3       10 UNK         0.1400 
     23 CB          0.5790  -24.1472  -42.6961 C.3       10 UNK        -0.1800 
     24 N           1.4728  -21.8442  -43.0241 N.am      10 UNK        -0.5000 
     25 C           2.6207  -21.9668  -43.7098 C.2       9 UNK         0.5000 
     26 O           2.8642  -22.8993  -44.4760 O.2       9 UNK        -0.5000 
     27 CA          3.6723  -20.8492  -43.5388 C.3       9 UNK         0.1400 
     28 CB          3.8164  -20.0464  -44.8412 C.3       9 UNK        -0.1800 
     29 N           3.3710  -19.9154  -42.4522 N.am      9 UNK        -0.5000 
     30 C           3.5429  -20.1686  -41.1486 C.2       8 UNK         0.5000 
     31 O           4.0239  -21.2149  -40.7125 O.2       8 UNK        -0.5000 
     32 CA          3.0626  -19.0826  -40.1661 C.3       8 UNK         0.1400 
     33 CB          4.1549  -18.0244  -39.9509 C.3       8 UNK        -0.1800 
     34 N           1.8216  -18.4267  -40.5899 N.am      8 UNK        -0.5000 
     35 C           0.6392  -19.0463  -40.7208 C.2       7 UNK         0.5000 
     36 O           0.4651  -20.2431  -40.4913 O.2       7 UNK        -0.5000 
     37 CA         -0.5376  -18.2047  -41.2441 C.3       7 UNK         0.1400 
     38 CB         -1.1197  -17.3164  -40.1352 C.3       7 UNK        -0.1800 
     39 N          -0.1730  -17.3866  -42.4007 N.am      7 UNK        -0.5000 
     40 C           0.1954  -17.8818  -43.5903 C.2       6 UNK         0.5000 
     41 O           0.1993  -19.0832  -43.8529 O.2       6 UNK        -0.5000 
     42 CA          0.6754  -16.8791  -44.6543 C.3       6 UNK         0.1400 
     43 CB         -0.5187  -16.2450  -45.3818 C.3       6 UNK        -0.1800 
     44 N           1.5303  -15.8335  -44.0943 N.am      6 UNK        -0.5000 
     45 C           2.7121  -16.0545  -43.5011 C.2       5 UNK         0.5000 
     46 O           3.2333  -17.1644  -43.4021 O.2       5 UNK        -0.5000 
     47 CA          3.3957  -14.8401  -42.8527 C.3       5 UNK         0.1400 
     48 CB          4.1246  -13.9847  -43.9007 C.3       5 UNK        -0.1800 
     49 N           2.4409  -14.0165  -42.1114 N.am      5 UNK        -0.5000 
     50 C           1.8368  -14.3978  -40.9767 C.2       4 UNK         0.5000 
     51 O           2.0521  -15.4715  -40.4145 O.2       4 UNK        -0.5000 
     52 CA          0.7873  -13.4331  -40.3950 C.3       4 UNK         0.1400 
     53 CB          1.4627  -12.3444  -39.5480 C.3       4 UNK        -0.1800 
     54 N          -0.0320  -12.8032  -41.4315 N.am      4 UNK        -0.5000 
     55 C          -0.9077  -13.4598  -42.2057 C.2       3 UNK         0.5000 
     56 O          -1.1457  -14.6619  -42.1001 O.2       3 UNK        -0.5000 
     57 CA         -1.5927  -12.6457  -43.3196 C.3       3 UNK         0.1400 
     58 CB         -2.8463  -11.9406  -42.7811 C.3       3 UNK        -0.1800 
     59 N          -0.7087  -11.6583  -43.9482 N.am      3 UNK        -0.5000 
     60 C           0.4249  -11.9601  -44.5944 C.2       2 UNK         0.5000 
     61 O           0.8683  -13.1062  -44.6924 O.2       2 UNK        -0.5000 
     62 CA          1.2263  -10.7774  -45.1692 C.3       2 UNK         0.1400 
     63 CB          2.1360  -10.1816  -44.0830 C.3       2 UNK        -0.1800 
     64 N           2.0565  -11.1772  -46.3065 N.am      2 UNK        -0.5000 
     65 C           1.5808  -11.5815  -47.4918 C.2       1 UNK         0.5000 
     66 O           0.3804  -11.5759  -47.7823 O.2       1 UNK        -0.5000 
     67 C          -2.2847  -20.6380  -46.2485 C.2       11 UNK         0.5000 
     68 O          -3.0966  -20.7194  -47.1695 O.2       11 UNK        -0.5000 
     69 N          -2.5909  -20.1591  -45.0328 N.am      12 UNK        -0.5000 
     70 CA         -3.9184  -19.7088  -44.6001 C.3       12 UNK         0.1400 
     71 CB         -3.8062  -19.1297  -43.1820 C.3       12 UNK        -0.1800 
     72 C          -5.0096  -20.8016  -44.6624 C.2       12 UNK         0.5000 
     73 O          -6.1945  -20.4712  -44.7078 O.2       12 UNK        -0.5000 
     74 N          -4.5945  -22.0763  -44.7023 N.am      13 UNK        -0.5000 
     75 CA         -5.4491  -23.2397  -44.9443 C.3       13 UNK         0.1400 
     76 CB         -4.7037  -24.4964  -44.4664 C.3       13 UNK        -0.1800 
     77 C          -5.8754  -23.3981  -46.4215 C.2       13 UNK         0.5000 
     78 O          -6.6917  -24.2720  -46.7126 O.2       13 UNK        -0.5000 
     79 N          -5.2958  -22.5990  -47.3328 N.am      14 UNK        -0.5000 
     80 CA         -5.5106  -22.5233  -48.7865 C.3       14 UNK         0.1400 
     81 CB         -6.9849  -22.2363  -49.1258 C.3       14 UNK        -0.1800 
     82 C          -4.9803  -23.7279  -49.5882 C.2       14 UNK         0.5000 
     83 O          -4.6103  -23.5578  -50.7515 O.2       14 UNK        -0.5000 
     84 N          -4.9125  -24.9085  -48.9597 N.am      15 UNK        -0.5000 
     85 CA         -4.4585  -26.1805  -49.5282 C.3       15 UNK         0.1400 
     86 CB         -4.5817  -27.2741  -48.4573 C.3       15 UNK        -0.1800 
     87 C          -3.0295  -26.1506  -50.1043 C.2       15 UNK         0.5000 
     88 O          -2.7540  -26.8693  -51.0646 O.2       15 UNK        -0.5000 
     89 N          -2.1665  -25.2816  -49.5585 N.am      16 UNK        -0.5000 
     90 CA         -0.8084  -25.0192  -50.0481 C.3       16 UNK         0.1400 
     91 CB         -0.1003  -24.0789  -49.0628 C.3       16 UNK        -0.1800 
     92 C          -0.7693  -24.4197  -51.4705 C.2       16 UNK         0.5000 
     93 O           0.2128  -24.6195  -52.1852 O.2       16 UNK        -0.5000 
     94 N          -1.8433  -23.7185  -51.8555 N.am      17 UNK        -0.5000 
     95 CA         -2.0720  -23.1622  -53.1886 C.3       17 UNK         0.1400 
     96 CB         -2.4897  -21.6892  -53.0255 C.3       17 UNK        -0.1800 
     97 C          -3.1542  -23.9567  -53.9474 C.2       17 UNK         0.5000 
     98 O          -3.6670  -23.4661  -54.9548 O.2       17 UNK        -0.5000 
     99 N          -3.5510  -25.1280  -53.4210 N.am      18 UNK        -0.5000 
    100 CA        -4.6583  -25.9828  -53.8753 C.3       18 UNK         0.1400 
    101 CB        -4.3110  -26.6233  -55.2349 C.3       18 UNK        -0.1800 
    102 C         -6.0291  -25.2654  -53.9022 C.2       18 UNK         0.5000 
    103 O         -6.9354  -25.7053  -54.6111 O.2       18 UNK        -0.5000 
    104 N         -6.1361  -24.1525  -53.1581 N.am      19 UNK        -0.5000 
    105 CA        -7.2116  -23.1589  -53.1691 C.3       19 UNK         0.1400 
    106 CB        -8.4753  -23.7328  -52.4968 C.3       19 UNK        -0.1800 
    107 C         -7.4860  -22.5547  -54.5675 C.2       19 UNK         0.5000 
    108 O         -8.6265  -22.1806  -54.8491 O.2       19 UNK        -0.5000 
    109 N         -6.4540  -22.4784  -55.4240 N.am      20 UNK        -0.5000 
    110 CA        -6.5927  -22.0891  -56.8288 C.3       20 UNK         0.1400 
    111 CB        -6.8042  -23.3476  -57.6874 C.3       20 UNK        -0.1800 
    112 C         -5.4093  -21.2667  -57.3610 C.2       20 UNK         0.5000 
    113 O         -5.6375  -20.3227  -58.1190 O.2       20 UNK        -0.5000 
    114 N         -4.1715  -21.6161  -56.9790 N.am      21 UNK        -0.5000 
    115 CA        -2.9409  -21.0413  -57.5404 C.3       21 UNK         0.1400 
    116 CB        -1.7279  -21.8539  -57.0616 C.3       21 UNK        -0.1800 
    117 C         -2.7443  -19.5425  -57.2403 C.2       21 UNK         0.5000 
    118 O         -2.1048  -18.8468  -58.0306 O.2       21 UNK        -0.5000 
    119 N         -3.3186  -19.0747  -56.1269 N.am      22 UNK        -0.5000 
    120 CA        -3.3755  -17.6563  -55.7387 C.3       22 UNK         0.1400 
    121 C         -4.6321  -16.9118  -56.2844 C.2       22 UNK         0.5000 
    122 N         -5.5016  -17.5344  -57.0728 N.am      22 UNK        -0.7600 
    123 O         -4.8186  -15.7317  -56.0006 O.2       22 UNK        -0.5000 
    124 C124       -3.2241  -17.4818  -54.2054 C.3       23 UNK        -0.0398 
    125 S125       -1.5849  -18.0180  -53.6119 S.3       23 UNK        -0.2404 
    126 C126       -1.6959  -17.5190  -51.8678 C.3       23 UNK        -0.0205 
    127 H127        1.0166  -12.1497  -52.1760 H         1 UNK         0.0600 
    128 H128        0.3851  -10.5068  -52.0345 H         1 UNK         0.0600 
    129 H129        1.9652  -10.7860  -52.7746 H         1 UNK         0.0600 
    130 H130        1.7109  -12.9186  -50.2029 H         1 UNK         0.3000 
    131 H131        3.4654  -11.3710  -48.4699 H         1 UNK         0.0600 
    132 H132        3.5944  -13.4694  -47.1324 H         1 UNK         0.0800 
    133 H133        4.0622  -13.6839  -48.7848 H         1 UNK         0.0800 
    134 H134        3.5830  -15.9512  -49.7450 H         1 UNK         0.0800 
    135 H135        2.5139  -14.9071  -50.6522 H         1 UNK         0.0800 
    136 H136        0.1698  -15.6430  -51.1784 H         1 UNK         0.1150 
    137 H137       -0.6469  -19.8413  -50.9269 H         1 UNK         0.1150 
    138 H138        2.9520  -18.2561  -49.2230 H         1 UNK         0.1150 
    139 H139        0.8922  -21.3408  -49.9453 H         1 UNK         0.0800 
    140 H140        2.5679  -20.8525  -49.9458 H         1 UNK         0.0800 
    141 H141       -0.5906  -19.8335  -48.1644 H         1 UNK         0.0800 
    142 H142        0.0838  -19.1917  -46.6942 H         1 UNK         0.0800 
    143 H143       -0.9288  -22.0601  -47.0624 H         1 UNK         0.0600 
    144 H144        0.3961  -20.7891  -44.7996 H         1 UNK         0.3000 
    145 H145       -0.4198  -22.2866  -42.3732 H         1 UNK         0.0600 
    146 H146        1.0979  -24.1854  -41.7382 H         1 UNK         0.0600 
    147 H147       -0.3420  -24.7212  -42.5883 H         1 UNK         0.0600 
    148 H148        1.1952  -24.6607  -43.4343 H         1 UNK         0.0600 
    149 H149        1.3788  -21.0374  -42.4197 H         1 UNK         0.3000 
    150 H150        4.6289  -21.3315  -43.3285 H         1 UNK         0.0600 
    151 H151        4.0724  -20.6958  -45.6792 H         1 UNK         0.0600 
    152 H152        4.6048  -19.2981  -44.7588 H         1 UNK         0.0600 
    153 H153        2.8906  -19.5292  -45.0962 H         1 UNK         0.0600 
    154 H154        3.0381  -18.9957  -42.7285 H         1 UNK         0.3000 
    155 H155        2.8690  -19.5688  -39.2078 H         1 UNK         0.0600 
    156 H156        4.3694  -17.4753  -40.8681 H         1 UNK         0.0600 
    157 H157        5.0857  -18.4846  -39.6172 H         1 UNK         0.0600 
    158 H158        3.8587  -17.3017  -39.1904 H         1 UNK         0.0600 
    159 H159        1.8754  -17.4281  -40.7671 H         1 UNK         0.3000 
    160 H160       -1.3176  -18.8995  -41.5594 H         1 UNK         0.0600 
    161 H161       -2.0137  -16.7957  -40.4787 H         1 UNK         0.0600 
    162 H162       -0.4037  -16.5658  -39.8006 H         1 UNK         0.0600 
    163 H163       -1.4038  -17.9112  -39.2663 H         1 UNK         0.0600 
    164 H164       -0.2231  -16.3794  -42.2805 H         1 UNK         0.3000 
    165 H165        1.2680  -17.4294  -45.3878 H         1 UNK         0.0600 
    166 H166       -0.1862  -15.5729  -46.1731 H         1 UNK         0.0600 
    167 H167       -1.1459  -17.0086  -45.8437 H         1 UNK         0.0600 
    168 H168       -1.1471  -15.6718  -44.7002 H         1 UNK         0.0600 
    169 H169        1.1989  -14.8752  -44.1781 H         1 UNK         0.3000 
    170 H170        4.1407  -15.2142  -42.1472 H         1 UNK         0.0600 
    171 H171        4.8658  -14.5781  -44.4376 H         1 UNK         0.0600 
    172 H172        3.4387  -13.5743  -44.6408 H         1 UNK         0.0600 
    173 H173        4.6509  -13.1524  -43.4334 H         1 UNK         0.0600 
    174 H174        2.1581  -13.1501  -42.5434 H         1 UNK         0.3000 
    175 H175        0.1277  -14.0115  -39.7445 H         1 UNK         0.0600 
    176 H176        0.7233  -11.7023  -39.0691 H         1 UNK         0.0600 
    177 H177        2.0688  -12.7869  -38.7561 H         1 UNK         0.0600 
    178 H178        2.1179  -11.7125  -40.1489 H         1 UNK         0.0600 
    179 H179        0.1015  -11.8149  -41.5853 H         1 UNK         0.3000 
    180 H180       -1.9049  -13.3490  -44.0942 H         1 UNK         0.0600 
    181 H181       -2.5971  -11.1956  -42.0244 H         1 UNK         0.0600 
    182 H182       -3.5305  -12.6568  -42.3239 H         1 UNK         0.0600 
    183 H183       -3.3911  -11.4386  -43.5809 H         1 UNK         0.0600 
    184 H184       -1.0026  -10.6935  -43.8953 H         1 UNK         0.3000 
    185 H185        0.5264  -10.0102  -45.5068 H         1 UNK         0.0600 
    186 H186        2.8619  -10.9104  -43.7197 H         1 UNK         0.0600 
    187 H187        2.6871   -9.3196  -44.4598 H         1 UNK         0.0600 
    188 H188        1.5549   -9.8414  -43.2249 H         1 UNK         0.0600 
    189 H189        3.0500  -11.2195  -46.1357 H         1 UNK         0.3000 
    190 H190       -1.8460  -20.0993  -44.3511 H         1 UNK         0.3000 
    191 H191       -4.2291  -18.9071  -45.2730 H         1 UNK         0.0600 
    192 H192       -3.1183  -18.2842  -43.1559 H         1 UNK         0.0600 
    193 H193       -3.4543  -19.8769  -42.4698 H         1 UNK         0.0600 
    194 H194       -4.7728  -18.7686  -42.8283 H         1 UNK         0.0600 
    195 H195       -3.6016  -22.2573  -44.6534 H         1 UNK         0.3000 
    196 H196       -6.3595  -23.1337  -44.3510 H         1 UNK         0.0600 
    197 H197       -5.3259  -25.3863  -44.5701 H         1 UNK         0.0600 
    198 H198       -4.4276  -24.4165  -43.4148 H         1 UNK         0.0600 
    199 H199       -3.7916  -24.6657  -45.0403 H         1 UNK         0.0600 
    200 H200       -4.5956  -21.9433  -46.9992 H         1 UNK         0.3000 
    201 H201       -4.9286  -21.6621  -49.1182 H         1 UNK         0.0600 
    202 H202       -7.3558  -21.3731  -48.5733 H         1 UNK         0.0600 
    203 H203       -7.6305  -23.0849  -48.8980 H         1 UNK         0.0600 
    204 H204       -7.1027  -22.0156  -50.1864 H         1 UNK         0.0600 
    205 H205       -5.3080  -24.9463  -48.0274 H         1 UNK         0.3000 
    206 H206       -5.1337  -26.4267  -50.3502 H         1 UNK         0.0600 
    207 H207       -5.6109  -27.3733  -48.1115 H         1 UNK         0.0600 
    208 H208       -4.2773  -28.2449  -48.8510 H         1 UNK         0.0600 
    209 H209       -3.9560  -27.0592  -47.5901 H         1 UNK         0.0600 
    210 H210       -2.4806  -24.7314  -48.7730 H         1 UNK         0.3000 
    211 H211       -0.2701  -25.9689  -50.0704 H         1 UNK         0.0600 
    212 H212       -0.5766  -23.0990  -49.0466 H         1 UNK         0.0600 
    213 H213        0.9430  -23.9304  -49.3444 H         1 UNK         0.0600 
    214 H214       -0.1088  -24.4785  -48.0483 H         1 UNK         0.0600 
    215 H215       -2.6247  -23.6322  -51.2141 H         1 UNK         0.3000 
    216 H216       -1.1610  -23.2009  -53.7886 H         1 UNK         0.0600 
    217 H217       -2.6742  -21.2115  -53.9874 H         1 UNK         0.0600 
    218 H218       -1.7062  -21.1157  -52.5328 H         1 UNK         0.0600 
    219 H219       -3.4000  -21.5911  -52.4327 H         1 UNK         0.0600 
    220 H220       -3.0696  -25.4626  -52.5948 H         1 UNK         0.3000 
    221 H221       -4.7489  -26.7844  -53.1413 H         1 UNK         0.0600 
    222 H222       -4.2767  -25.8823  -56.0342 H         1 UNK         0.0600 
    223 H223       -3.3431  -27.1232  -55.1989 H         1 UNK         0.0600 
    224 H224       -5.0508  -27.3734  -55.5166 H         1 UNK         0.0600 
    225 H225       -5.3542  -23.9208  -52.5534 H         1 UNK         0.3000 
    226 H226       -6.8577  -22.3299  -52.5557 H         1 UNK         0.0600 
    227 H227       -8.2472  -24.1346  -51.5094 H         1 UNK         0.0600 
    228 H228       -8.9195  -24.5325  -53.0900 H         1 UNK         0.0600 
    229 H229       -9.2347  -22.9616  -52.3634 H         1 UNK         0.0600 
    230 H230       -5.5409  -22.8072  -55.1273 H         1 UNK         0.3000 
    231 H231       -7.4721  -21.4520  -56.9453 H         1 UNK         0.0600 
    232 H232       -7.7144  -23.8732  -57.3981 H         1 UNK         0.0600 
    233 H233       -5.9713  -24.0449  -57.5865 H         1 UNK         0.0600 
    234 H234       -6.8974  -23.0930  -58.7440 H         1 UNK         0.0600 
    235 H235       -4.0414  -22.3860  -56.3258 H         1 UNK         0.3000 
    236 H236       -3.0019  -21.1447  -58.6258 H         1 UNK         0.0600 
    237 H237       -0.8124  -21.5056  -57.5413 H         1 UNK         0.0600 
    238 H238       -1.5832  -21.7685  -55.9855 H         1 UNK         0.0600 
    239 H239       -1.8392  -22.9112  -57.3028 H         1 UNK         0.0600 
    240 H240       -3.8358  -19.7198  -55.5493 H         1 UNK         0.3000 
    241 H241       -2.5311  -17.1386  -56.1975 H         1 UNK         0.0600 
    242 H242       -6.3002  -17.0250  -57.4166 H         1 UNK         0.3800 
    243 H243       -5.3676  -18.4973  -57.3617 H         1 UNK         0.3800 
    244 H244       -3.3478  -16.4348  -53.9229 H         1 UNK         0.0800 
    245 H245       -3.9982  -18.0392  -53.6756 H         1 UNK         0.0800 
    246 H246       -2.4781  -18.0984  -51.3749 H         1 UNK         0.0800 
    247 H247       -2.0001  -16.4729  -51.8069 H         1 UNK         0.0800 
@<TRIPOS>BOND
     1    1    2 1    
     2    1  127 1    
     3    1  128 1    
     4    1  129 1    
     5    2    3 2    
     6    2    4 am   BACKBONE|DICT|INTERRES
     7    4    5 1    
     8    4  130 1    
     9    5    6 1    
    10    5   65 1    
    11    5  131 1    
    12    6    7 1    
    13    6  132 1    
    14    6  133 1    
    15    7    8 1    
    16    8    9 1    
    17    8  134 1    
    18    8  135 1    
    19    9   10 ar   
    20    9   14 ar   
    21   10   11 ar   
    22   10  136 1    
    23   11   12 ar   
    24   11  126 1    
    25   12   13 ar   
    26   12  137 1    
    27   13   14 ar   
    28   13   15 1    
    29   14  138 1    
    30   15   16 1    
    31   15  139 1    
    32   15  140 1    
    33   16   17 1    
    34   17   18 1    
    35   17  141 1    
    36   17  142 1    
    37   18   19 1    
    38   18   67 1    
    39   18  143 1    
    40   19   20 am   BACKBONE|DICT|INTERRES
    41   19  144 1    
    42   20   21 2    
    43   20   22 1    
    44   22   23 1    
    45   22   24 1    
    46   22  145 1    
    47   23  146 1    
    48   23  147 1    
    49   23  148 1    
    50   24   25 am   BACKBONE|DICT|INTERRES
    51   24  149 1    
    52   25   26 2    
    53   25   27 1    
    54   27   28 1    
    55   27   29 1    
    56   27  150 1    
    57   28  151 1    
    58   28  152 1    
    59   28  153 1    
    60   29   30 am   BACKBONE|DICT|INTERRES
    61   29  154 1    
    62   30   31 2    
    63   30   32 1    
    64   32   33 1    
    65   32   34 1    
    66   32  155 1    
    67   33  156 1    
    68   33  157 1    
    69   33  158 1    
    70   34   35 am   BACKBONE|DICT|INTERRES
    71   34  159 1    
    72   35   36 2    
    73   35   37 1    
    74   37   38 1    
    75   37   39 1    
    76   37  160 1    
    77   38  161 1    
    78   38  162 1    
    79   38  163 1    
    80   39   40 am   BACKBONE|DICT|INTERRES
    81   39  164 1    
    82   40   41 2    
    83   40   42 1    
    84   42   43 1    
    85   42   44 1    
    86   42  165 1    
    87   43  166 1    
    88   43  167 1    
    89   43  168 1    
    90   44   45 am   BACKBONE|DICT|INTERRES
    91   44  169 1    
    92   45   46 2    
    93   45   47 1    
    94   47   48 1    
    95   47   49 1    
    96   47  170 1    
    97   48  171 1    
    98   48  172 1    
    99   48  173 1    
   100   49   50 am   BACKBONE|DICT|INTERRES
   101   49  174 1    
   102   50   51 2    
   103   50   52 1    
   104   52   53 1    
   105   52   54 1    
   106   52  175 1    
   107   53  176 1    
   108   53  177 1    
   109   53  178 1    
   110   54   55 am   BACKBONE|DICT|INTERRES
   111   54  179 1    
   112   55   56 2    
   113   55   57 1    
   114   57   58 1    
   115   57   59 1    
   116   57  180 1    
   117   58  181 1    
   118   58  182 1    
   119   58  183 1    
   120   59   60 am   BACKBONE|DICT|INTERRES
   121   59  184 1    
   122   60   61 2    
   123   60   62 1    
   124   62   63 1    
   125   62   64 1    
   126   62  185 1    
   127   63  186 1    
   128   63  187 1    
   129   63  188 1    
   130   64   65 am   BACKBONE|DICT|INTERRES
   131   64  189 1    
   132   65   66 2    
   133   67   68 2    
   134   67   69 am   BACKBONE|DICT|INTERRES
   135   69   70 1    
   136   69  190 1    
   137   70   71 1    
   138   70   72 1    
   139   70  191 1    
   140   71  192 1    
   141   71  193 1    
   142   71  194 1    
   143   72   73 2    
   144   72   74 am   BACKBONE|DICT|INTERRES
   145   74   75 1    
   146   74  195 1    
   147   75   76 1    
   148   75   77 1    
   149   75  196 1    
   150   76  197 1    
   151   76  198 1    
   152   76  199 1    
   153   77   78 2    
   154   77   79 am   BACKBONE|DICT|INTERRES
   155   79   80 1    
   156   79  200 1    
   157   80   81 1    
   158   80   82 1    
   159   80  201 1    
   160   81  202 1    
   161   81  203 1    
   162   81  204 1    
   163   82   83 2    
   164   82   84 am   BACKBONE|DICT|INTERRES
   165   84   85 1    
   166   84  205 1    
   167   85   86 1    
   168   85   87 1    
   169   85  206 1    
   170   86  207 1    
   171   86  208 1    
   172   86  209 1    
   173   87   88 2    
   174   87   89 am   BACKBONE|DICT|INTERRES
   175   89   90 1    
   176   89  210 1    
   177   90   91 1    
   178   90   92 1    
   179   90  211 1    
   180   91  212 1    
   181   91  213 1    
   182   91  214 1    
   183   92   93 2    
   184   92   94 am   BACKBONE|DICT|INTERRES
   185   94   95 1    
   186   94  215 1    
   187   95   96 1    
   188   95   97 1    
   189   95  216 1    
   190   96  217 1    
   191   96  218 1    
   192   96  219 1    
   193   97   98 2    
   194   97   99 am   BACKBONE|DICT|INTERRES
   195   99  100 1    
   196   99  220 1    
   197  100  101 1    
   198  100  102 1    
   199  100  221 1    
   200  101  222 1    
   201  101  223 1    
   202  101  224 1    
   203  102  103 2    
   204  102  104 am   BACKBONE|DICT|INTERRES
   205  104  105 1    
   206  104  225 1    
   207  105  106 1    
   208  105  107 1    
   209  105  226 1    
   210  106  227 1    
   211  106  228 1    
   212  106  229 1    
   213  107  108 2    
   214  107  109 am   BACKBONE|DICT|INTERRES
   215  109  110 1    
   216  109  230 1    
   217  110  111 1    
   218  110  112 1    
   219  110  231 1    
   220  111  232 1    
   221  111  233 1    
   222  111  234 1    
   223  112  113 2    
   224  112  114 am   BACKBONE|DICT|INTERRES
   225  114  115 1    
   226  114  235 1    
   227  115  116 1    
   228  115  117 1    
   229  115  236 1    
   230  116  237 1    
   231  116  238 1    
   232  116  239 1    
   233  117  118 2    
   234  117  119 am   BACKBONE|DICT|INTERRES
   235  119  120 1    
   236  119  240 1    
   237  120  121 1    
   238  120  124 1    
   239  120  241 1    
   240  121  122 am   BACKBONE|DICT|INTERRES
   241  121  123 2    
   242  122  242 1    
   243  122  243 1    
   244  124  125 1    
   245  124  244 1    
   246  124  245 1    
   247  125  126 1    
   248  126  246 1    
   249  126  247 1    
@<TRIPOS>SUBSTRUCTURE
     1 UNK         1 GROUP             0       ****    0 ROOT    
