@<TRIPOS>MOLECULE
3R540
247   249    1
SMALL
USER_CHARGES


@<TRIPOS>ATOM
      1 CA         -3.8647  -10.6424  -47.5002 C.3       0 UNK        -0.1800 
      2 C          -2.6632  -11.5600  -47.3294 C.2       0 UNK         0.5000 
      3 O          -2.4478  -12.0849  -46.2380 O.2       0 UNK        -0.5000 
      4 N          -1.8934  -11.7688  -48.4073 N.am      1 UNK        -0.5000 
      5 CA         -0.6764  -12.5941  -48.4623 C.3       1 UNK         0.1400 
      6 C6         -0.0240  -12.5021  -49.8647 C.3       23 UNK        -0.0398 
      7 S7          1.5935  -13.3416  -50.0091 S.3       23 UNK        -0.2404 
      8 C8          1.3922  -14.2954  -51.5490 C.3       23 UNK        -0.0205 
      9 C9          0.3775  -15.4251  -51.4250 C.ar      23 UNK        -0.0193 
     10 C10        -0.9045  -15.2841  -51.9646 C.ar      23 UNK        -0.1150 
     11 C11        -1.8225  -16.3354  -51.9020 C.ar      23 UNK        -0.0193 
     12 C12        -1.4581  -17.5309  -51.2781 C.ar      23 UNK        -0.1150 
     13 C13        -0.1718  -17.6963  -50.7580 C.ar      23 UNK        -0.0193 
     14 C14         0.7385  -16.6363  -50.8271 C.ar      23 UNK        -0.1150 
     15 C15         0.2660  -19.0438  -50.2044 C.3       23 UNK        -0.0205 
     16 S16         0.6339  -18.9948  -48.4272 S.3       23 UNK        -0.2404 
     17 C17        -0.9864  -19.3639  -47.6744 C.3       23 UNK        -0.0398 
     18 CA         -1.2399  -20.8798  -47.4859 C.3       11 UNK         0.1400 
     19 N          -0.1981  -21.5191  -46.6933 N.am      11 UNK        -0.5000 
     20 C           0.3196  -22.7297  -46.9231 C.2       10 UNK         0.5000 
     21 O           0.0075  -23.4318  -47.8865 O.2       10 UNK        -0.5000 
     22 CA          1.3736  -23.2349  -45.9208 C.3       10 UNK         0.1400 
     23 CB          2.7887  -23.0041  -46.4710 C.3       10 UNK        -0.1800 
     24 N           1.2657  -22.5554  -44.6277 N.am      10 UNK        -0.5000 
     25 C           0.7177  -23.0831  -43.5253 C.2       9 UNK         0.5000 
     26 O           0.2618  -24.2246  -43.4632 O.2       9 UNK        -0.5000 
     27 CA          0.6720  -22.1880  -42.2701 C.3       9 UNK         0.1400 
     28 CB          1.9426  -22.3827  -41.4293 C.3       9 UNK        -0.1800 
     29 N           0.5120  -20.7640  -42.5647 N.am      9 UNK        -0.5000 
     30 C          -0.5524  -20.2084  -43.1613 C.2       8 UNK         0.5000 
     31 O          -1.5482  -20.8338  -43.5205 O.2       8 UNK        -0.5000 
     32 CA         -0.4812  -18.6981  -43.4463 C.3       8 UNK         0.1400 
     33 CB         -1.0903  -17.9228  -42.2699 C.3       8 UNK        -0.1800 
     34 N           0.8610  -18.1785  -43.7319 N.am      8 UNK        -0.5000 
     35 C           1.7279  -18.6743  -44.6289 C.2       7 UNK         0.5000 
     36 O           1.5305  -19.7007  -45.2780 O.2       7 UNK        -0.5000 
     37 CA          3.0660  -17.9342  -44.7859 C.3       7 UNK         0.1400 
     38 CB          2.8997  -16.7125  -45.7017 C.3       7 UNK        -0.1800 
     39 N           3.6379  -17.5145  -43.5060 N.am      7 UNK        -0.5000 
     40 C           4.0216  -18.3313  -42.5160 C.2       6 UNK         0.5000 
     41 O           3.9438  -19.5584  -42.5812 O.2       6 UNK        -0.5000 
     42 CA          4.5557  -17.6848  -41.2201 C.3       6 UNK         0.1400 
     43 CB          6.0734  -17.4331  -41.3039 C.3       6 UNK        -0.1800 
     44 N           3.8232  -16.4826  -40.7951 N.am      6 UNK        -0.5000 
     45 C           3.7693  -15.2800  -41.3827 C.2       5 UNK         0.5000 
     46 O           4.4165  -14.9651  -42.3842 O.2       5 UNK        -0.5000 
     47 CA          2.7798  -14.2724  -40.7685 C.3       5 UNK         0.1400 
     48 CB          3.5287  -13.2088  -39.9514 C.3       5 UNK        -0.1800 
     49 N           1.9535  -13.6090  -41.7805 N.am      5 UNK        -0.5000 
     50 C           1.1815  -14.2288  -42.6840 C.2       4 UNK         0.5000 
     51 O           1.0830  -15.4555  -42.7800 O.2       4 UNK        -0.5000 
     52 CA          0.4083  -13.3129  -43.6513 C.3       4 UNK         0.1400 
     53 CB          1.3088  -12.8543  -44.8079 C.3       4 UNK        -0.1800 
     54 N          -0.7809  -13.9667  -44.1984 N.am      4 UNK        -0.5000 
     55 C          -1.8900  -14.2332  -43.4925 C.2       3 UNK         0.5000 
     56 O          -2.0274  -13.9139  -42.3101 O.2       3 UNK        -0.5000 
     57 CA         -3.0415  -14.9679  -44.2090 C.3       3 UNK         0.1400 
     58 CB         -4.3990  -14.3007  -43.9270 C.3       3 UNK        -0.1800 
     59 N          -2.8438  -15.0087  -45.6558 N.am      3 UNK        -0.5000 
     60 C          -2.6984  -16.1175  -46.3917 C.2       2 UNK         0.5000 
     61 O          -2.7134  -17.2562  -45.9257 O.2       2 UNK        -0.5000 
     62 CA         -2.5218  -15.9402  -47.9139 C.3       2 UNK         0.1400 
     63 CB         -3.8306  -16.2966  -48.6344 C.3       2 UNK        -0.1800 
     64 N          -2.0983  -14.5998  -48.3209 N.am      2 UNK        -0.5000 
     65 C          -0.9140  -14.0541  -48.0090 C.2       1 UNK         0.5000 
     66 O          -0.0643  -14.6274  -47.3267 O.2       1 UNK        -0.5000 
     67 C          -2.6127  -21.2358  -46.8729 C.2       11 UNK         0.5000 
     68 O          -3.0270  -22.3906  -46.9975 O.2       11 UNK        -0.5000 
     69 N          -3.3200  -20.2704  -46.2624 N.am      12 UNK        -0.5000 
     70 CA         -4.7159  -20.3959  -45.8215 C.3       12 UNK         0.1400 
     71 CB         -5.1715  -19.0848  -45.1636 C.3       12 UNK        -0.1800 
     72 C          -5.0347  -21.5895  -44.8999 C.2       12 UNK         0.5000 
     73 O          -6.0701  -22.2287  -45.0916 O.2       12 UNK        -0.5000 
     74 N          -4.1475  -21.9000  -43.9445 N.am      13 UNK        -0.5000 
     75 CA         -4.3337  -22.9954  -42.9851 C.3       13 UNK         0.1400 
     76 CB         -3.3360  -22.8450  -41.8291 C.3       13 UNK        -0.1800 
     77 C          -4.2062  -24.3937  -43.6193 C.2       13 UNK         0.5000 
     78 O          -4.7412  -25.3565  -43.0688 O.2       13 UNK        -0.5000 
     79 N          -3.5273  -24.4774  -44.7701 N.am      14 UNK        -0.5000 
     80 CA         -3.3830  -25.6884  -45.5771 C.3       14 UNK         0.1400 
     81 CB         -1.9448  -25.7479  -46.1110 C.3       14 UNK        -0.1800 
     82 C          -4.4049  -25.7322  -46.7319 C.2       14 UNK         0.5000 
     83 O          -4.2703  -26.5756  -47.6183 O.2       14 UNK        -0.5000 
     84 N          -5.3914  -24.8215  -46.7165 N.am      15 UNK        -0.5000 
     85 CA         -6.4264  -24.6158  -47.7331 C.3       15 UNK         0.1400 
     86 CB         -7.3504  -25.8467  -47.8521 C.3       15 UNK        -0.1800 
     87 C          -5.8417  -24.1500  -49.0825 C.2       15 UNK         0.5000 
     88 O          -6.2712  -24.6176  -50.1385 O.2       15 UNK        -0.5000 
     89 N          -4.8783  -23.2186  -49.0075 N.am      16 UNK        -0.5000 
     90 CA         -4.1876  -22.5588  -50.1191 C.3       16 UNK         0.1400 
     91 CB         -5.1826  -21.7729  -50.9997 C.3       16 UNK        -0.1800 
     92 C          -3.2794  -23.5207  -50.9104 C.2       16 UNK         0.5000 
     93 O          -3.2266  -23.4511  -52.1380 O.2       16 UNK        -0.5000 
     94 N          -2.5650  -24.3992  -50.1918 N.am      17 UNK        -0.5000 
     95 CA         -1.6694  -25.4048  -50.7711 C.3       17 UNK         0.1400 
     96 CB         -1.2136  -26.3842  -49.6794 C.3       17 UNK        -0.1800 
     97 C          -0.4549  -24.7939  -51.4954 C.2       17 UNK         0.5000 
     98 O          -0.1081  -25.2454  -52.5871 O.2       17 UNK        -0.5000 
     99 N           0.1553  -23.7691  -50.8859 N.am      18 UNK        -0.5000 
    100 CA         1.3144  -23.0536  -51.4274 C.3       18 UNK         0.1400 
    101 CB         2.1279  -22.4848  -50.2544 C.3       18 UNK        -0.1800 
    102 C          0.9528  -21.9358  -52.4278 C.2       18 UNK         0.5000 
    103 O          1.8612  -21.2922  -52.9554 O.2       18 UNK        -0.5000 
    104 N         -0.3445  -21.6837  -52.6481 N.am      19 UNK        -0.5000 
    105 CA        -0.8403  -20.6184  -53.5194 C.3       19 UNK         0.1400 
    106 CB        -2.3307  -20.4035  -53.2387 C.3       19 UNK        -0.1800 
    107 C         -0.6263  -20.9295  -55.0110 C.2       19 UNK         0.5000 
    108 O         -0.6412  -22.0966  -55.4099 O.2       19 UNK        -0.5000 
    109 N         -0.4676  -19.8695  -55.8132 N.am      20 UNK        -0.5000 
    110 CA        -0.2953  -19.9570  -57.2648 C.3       20 UNK         0.1400 
    111 CB         0.3221  -18.6454  -57.7746 C.3       20 UNK        -0.1800 
    112 C         -1.6097  -20.2559  -58.0117 C.2       20 UNK         0.5000 
    113 O         -1.5746  -20.9178  -59.0495 O.2       20 UNK        -0.5000 
    114 N         -2.7330  -19.7644  -57.4719 N.am      21 UNK        -0.5000 
    115 CA        -4.0894  -19.8983  -58.0142 C.3       21 UNK         0.1400 
    116 CB        -4.2174  -19.2129  -59.3914 C.3       21 UNK        -0.1800 
    117 C         -5.1271  -19.3039  -57.0474 C.2       21 UNK         0.5000 
    118 O         -6.2522  -19.8009  -56.9854 O.2       21 UNK        -0.5000 
    119 N         -4.7340  -18.2437  -56.3288 N.am      22 UNK        -0.5000 
    120 CA        -5.5262  -17.5415  -55.3069 C.3       22 UNK         0.1400 
    121 C         -5.9585  -18.4159  -54.0924 C.2       22 UNK         0.5000 
    122 N         -6.9567  -17.9792  -53.3356 N.am      22 UNK        -0.7600 
    123 O         -5.3933  -19.4683  -53.8119 O.2       22 UNK        -0.5000 
    124 C124       -4.8152  -16.2353  -54.8594 C.3       23 UNK        -0.0398 
    125 S125       -3.0760  -16.4698  -54.3429 S.3       23 UNK        -0.2404 
    126 C126       -3.1901  -16.1919  -52.5495 C.3       23 UNK        -0.0205 
    127 H127       -3.7850   -9.7920  -46.8231 H         1 UNK         0.0600 
    128 H128       -4.7830  -11.1809  -47.2658 H         1 UNK         0.0600 
    129 H129       -3.9437  -10.2610  -48.5184 H         1 UNK         0.0600 
    130 H130       -2.1406  -11.3042  -49.2696 H         1 UNK         0.3000 
    131 H131        0.0232  -12.1567  -47.7478 H         1 UNK         0.0600 
    132 H132        0.1414  -11.4542  -50.1188 H         1 UNK         0.0800 
    133 H133       -0.7117  -12.8796  -50.6205 H         1 UNK         0.0800 
    134 H134        2.3604  -14.7145  -51.8271 H         1 UNK         0.0800 
    135 H135        1.1159  -13.6178  -52.3584 H         1 UNK         0.0800 
    136 H136       -1.1828  -14.3656  -52.4618 H         1 UNK         0.1150 
    137 H137       -2.1675  -18.3423  -51.2310 H         1 UNK         0.1150 
    138 H138        1.7371  -16.7623  -50.4326 H         1 UNK         0.1150 
    139 H139       -0.4783  -19.8150  -50.4049 H         1 UNK         0.0800 
    140 H140        1.1699  -19.3522  -50.7313 H         1 UNK         0.0800 
    141 H141       -1.7753  -18.9143  -48.2781 H         1 UNK         0.0800 
    142 H142       -0.9851  -18.8631  -46.7083 H         1 UNK         0.0800 
    143 H143       -1.2410  -21.3176  -48.4861 H         1 UNK         0.0600 
    144 H144        0.1923  -20.9649  -45.9399 H         1 UNK         0.3000 
    145 H145        1.2256  -24.3099  -45.7995 H         1 UNK         0.0600 
    146 H146        3.5471  -23.3103  -45.7504 H         1 UNK         0.0600 
    147 H147        2.9531  -23.5876  -47.3762 H         1 UNK         0.0600 
    148 H148        2.9609  -21.9544  -46.7141 H         1 UNK         0.0600 
    149 H149        1.5786  -21.5903  -44.6035 H         1 UNK         0.3000 
    150 H150       -0.1792  -22.5005  -41.6646 H         1 UNK         0.0600 
    151 H151        2.0732  -23.4306  -41.1559 H         1 UNK         0.0600 
    152 H152        1.8965  -21.8091  -40.5035 H         1 UNK         0.0600 
    153 H153        2.8356  -22.0718  -41.9731 H         1 UNK         0.0600 
    154 H154        1.2989  -20.1689  -42.3475 H         1 UNK         0.3000 
    155 H155       -1.0906  -18.5100  -44.3295 H         1 UNK         0.0600 
    156 H156       -0.4954  -18.0369  -41.3630 H         1 UNK         0.0600 
    157 H157       -2.1006  -18.2711  -42.0503 H         1 UNK         0.0600 
    158 H158       -1.1582  -16.8597  -42.4901 H         1 UNK         0.0600 
    159 H159        1.1002  -17.3004  -43.2766 H         1 UNK         0.3000 
    160 H160        3.7725  -18.6209  -45.2566 H         1 UNK         0.0600 
    161 H161        2.2005  -15.9898  -45.2815 H         1 UNK         0.0600 
    162 H162        2.5142  -17.0064  -46.6791 H         1 UNK         0.0600 
    163 H163        3.8507  -16.2055  -45.8647 H         1 UNK         0.0600 
    164 H164        3.7491  -16.5168  -43.3553 H         1 UNK         0.3000 
    165 H165        4.3952  -18.4153  -40.4255 H         1 UNK         0.0600 
    166 H166        6.3326  -16.7473  -42.1107 H         1 UNK         0.0600 
    167 H167        6.4565  -17.0167  -40.3723 H         1 UNK         0.0600 
    168 H168        6.6095  -18.3648  -41.4884 H         1 UNK         0.0600 
    169 H169        3.2255  -16.6285  -39.9932 H         1 UNK         0.3000 
    170 H170        2.1027  -14.8070  -40.0992 H         1 UNK         0.0600 
    171 H171        4.1946  -12.6153  -40.5794 H         1 UNK         0.0600 
    172 H172        2.8352  -12.5275  -39.4580 H         1 UNK         0.0600 
    173 H173        4.1374  -13.6711  -39.1732 H         1 UNK         0.0600 
    174 H174        2.0008  -12.6009  -41.7956 H         1 UNK         0.3000 
    175 H175        0.0841  -12.4284  -43.0990 H         1 UNK         0.0600 
    176 H176        2.1994  -12.3456  -44.4371 H         1 UNK         0.0600 
    177 H177        0.7836  -12.1540  -45.4570 H         1 UNK         0.0600 
    178 H178        1.6425  -13.6929  -45.4187 H         1 UNK         0.0600 
    179 H179       -0.7194  -14.2905  -45.1549 H         1 UNK         0.3000 
    180 H180       -3.0707  -15.9789  -43.7987 H         1 UNK         0.0600 
    181 H181       -5.2098  -14.8359  -44.4216 H         1 UNK         0.0600 
    182 H182       -4.4164  -13.2675  -44.2764 H         1 UNK         0.0600 
    183 H183       -4.6223  -14.2929  -42.8595 H         1 UNK         0.0600 
    184 H184       -2.7789  -14.1021  -46.1077 H         1 UNK         0.3000 
    185 H185       -1.7442  -16.6315  -48.2398 H         1 UNK         0.0600 
    186 H186       -3.7242  -16.2176  -49.7144 H         1 UNK         0.0600 
    187 H187       -4.1326  -17.3213  -48.4131 H         1 UNK         0.0600 
    188 H188       -4.6472  -15.6405  -48.3305 H         1 UNK         0.0600 
    189 H189       -2.7588  -14.0536  -48.8537 H         1 UNK         0.3000 
    190 H190       -2.9219  -19.3438  -46.1568 H         1 UNK         0.3000 
    191 H191       -5.3143  -20.5344  -46.7244 H         1 UNK         0.0600 
    192 H192       -6.1875  -19.1684  -44.7752 H         1 UNK         0.0600 
    193 H193       -5.1724  -18.2644  -45.8811 H         1 UNK         0.0600 
    194 H194       -4.5226  -18.8064  -44.3321 H         1 UNK         0.0600 
    195 H195       -3.2782  -21.3741  -43.8700 H         1 UNK         0.3000 
    196 H196       -5.3411  -22.9115  -42.5718 H         1 UNK         0.0600 
    197 H197       -2.3179  -23.0326  -42.1662 H         1 UNK         0.0600 
    198 H198       -3.3728  -21.8460  -41.3944 H         1 UNK         0.0600 
    199 H199       -3.5517  -23.5582  -41.0328 H         1 UNK         0.0600 
    200 H200       -3.1568  -23.6271  -45.1785 H         1 UNK         0.3000 
    201 H201       -3.5501  -26.5735  -44.9605 H         1 UNK         0.0600 
    202 H202       -1.7516  -26.6929  -46.6196 H         1 UNK         0.0600 
    203 H203       -1.7615  -24.9462  -46.8238 H         1 UNK         0.0600 
    204 H204       -1.2158  -25.6586  -45.3060 H         1 UNK         0.0600 
    205 H205       -5.4092  -24.1601  -45.9498 H         1 UNK         0.3000 
    206 H206       -7.0384  -23.7879  -47.3723 H         1 UNK         0.0600 
    207 H207       -7.7453  -26.1386  -46.8791 H         1 UNK         0.0600 
    208 H208       -8.2036  -25.6310  -48.4961 H         1 UNK         0.0600 
    209 H209       -6.8331  -26.7072  -48.2770 H         1 UNK         0.0600 
    210 H210       -4.5287  -22.9686  -48.0874 H         1 UNK         0.3000 
    211 H211       -3.5180  -21.8250  -49.6714 H         1 UNK         0.0600 
    212 H212       -4.6620  -21.1563  -51.7302 H         1 UNK         0.0600 
    213 H213       -5.7995  -21.1048  -50.3989 H         1 UNK         0.0600 
    214 H214       -5.8467  -22.4334  -51.5571 H         1 UNK         0.0600 
    215 H215       -2.6538  -24.3933  -49.1858 H         1 UNK         0.3000 
    216 H216       -2.2423  -25.9702  -51.5092 H         1 UNK         0.0600 
    217 H217       -0.6507  -25.8804  -48.8935 H         1 UNK         0.0600 
    218 H218       -0.5699  -27.1599  -50.0959 H         1 UNK         0.0600 
    219 H219       -2.0647  -26.8843  -49.2180 H         1 UNK         0.0600 
    220 H220       -0.1429  -23.5109  -49.9505 H         1 UNK         0.3000 
    221 H221        1.9523  -23.7616  -51.9605 H         1 UNK         0.0600 
    222 H222        2.4697  -23.2857  -49.6009 H         1 UNK         0.0600 
    223 H223        1.5412  -21.7873  -49.6561 H         1 UNK         0.0600 
    224 H224        3.0148  -21.9543  -50.6030 H         1 UNK         0.0600 
    225 H225       -1.0338  -22.3100  -52.2575 H         1 UNK         0.3000 
    226 H226       -0.3051  -19.7002  -53.2674 H         1 UNK         0.0600 
    227 H227       -2.5279  -20.3316  -52.1708 H         1 UNK         0.0600 
    228 H228       -2.6826  -19.4812  -53.7009 H         1 UNK         0.0600 
    229 H229       -2.9391  -21.2182  -53.6336 H         1 UNK         0.0600 
    230 H230       -0.4582  -18.9427  -55.4117 H         1 UNK         0.3000 
    231 H231        0.4036  -20.7671  -57.4849 H         1 UNK         0.0600 
    232 H232       -0.3220  -17.7892  -57.5702 H         1 UNK         0.0600 
    233 H233        0.4845  -18.6837  -58.8527 H         1 UNK         0.0600 
    234 H234        1.2895  -18.4575  -57.3084 H         1 UNK         0.0600 
    235 H235       -2.6638  -19.3137  -56.5716 H         1 UNK         0.3000 
    236 H236       -4.3099  -20.9620  -58.1233 H         1 UNK         0.0600 
    237 H237       -3.6191  -19.7129  -60.1521 H         1 UNK         0.0600 
    238 H238       -5.2501  -19.2305  -59.7427 H         1 UNK         0.0600 
    239 H239       -3.9032  -18.1694  -59.3500 H         1 UNK         0.0600 
    240 H240       -3.8107  -17.8676  -56.4771 H         1 UNK         0.3000 
    241 H241       -6.4543  -17.2497  -55.8023 H         1 UNK         0.0600 
    242 H242       -7.2422  -18.5349  -52.5450 H         1 UNK         0.3800 
    243 H243       -7.4501  -17.1247  -53.5422 H         1 UNK         0.3800 
    244 H244       -5.3758  -15.7300  -54.0714 H         1 UNK         0.0800 
    245 H245       -4.8077  -15.5343  -55.6951 H         1 UNK         0.0800 
    246 H246       -3.8958  -16.9037  -52.1181 H         1 UNK         0.0800 
    247 H247       -3.5884  -15.1951  -52.3546 H         1 UNK         0.0800 
@<TRIPOS>BOND
     1    1    2 1    
     2    1  127 1    
     3    1  128 1    
     4    1  129 1    
     5    2    3 2    
     6    2    4 am   BACKBONE|DICT|INTERRES
     7    4    5 1    
     8    4  130 1    
     9    5    6 1    
    10    5   65 1    
    11    5  131 1    
    12    6    7 1    
    13    6  132 1    
    14    6  133 1    
    15    7    8 1    
    16    8    9 1    
    17    8  134 1    
    18    8  135 1    
    19    9   10 ar   
    20    9   14 ar   
    21   10   11 ar   
    22   10  136 1    
    23   11   12 ar   
    24   11  126 1    
    25   12   13 ar   
    26   12  137 1    
    27   13   14 ar   
    28   13   15 1    
    29   14  138 1    
    30   15   16 1    
    31   15  139 1    
    32   15  140 1    
    33   16   17 1    
    34   17   18 1    
    35   17  141 1    
    36   17  142 1    
    37   18   19 1    
    38   18   67 1    
    39   18  143 1    
    40   19   20 am   BACKBONE|DICT|INTERRES
    41   19  144 1    
    42   20   21 2    
    43   20   22 1    
    44   22   23 1    
    45   22   24 1    
    46   22  145 1    
    47   23  146 1    
    48   23  147 1    
    49   23  148 1    
    50   24   25 am   BACKBONE|DICT|INTERRES
    51   24  149 1    
    52   25   26 2    
    53   25   27 1    
    54   27   28 1    
    55   27   29 1    
    56   27  150 1    
    57   28  151 1    
    58   28  152 1    
    59   28  153 1    
    60   29   30 am   BACKBONE|DICT|INTERRES
    61   29  154 1    
    62   30   31 2    
    63   30   32 1    
    64   32   33 1    
    65   32   34 1    
    66   32  155 1    
    67   33  156 1    
    68   33  157 1    
    69   33  158 1    
    70   34   35 am   BACKBONE|DICT|INTERRES
    71   34  159 1    
    72   35   36 2    
    73   35   37 1    
    74   37   38 1    
    75   37   39 1    
    76   37  160 1    
    77   38  161 1    
    78   38  162 1    
    79   38  163 1    
    80   39   40 am   BACKBONE|DICT|INTERRES
    81   39  164 1    
    82   40   41 2    
    83   40   42 1    
    84   42   43 1    
    85   42   44 1    
    86   42  165 1    
    87   43  166 1    
    88   43  167 1    
    89   43  168 1    
    90   44   45 am   BACKBONE|DICT|INTERRES
    91   44  169 1    
    92   45   46 2    
    93   45   47 1    
    94   47   48 1    
    95   47   49 1    
    96   47  170 1    
    97   48  171 1    
    98   48  172 1    
    99   48  173 1    
   100   49   50 am   BACKBONE|DICT|INTERRES
   101   49  174 1    
   102   50   51 2    
   103   50   52 1    
   104   52   53 1    
   105   52   54 1    
   106   52  175 1    
   107   53  176 1    
   108   53  177 1    
   109   53  178 1    
   110   54   55 am   BACKBONE|DICT|INTERRES
   111   54  179 1    
   112   55   56 2    
   113   55   57 1    
   114   57   58 1    
   115   57   59 1    
   116   57  180 1    
   117   58  181 1    
   118   58  182 1    
   119   58  183 1    
   120   59   60 am   BACKBONE|DICT|INTERRES
   121   59  184 1    
   122   60   61 2    
   123   60   62 1    
   124   62   63 1    
   125   62   64 1    
   126   62  185 1    
   127   63  186 1    
   128   63  187 1    
   129   63  188 1    
   130   64   65 am   BACKBONE|DICT|INTERRES
   131   64  189 1    
   132   65   66 2    
   133   67   68 2    
   134   67   69 am   BACKBONE|DICT|INTERRES
   135   69   70 1    
   136   69  190 1    
   137   70   71 1    
   138   70   72 1    
   139   70  191 1    
   140   71  192 1    
   141   71  193 1    
   142   71  194 1    
   143   72   73 2    
   144   72   74 am   BACKBONE|DICT|INTERRES
   145   74   75 1    
   146   74  195 1    
   147   75   76 1    
   148   75   77 1    
   149   75  196 1    
   150   76  197 1    
   151   76  198 1    
   152   76  199 1    
   153   77   78 2    
   154   77   79 am   BACKBONE|DICT|INTERRES
   155   79   80 1    
   156   79  200 1    
   157   80   81 1    
   158   80   82 1    
   159   80  201 1    
   160   81  202 1    
   161   81  203 1    
   162   81  204 1    
   163   82   83 2    
   164   82   84 am   BACKBONE|DICT|INTERRES
   165   84   85 1    
   166   84  205 1    
   167   85   86 1    
   168   85   87 1    
   169   85  206 1    
   170   86  207 1    
   171   86  208 1    
   172   86  209 1    
   173   87   88 2    
   174   87   89 am   BACKBONE|DICT|INTERRES
   175   89   90 1    
   176   89  210 1    
   177   90   91 1    
   178   90   92 1    
   179   90  211 1    
   180   91  212 1    
   181   91  213 1    
   182   91  214 1    
   183   92   93 2    
   184   92   94 am   BACKBONE|DICT|INTERRES
   185   94   95 1    
   186   94  215 1    
   187   95   96 1    
   188   95   97 1    
   189   95  216 1    
   190   96  217 1    
   191   96  218 1    
   192   96  219 1    
   193   97   98 2    
   194   97   99 am   BACKBONE|DICT|INTERRES
   195   99  100 1    
   196   99  220 1    
   197  100  101 1    
   198  100  102 1    
   199  100  221 1    
   200  101  222 1    
   201  101  223 1    
   202  101  224 1    
   203  102  103 2    
   204  102  104 am   BACKBONE|DICT|INTERRES
   205  104  105 1    
   206  104  225 1    
   207  105  106 1    
   208  105  107 1    
   209  105  226 1    
   210  106  227 1    
   211  106  228 1    
   212  106  229 1    
   213  107  108 2    
   214  107  109 am   BACKBONE|DICT|INTERRES
   215  109  110 1    
   216  109  230 1    
   217  110  111 1    
   218  110  112 1    
   219  110  231 1    
   220  111  232 1    
   221  111  233 1    
   222  111  234 1    
   223  112  113 2    
   224  112  114 am   BACKBONE|DICT|INTERRES
   225  114  115 1    
   226  114  235 1    
   227  115  116 1    
   228  115  117 1    
   229  115  236 1    
   230  116  237 1    
   231  116  238 1    
   232  116  239 1    
   233  117  118 2    
   234  117  119 am   BACKBONE|DICT|INTERRES
   235  119  120 1    
   236  119  240 1    
   237  120  121 1    
   238  120  124 1    
   239  120  241 1    
   240  121  122 am   BACKBONE|DICT|INTERRES
   241  121  123 2    
   242  122  242 1    
   243  122  243 1    
   244  124  125 1    
   245  124  244 1    
   246  124  245 1    
   247  125  126 1    
   248  126  246 1    
   249  126  247 1    
@<TRIPOS>SUBSTRUCTURE
     1 UNK         1 GROUP             0       ****    0 ROOT    
