@<TRIPOS>MOLECULE
3R540
247   249    1
SMALL
USER_CHARGES


@<TRIPOS>ATOM
      1 CA         -4.1335  -14.2581  -46.7535 C.3       0 UNK        -0.1800 
      2 C          -3.2712  -13.0762  -47.1707 C.2       0 UNK         0.5000 
      3 O          -3.5350  -11.9519  -46.7427 O.2       0 UNK        -0.5000 
      4 N          -2.2611  -13.3150  -48.0183 N.am      1 UNK        -0.5000 
      5 CA         -1.3423  -12.2851  -48.5088 C.3       1 UNK         0.1400 
      6 C6         -0.6154  -12.7131  -49.8106 C.3       23 UNK        -0.0398 
      7 S7          0.5983  -14.0709  -49.6359 S.3       23 UNK        -0.2404 
      8 C8         -0.1317  -15.3758  -50.6722 C.3       23 UNK        -0.0205 
      9 C9          0.8826  -16.4731  -50.9534 C.ar      23 UNK        -0.0193 
     10 C10         1.4583  -16.5909  -52.2231 C.ar      23 UNK        -0.1150 
     11 C11         2.4043  -17.5863  -52.4853 C.ar      23 UNK        -0.0193 
     12 C12         2.7989  -18.4413  -51.4530 C.ar      23 UNK        -0.1150 
     13 C13         2.2283  -18.3385  -50.1833 C.ar      23 UNK        -0.0193 
     14 C14         1.2564  -17.3638  -49.9421 C.ar      23 UNK        -0.1150 
     15 C15         2.6887  -19.2753  -49.0807 C.3       23 UNK        -0.0205 
     16 S16         1.7853  -20.8515  -49.1397 S.3       23 UNK        -0.2404 
     17 C17         0.5769  -20.6199  -47.7957 C.3       23 UNK        -0.0398 
     18 CA          0.0117  -21.9768  -47.3054 C.3       11 UNK         0.1400 
     19 N          -0.1211  -22.0319  -45.8491 N.am      11 UNK        -0.5000 
     20 C          -0.3932  -23.1399  -45.1461 C.2       10 UNK         0.5000 
     21 O          -0.5214  -24.2567  -45.6469 O.2       10 UNK        -0.5000 
     22 CA         -0.6139  -22.9544  -43.6357 C.3       10 UNK         0.1400 
     23 CB          0.7225  -22.9297  -42.8785 C.3       10 UNK        -0.1800 
     24 N          -1.3677  -21.7323  -43.3542 N.am      10 UNK        -0.5000 
     25 C          -2.6675  -21.5739  -43.6408 C.2       9 UNK         0.5000 
     26 O          -3.3769  -22.4700  -44.0996 O.2       9 UNK        -0.5000 
     27 CA         -3.2594  -20.1697  -43.4150 C.3       9 UNK         0.1400 
     28 CB         -3.6909  -19.9925  -41.9518 C.3       9 UNK        -0.1800 
     29 N          -2.3290  -19.0982  -43.7779 N.am      9 UNK        -0.5000 
     30 C          -1.9356  -18.8268  -45.0306 C.2       8 UNK         0.5000 
     31 O          -2.3370  -19.4356  -46.0204 O.2       8 UNK        -0.5000 
     32 CA         -0.8738  -17.7262  -45.2067 C.3       8 UNK         0.1400 
     33 CB         -1.5428  -16.3550  -45.3658 C.3       8 UNK        -0.1800 
     34 N           0.1037  -17.6768  -44.1156 N.am      8 UNK        -0.5000 
     35 C           0.9380  -18.6819  -43.8037 C.2       7 UNK         0.5000 
     36 O           0.9190  -19.7690  -44.3802 O.2       7 UNK        -0.5000 
     37 CA          1.9638  -18.4624  -42.6764 C.3       7 UNK         0.1400 
     38 CB          3.3922  -18.4754  -43.2431 C.3       7 UNK        -0.1800 
     39 N           1.7475  -17.2202  -41.9339 N.am      7 UNK        -0.5000 
     40 C           0.8524  -17.0795  -40.9451 C.2       6 UNK         0.5000 
     41 O           0.1320  -17.9958  -40.5475 O.2       6 UNK        -0.5000 
     42 CA          0.7153  -15.6814  -40.3067 C.3       6 UNK         0.1400 
     43 CB          1.5629  -15.5895  -39.0290 C.3       6 UNK        -0.1800 
     44 N           1.0829  -14.5816  -41.2021 N.am      6 UNK        -0.5000 
     45 C           0.4517  -14.2805  -42.3446 C.2       5 UNK         0.5000 
     46 O          -0.5314  -14.8971  -42.7535 O.2       5 UNK        -0.5000 
     47 CA          1.0319  -13.1388  -43.2034 C.3       5 UNK         0.1400 
     48 CB          2.0437  -12.2390  -42.4599 C.3       5 UNK        -0.1800 
     49 N           1.6196  -13.6475  -44.4451 N.am      5 UNK        -0.5000 
     50 C           2.5854  -14.5716  -44.5673 C.2       4 UNK         0.5000 
     51 O           3.1160  -15.1389  -43.6114 O.2       4 UNK        -0.5000 
     52 CA          3.0535  -14.9078  -45.9926 C.3       4 UNK         0.1400 
     53 CB          2.1403  -15.9523  -46.6473 C.3       4 UNK        -0.1800 
     54 N           3.0972  -13.7145  -46.8353 N.am      4 UNK        -0.5000 
     55 C           4.1953  -12.9747  -47.0406 C.2       3 UNK         0.5000 
     56 O           5.3058  -13.2496  -46.5842 O.2       3 UNK        -0.5000 
     57 CA          4.0252  -11.7026  -47.8933 C.3       3 UNK         0.1400 
     58 CB          4.1818  -12.0286  -49.3866 C.3       3 UNK        -0.1800 
     59 N           2.7362  -11.0457  -47.6773 N.am      3 UNK        -0.5000 
     60 C           2.3664  -10.4444  -46.5372 C.2       2 UNK         0.5000 
     61 O           3.1119  -10.3023  -45.5681 O.2       2 UNK        -0.5000 
     62 CA          0.9173   -9.9226  -46.4562 C.3       2 UNK         0.1400 
     63 CB          0.8830   -8.3992  -46.6528 C.3       2 UNK        -0.1800 
     64 N          -0.0002  -10.5460  -47.4166 N.am      2 UNK        -0.5000 
     65 C          -0.3618  -11.8359  -47.4039 C.2       1 UNK         0.5000 
     66 O           0.0795  -12.6582  -46.5961 O.2       1 UNK        -0.5000 
     67 C          -1.3045  -22.3526  -48.0168 C.2       11 UNK         0.5000 
     68 O          -1.2756  -23.1493  -48.9518 O.2       11 UNK        -0.5000 
     69 N          -2.4381  -21.8396  -47.5130 N.am      12 UNK        -0.5000 
     70 CA         -3.7902  -22.1801  -47.9604 C.3       12 UNK         0.1400 
     71 CB         -4.8222  -21.3500  -47.1791 C.3       12 UNK        -0.1800 
     72 C          -4.0999  -23.6789  -47.8243 C.2       12 UNK         0.5000 
     73 O          -4.6233  -24.2756  -48.7648 O.2       12 UNK        -0.5000 
     74 N          -3.7383  -24.2656  -46.6744 N.am      13 UNK        -0.5000 
     75 CA         -3.8686  -25.6968  -46.4027 C.3       13 UNK         0.1400 
     76 CB         -3.5586  -25.9753  -44.9243 C.3       13 UNK        -0.1800 
     77 C          -2.9884  -26.5546  -47.3308 C.2       13 UNK         0.5000 
     78 O          -3.4836  -27.5252  -47.9047 O.2       13 UNK        -0.5000 
     79 N          -1.7198  -26.1551  -47.5041 N.am      14 UNK        -0.5000 
     80 CA         -0.7550  -26.7945  -48.4048 C.3       14 UNK         0.1400 
     81 CB          0.6300  -26.1615  -48.2033 C.3       14 UNK        -0.1800 
     82 C          -1.1728  -26.7310  -49.8875 C.2       14 UNK         0.5000 
     83 O          -0.9638  -27.6964  -50.6223 O.2       14 UNK        -0.5000 
     84 N          -1.7967  -25.6152  -50.2844 N.am      15 UNK        -0.5000 
     85 CA         -2.3703  -25.3749  -51.6089 C.3       15 UNK         0.1400 
     86 CB         -2.4058  -23.8583  -51.8579 C.3       15 UNK        -0.1800 
     87 C          -3.7620  -26.0179  -51.8129 C.2       15 UNK         0.5000 
     88 O          -4.3814  -25.7761  -52.8491 O.2       15 UNK        -0.5000 
     89 N          -4.2243  -26.8278  -50.8474 N.am      16 UNK        -0.5000 
     90 CA         -5.4690  -27.6022  -50.8481 C.3       16 UNK         0.1400 
     91 CB         -5.4778  -28.6445  -51.9869 C.3       16 UNK        -0.1800 
     92 C          -6.7289  -26.7146  -50.8164 C.2       16 UNK         0.5000 
     93 O          -7.6386  -26.8899  -51.6292 O.2       16 UNK        -0.5000 
     94 N          -6.7517  -25.7877  -49.8497 N.am      17 UNK        -0.5000 
     95 CA         -7.8259  -24.8403  -49.5358 C.3       17 UNK         0.1400 
     96 CB         -9.1437  -25.5647  -49.1867 C.3       17 UNK        -0.1800 
     97 C          -7.9916  -23.7360  -50.5979 C.2       17 UNK         0.5000 
     98 O          -9.1051  -23.2600  -50.8298 O.2       17 UNK        -0.5000 
     99 N          -6.8707  -23.3227  -51.2020 N.am      18 UNK        -0.5000 
    100 CA        -6.7817  -22.1315  -52.0462 C.3       18 UNK         0.1400 
    101 CB        -5.5409  -22.2491  -52.9423 C.3       18 UNK        -0.1800 
    102 C         -6.7003  -20.8596  -51.1802 C.2       18 UNK         0.5000 
    103 O         -6.4556  -20.9451  -49.9740 O.2       18 UNK        -0.5000 
    104 N         -6.8612  -19.6896  -51.8096 N.am      19 UNK        -0.5000 
    105 CA        -6.7757  -18.3672  -51.1795 C.3       19 UNK         0.1400 
    106 CB        -7.4917  -17.3466  -52.0825 C.3       19 UNK        -0.1800 
    107 C         -5.3187  -17.9590  -50.8608 C.2       19 UNK         0.5000 
    108 O         -4.8286  -16.9531  -51.3778 O.2       19 UNK        -0.5000 
    109 N         -4.6448  -18.7771  -50.0408 N.am      20 UNK        -0.5000 
    110 CA        -3.2443  -18.7263  -49.6006 C.3       20 UNK         0.1400 
    111 CB        -2.9440  -17.4506  -48.7985 C.3       20 UNK        -0.1800 
    112 C         -2.2176  -18.9571  -50.7228 C.2       20 UNK         0.5000 
    113 O         -1.3270  -19.7885  -50.5598 O.2       20 UNK        -0.5000 
    114 N         -2.3702  -18.2466  -51.8445 N.am      21 UNK        -0.5000 
    115 CA        -1.5929  -18.4335  -53.0632 C.3       21 UNK         0.1400 
    116 CB        -1.9151  -17.2903  -54.0380 C.3       21 UNK        -0.1800 
    117 C         -1.9052  -19.8089  -53.6962 C.2       21 UNK         0.5000 
    118 O         -3.0777  -20.0777  -53.9576 O.2       21 UNK        -0.5000 
    119 N         -0.9246  -20.6795  -53.9600 N.am      22 UNK        -0.5000 
    120 CA         0.5117  -20.5632  -53.6891 C.3       22 UNK         0.1400 
    121 C          1.0879  -21.9971  -53.5668 C.2       22 UNK         0.5000 
    122 N          1.6797  -22.3502  -52.4338 N.am      22 UNK        -0.7600 
    123 O          1.0032  -22.7923  -54.5001 O.2       22 UNK        -0.5000 
    124 C124        1.2135  -19.7140  -54.7863 C.3       23 UNK        -0.0398 
    125 S125        2.9951  -19.4295  -54.5057 S.3       23 UNK        -0.2404 
    126 C126        3.0212  -17.7177  -53.8723 C.3       23 UNK        -0.0205 
    127 H127       -3.9589  -15.1255  -47.3870 H         1 UNK         0.0600 
    128 H128       -5.1893  -13.9980  -46.8292 H         1 UNK         0.0600 
    129 H129       -3.9236  -14.5315  -45.7197 H         1 UNK         0.0600 
    130 H130       -2.0513  -14.2597  -48.3022 H         1 UNK         0.3000 
    131 H131       -1.9528  -11.4170  -48.7681 H         1 UNK         0.0600 
    132 H132       -0.0851  -11.8573  -50.2313 H         1 UNK         0.0800 
    133 H133       -1.3574  -12.9825  -50.5632 H         1 UNK         0.0800 
    134 H134       -0.4879  -14.9447  -51.6089 H         1 UNK         0.0800 
    135 H135       -1.0026  -15.7966  -50.1726 H         1 UNK         0.0800 
    136 H136        1.1672  -15.9074  -53.0083 H         1 UNK         0.1150 
    137 H137        3.5481  -19.1977  -51.6407 H         1 UNK         0.1150 
    138 H138        0.8071  -17.2812  -48.9630 H         1 UNK         0.1150 
    139 H139        3.7536  -19.4810  -49.1993 H         1 UNK         0.0800 
    140 H140        2.5857  -18.7981  -48.1055 H         1 UNK         0.0800 
    141 H141       -0.2062  -19.9290  -48.1136 H         1 UNK         0.0800 
    142 H142        1.0970  -20.1193  -46.9793 H         1 UNK         0.0800 
    143 H143        0.7324  -22.7597  -47.5518 H         1 UNK         0.0600 
    144 H144        0.0304  -21.1648  -45.3420 H         1 UNK         0.3000 
    145 H145       -1.1922  -23.8075  -43.2740 H         1 UNK         0.0600 
    146 H146        0.5649  -22.8348  -41.8041 H         1 UNK         0.0600 
    147 H147        1.2785  -23.8533  -43.0448 H         1 UNK         0.0600 
    148 H148        1.3587  -22.1045  -43.1984 H         1 UNK         0.0600 
    149 H149       -0.8410  -20.9374  -43.0237 H         1 UNK         0.3000 
    150 H150       -4.1460  -20.0779  -44.0459 H         1 UNK         0.0600 
    151 H151       -4.3952  -20.7711  -41.6556 H         1 UNK         0.0600 
    152 H152       -4.1861  -19.0331  -41.8009 H         1 UNK         0.0600 
    153 H153       -2.8401  -20.0418  -41.2709 H         1 UNK         0.0600 
    154 H154       -1.9395  -18.5529  -43.0224 H         1 UNK         0.3000 
    155 H155       -0.3269  -17.9428  -46.1266 H         1 UNK         0.0600 
    156 H156       -2.1664  -16.1098  -44.5055 H         1 UNK         0.0600 
    157 H157       -2.1816  -16.3389  -46.2461 H         1 UNK         0.0600 
    158 H158       -0.8102  -15.5570  -45.4837 H         1 UNK         0.0600 
    159 H159        0.1401  -16.8181  -43.5795 H         1 UNK         0.3000 
    160 H160        1.8727  -19.3054  -41.9883 H         1 UNK         0.0600 
    161 H161        3.5345  -17.7093  -44.0051 H         1 UNK         0.0600 
    162 H162        3.6182  -19.4372  -43.7052 H         1 UNK         0.0600 
    163 H163        4.1311  -18.3116  -42.4587 H         1 UNK         0.0600 
    164 H164        2.2793  -16.4119  -42.2424 H         1 UNK         0.3000 
    165 H165       -0.3334  -15.5505  -40.0317 H         1 UNK         0.0600 
    166 H166        1.4092  -14.6375  -38.5204 H         1 UNK         0.0600 
    167 H167        1.2961  -16.3790  -38.3250 H         1 UNK         0.0600 
    168 H168        2.6275  -15.6882  -39.2450 H         1 UNK         0.0600 
    169 H169        1.9051  -14.0508  -40.9543 H         1 UNK         0.3000 
    170 H170        0.1857  -12.5151  -43.4954 H         1 UNK         0.0600 
    171 H171        1.6081  -11.8235  -41.5504 H         1 UNK         0.0600 
    172 H172        2.9520  -12.7749  -42.1827 H         1 UNK         0.0600 
    173 H173        2.3410  -11.3965  -43.0844 H         1 UNK         0.0600 
    174 H174        1.1823  -13.2927  -45.2931 H         1 UNK         0.3000 
    175 H175        4.0501  -15.3477  -45.9154 H         1 UNK         0.0600 
    176 H176        1.1302  -15.5717  -46.7981 H         1 UNK         0.0600 
    177 H177        2.5345  -16.2436  -47.6202 H         1 UNK         0.0600 
    178 H178        2.0753  -16.8552  -46.0408 H         1 UNK         0.0600 
    179 H179        2.2182  -13.4026  -47.2259 H         1 UNK         0.3000 
    180 H180        4.8150  -11.0031  -47.6111 H         1 UNK         0.0600 
    181 H181        3.4091  -12.7156  -49.7337 H         1 UNK         0.0600 
    182 H182        5.1475  -12.4958  -49.5841 H         1 UNK         0.0600 
    183 H183        4.1278  -11.1263  -49.9959 H         1 UNK         0.0600 
    184 H184        2.0650  -11.1026  -48.4281 H         1 UNK         0.3000 
    185 H185        0.5513  -10.1460  -45.4518 H         1 UNK         0.0600 
    186 H186        1.5307   -7.8969  -45.9328 H         1 UNK         0.0600 
    187 H187        1.2192   -8.1147  -47.6506 H         1 UNK         0.0600 
    188 H188       -0.1234   -8.0049  -46.5108 H         1 UNK         0.0600 
    189 H189       -0.3976   -9.9309  -48.1122 H         1 UNK         0.3000 
    190 H190       -2.3713  -21.1406  -46.7774 H         1 UNK         0.3000 
    191 H191       -3.8671  -21.9223  -49.0185 H         1 UNK         0.0600 
    192 H192       -4.7559  -21.5261  -46.1068 H         1 UNK         0.0600 
    193 H193       -5.8383  -21.6037  -47.4828 H         1 UNK         0.0600 
    194 H194       -4.6920  -20.2816  -47.3457 H         1 UNK         0.0600 
    195 H195       -3.3370  -23.6943  -45.9402 H         1 UNK         0.3000 
    196 H196       -4.9090  -25.9741  -46.5850 H         1 UNK         0.0600 
    197 H197       -3.6909  -27.0325  -44.6912 H         1 UNK         0.0600 
    198 H198       -4.2240  -25.4116  -44.2700 H         1 UNK         0.0600 
    199 H199       -2.5341  -25.7086  -44.6659 H         1 UNK         0.0600 
    200 H200       -1.3813  -25.3596  -46.9687 H         1 UNK         0.3000 
    201 H201       -0.6910  -27.8480  -48.1251 H         1 UNK         0.0600 
    202 H202        0.9621  -26.2595  -47.1697 H         1 UNK         0.0600 
    203 H203        0.6273  -25.1006  -48.4543 H         1 UNK         0.0600 
    204 H204        1.3767  -26.6462  -48.8334 H         1 UNK         0.0600 
    205 H205       -1.8542  -24.8380  -49.6308 H         1 UNK         0.3000 
    206 H206       -1.7086  -25.8170  -52.3562 H         1 UNK         0.0600 
    207 H207       -1.4103  -23.4211  -51.7741 H         1 UNK         0.0600 
    208 H208       -2.7726  -23.6281  -52.8586 H         1 UNK         0.0600 
    209 H209       -3.0503  -23.3539  -51.1375 H         1 UNK         0.0600 
    210 H210       -3.6590  -26.9318  -50.0136 H         1 UNK         0.3000 
    211 H211       -5.4727  -28.1577  -49.9091 H         1 UNK         0.0600 
    212 H212       -5.5255  -28.1765  -52.9704 H         1 UNK         0.0600 
    213 H213       -6.3403  -29.3063  -51.9006 H         1 UNK         0.0600 
    214 H214       -4.5855  -29.2697  -51.9554 H         1 UNK         0.0600 
    215 H215       -5.9002  -25.6410  -49.3150 H         1 UNK         0.3000 
    216 H216       -7.5002  -24.3230  -48.6321 H         1 UNK         0.0600 
    217 H217       -9.8776  -24.8650  -48.7852 H         1 UNK         0.0600 
    218 H218       -8.9835  -26.3333  -48.4306 H         1 UNK         0.0600 
    219 H219       -9.5928  -26.0388  -50.0596 H         1 UNK         0.0600 
    220 H220       -5.9980  -23.7416  -50.9133 H         1 UNK         0.3000 
    221 H221       -7.6694  -22.0730  -52.6794 H         1 UNK         0.0600 
    222 H222       -4.6222  -22.1281  -52.3697 H         1 UNK         0.0600 
    223 H223       -5.5016  -23.2131  -53.4499 H         1 UNK         0.0600 
    224 H224       -5.5417  -21.4779  -53.7132 H         1 UNK         0.0600 
    225 H225       -7.0152  -19.6931  -52.8076 H         1 UNK         0.3000 
    226 H226       -7.3133  -18.3994  -50.2294 H         1 UNK         0.0600 
    227 H227       -8.5349  -17.6218  -52.2388 H         1 UNK         0.0600 
    228 H228       -7.4845  -16.3528  -51.6327 H         1 UNK         0.0600 
    229 H229       -7.0147  -17.2688  -53.0604 H         1 UNK         0.0600 
    230 H230       -5.1584  -19.6021  -49.7400 H         1 UNK         0.3000 
    231 H231       -3.1194  -19.5594  -48.9122 H         1 UNK         0.0600 
    232 H232       -1.9064  -17.4393  -48.4625 H         1 UNK         0.0600 
    233 H233       -3.5742  -17.4065  -47.9108 H         1 UNK         0.0600 
    234 H234       -3.1158  -16.5461  -49.3811 H         1 UNK         0.0600 
    235 H235       -3.1715  -17.6233  -51.8955 H         1 UNK         0.3000 
    236 H236       -0.5453  -18.3458  -52.7928 H         1 UNK         0.0600 
    237 H237       -1.3470  -17.3916  -54.9631 H         1 UNK         0.0600 
    238 H238       -2.9733  -17.2727  -54.3022 H         1 UNK         0.0600 
    239 H239       -1.6625  -16.3220  -53.6056 H         1 UNK         0.0600 
    240 H240       -1.1776  -21.5717  -54.3609 H         1 UNK         0.3000 
    241 H241        0.6557  -20.0862  -52.7191 H         1 UNK         0.0600 
    242 H242        2.0592  -23.2797  -52.3509 H         1 UNK         0.3800 
    243 H243        1.7328  -21.7214  -51.6458 H         1 UNK         0.3800 
    244 H244        1.1027  -20.1973  -55.7584 H         1 UNK         0.0800 
    245 H245        0.7240  -18.7458  -54.8865 H         1 UNK         0.0800 
    246 H246        2.5205  -17.0638  -54.5881 H         1 UNK         0.0800 
    247 H247        4.0573  -17.3807  -53.8215 H         1 UNK         0.0800 
@<TRIPOS>BOND
     1    1    2 1    
     2    1  127 1    
     3    1  128 1    
     4    1  129 1    
     5    2    3 2    
     6    2    4 am   BACKBONE|DICT|INTERRES
     7    4    5 1    
     8    4  130 1    
     9    5    6 1    
    10    5   65 1    
    11    5  131 1    
    12    6    7 1    
    13    6  132 1    
    14    6  133 1    
    15    7    8 1    
    16    8    9 1    
    17    8  134 1    
    18    8  135 1    
    19    9   10 ar   
    20    9   14 ar   
    21   10   11 ar   
    22   10  136 1    
    23   11   12 ar   
    24   11  126 1    
    25   12   13 ar   
    26   12  137 1    
    27   13   14 ar   
    28   13   15 1    
    29   14  138 1    
    30   15   16 1    
    31   15  139 1    
    32   15  140 1    
    33   16   17 1    
    34   17   18 1    
    35   17  141 1    
    36   17  142 1    
    37   18   19 1    
    38   18   67 1    
    39   18  143 1    
    40   19   20 am   BACKBONE|DICT|INTERRES
    41   19  144 1    
    42   20   21 2    
    43   20   22 1    
    44   22   23 1    
    45   22   24 1    
    46   22  145 1    
    47   23  146 1    
    48   23  147 1    
    49   23  148 1    
    50   24   25 am   BACKBONE|DICT|INTERRES
    51   24  149 1    
    52   25   26 2    
    53   25   27 1    
    54   27   28 1    
    55   27   29 1    
    56   27  150 1    
    57   28  151 1    
    58   28  152 1    
    59   28  153 1    
    60   29   30 am   BACKBONE|DICT|INTERRES
    61   29  154 1    
    62   30   31 2    
    63   30   32 1    
    64   32   33 1    
    65   32   34 1    
    66   32  155 1    
    67   33  156 1    
    68   33  157 1    
    69   33  158 1    
    70   34   35 am   BACKBONE|DICT|INTERRES
    71   34  159 1    
    72   35   36 2    
    73   35   37 1    
    74   37   38 1    
    75   37   39 1    
    76   37  160 1    
    77   38  161 1    
    78   38  162 1    
    79   38  163 1    
    80   39   40 am   BACKBONE|DICT|INTERRES
    81   39  164 1    
    82   40   41 2    
    83   40   42 1    
    84   42   43 1    
    85   42   44 1    
    86   42  165 1    
    87   43  166 1    
    88   43  167 1    
    89   43  168 1    
    90   44   45 am   BACKBONE|DICT|INTERRES
    91   44  169 1    
    92   45   46 2    
    93   45   47 1    
    94   47   48 1    
    95   47   49 1    
    96   47  170 1    
    97   48  171 1    
    98   48  172 1    
    99   48  173 1    
   100   49   50 am   BACKBONE|DICT|INTERRES
   101   49  174 1    
   102   50   51 2    
   103   50   52 1    
   104   52   53 1    
   105   52   54 1    
   106   52  175 1    
   107   53  176 1    
   108   53  177 1    
   109   53  178 1    
   110   54   55 am   BACKBONE|DICT|INTERRES
   111   54  179 1    
   112   55   56 2    
   113   55   57 1    
   114   57   58 1    
   115   57   59 1    
   116   57  180 1    
   117   58  181 1    
   118   58  182 1    
   119   58  183 1    
   120   59   60 am   BACKBONE|DICT|INTERRES
   121   59  184 1    
   122   60   61 2    
   123   60   62 1    
   124   62   63 1    
   125   62   64 1    
   126   62  185 1    
   127   63  186 1    
   128   63  187 1    
   129   63  188 1    
   130   64   65 am   BACKBONE|DICT|INTERRES
   131   64  189 1    
   132   65   66 2    
   133   67   68 2    
   134   67   69 am   BACKBONE|DICT|INTERRES
   135   69   70 1    
   136   69  190 1    
   137   70   71 1    
   138   70   72 1    
   139   70  191 1    
   140   71  192 1    
   141   71  193 1    
   142   71  194 1    
   143   72   73 2    
   144   72   74 am   BACKBONE|DICT|INTERRES
   145   74   75 1    
   146   74  195 1    
   147   75   76 1    
   148   75   77 1    
   149   75  196 1    
   150   76  197 1    
   151   76  198 1    
   152   76  199 1    
   153   77   78 2    
   154   77   79 am   BACKBONE|DICT|INTERRES
   155   79   80 1    
   156   79  200 1    
   157   80   81 1    
   158   80   82 1    
   159   80  201 1    
   160   81  202 1    
   161   81  203 1    
   162   81  204 1    
   163   82   83 2    
   164   82   84 am   BACKBONE|DICT|INTERRES
   165   84   85 1    
   166   84  205 1    
   167   85   86 1    
   168   85   87 1    
   169   85  206 1    
   170   86  207 1    
   171   86  208 1    
   172   86  209 1    
   173   87   88 2    
   174   87   89 am   BACKBONE|DICT|INTERRES
   175   89   90 1    
   176   89  210 1    
   177   90   91 1    
   178   90   92 1    
   179   90  211 1    
   180   91  212 1    
   181   91  213 1    
   182   91  214 1    
   183   92   93 2    
   184   92   94 am   BACKBONE|DICT|INTERRES
   185   94   95 1    
   186   94  215 1    
   187   95   96 1    
   188   95   97 1    
   189   95  216 1    
   190   96  217 1    
   191   96  218 1    
   192   96  219 1    
   193   97   98 2    
   194   97   99 am   BACKBONE|DICT|INTERRES
   195   99  100 1    
   196   99  220 1    
   197  100  101 1    
   198  100  102 1    
   199  100  221 1    
   200  101  222 1    
   201  101  223 1    
   202  101  224 1    
   203  102  103 2    
   204  102  104 am   BACKBONE|DICT|INTERRES
   205  104  105 1    
   206  104  225 1    
   207  105  106 1    
   208  105  107 1    
   209  105  226 1    
   210  106  227 1    
   211  106  228 1    
   212  106  229 1    
   213  107  108 2    
   214  107  109 am   BACKBONE|DICT|INTERRES
   215  109  110 1    
   216  109  230 1    
   217  110  111 1    
   218  110  112 1    
   219  110  231 1    
   220  111  232 1    
   221  111  233 1    
   222  111  234 1    
   223  112  113 2    
   224  112  114 am   BACKBONE|DICT|INTERRES
   225  114  115 1    
   226  114  235 1    
   227  115  116 1    
   228  115  117 1    
   229  115  236 1    
   230  116  237 1    
   231  116  238 1    
   232  116  239 1    
   233  117  118 2    
   234  117  119 am   BACKBONE|DICT|INTERRES
   235  119  120 1    
   236  119  240 1    
   237  120  121 1    
   238  120  124 1    
   239  120  241 1    
   240  121  122 am   BACKBONE|DICT|INTERRES
   241  121  123 2    
   242  122  242 1    
   243  122  243 1    
   244  124  125 1    
   245  124  244 1    
   246  124  245 1    
   247  125  126 1    
   248  126  246 1    
   249  126  247 1    
@<TRIPOS>SUBSTRUCTURE
     1 UNK         1 GROUP             0       ****    0 ROOT    
