@<TRIPOS>MOLECULE
3R540
247   249    1
SMALL
USER_CHARGES


@<TRIPOS>ATOM
      1 CA          3.2769   -8.4563  -47.6955 C.3       0 UNK        -0.1800 
      2 C           2.2423   -9.4914  -47.2786 C.2       0 UNK         0.5000 
      3 O           1.1142   -9.1284  -46.9438 O.2       0 UNK        -0.5000 
      4 N           2.6242  -10.7759  -47.2922 N.am      1 UNK        -0.5000 
      5 CA          1.8274  -11.9512  -46.9149 C.3       1 UNK         0.1400 
      6 C6          0.5100  -12.0963  -47.7251 C.3       23 UNK        -0.0398 
      7 S7         -0.1270  -13.8076  -47.7632 S.3       23 UNK        -0.2404 
      8 C8          0.2947  -14.2914  -49.4641 C.3       23 UNK        -0.0205 
      9 C9         -0.2875  -15.6493  -49.8235 C.ar      23 UNK        -0.0193 
     10 C10        -1.6044  -15.7479  -50.2827 C.ar      23 UNK        -0.1150 
     11 C11        -2.1445  -16.9844  -50.6506 C.ar      23 UNK        -0.0193 
     12 C12        -1.3551  -18.1318  -50.5292 C.ar      23 UNK        -0.1150 
     13 C13        -0.0244  -18.0419  -50.1140 C.ar      23 UNK        -0.0193 
     14 C14         0.4998  -16.8006  -49.7438 C.ar      23 UNK        -0.1150 
     15 C15         0.8625  -19.2759  -50.1202 C.3       23 UNK        -0.0205 
     16 S16         0.8415  -20.1324  -48.5235 S.3       23 UNK        -0.2404 
     17 C17        -0.8215  -20.8701  -48.5291 C.3       23 UNK        -0.0398 
     18 CA         -0.9114  -22.0455  -47.5350 C.3       11 UNK         0.1400 
     19 N          -0.6585  -21.6323  -46.1539 N.am      11 UNK        -0.5000 
     20 C          -0.3253  -22.4646  -45.1601 C.2       10 UNK         0.5000 
     21 O          -0.1597  -23.6740  -45.3146 O.2       10 UNK        -0.5000 
     22 CA         -0.2199  -21.8493  -43.7515 C.3       10 UNK         0.1400 
     23 CB          1.2169  -21.4087  -43.4420 C.3       10 UNK        -0.1800 
     24 N          -1.1376  -20.7197  -43.5724 N.am      10 UNK        -0.5000 
     25 C          -2.4682  -20.8699  -43.4956 C.2       9 UNK         0.5000 
     26 O          -3.0282  -21.9669  -43.5278 O.2       9 UNK        -0.5000 
     27 CA         -3.3161  -19.5884  -43.4251 C.3       9 UNK         0.1400 
     28 CB         -3.3191  -19.0174  -41.9995 C.3       9 UNK        -0.1800 
     29 N          -2.8794  -18.5489  -44.3574 N.am      9 UNK        -0.5000 
     30 C          -2.8564  -18.6403  -45.6927 C.2       8 UNK         0.5000 
     31 O          -3.1815  -19.6601  -46.2956 O.2       8 UNK        -0.5000 
     32 CA         -2.3666  -17.4213  -46.5062 C.3       8 UNK         0.1400 
     33 CB         -3.5511  -16.5899  -47.0291 C.3       8 UNK        -0.1800 
     34 N          -1.3797  -16.5744  -45.8246 N.am      8 UNK        -0.5000 
     35 C          -1.5084  -15.8443  -44.7069 C.2       7 UNK         0.5000 
     36 O          -2.5644  -15.7256  -44.0840 O.2       7 UNK        -0.5000 
     37 CA         -0.2217  -15.1846  -44.1710 C.3       7 UNK         0.1400 
     38 CB         -0.2744  -14.9100  -42.6545 C.3       7 UNK        -0.1800 
     39 N           1.0081  -15.9146  -44.5086 N.am      7 UNK        -0.5000 
     40 C           1.3083  -17.1914  -44.2272 C.2       6 UNK         0.5000 
     41 O           0.5361  -17.9658  -43.6561 O.2       6 UNK        -0.5000 
     42 CA          2.6904  -17.7198  -44.6626 C.3       6 UNK         0.1400 
     43 CB          2.5774  -18.5052  -45.9812 C.3       6 UNK        -0.1800 
     44 N           3.7744  -16.7299  -44.7373 N.am      6 UNK        -0.5000 
     45 C           3.9477  -15.7154  -45.5944 C.2       5 UNK         0.5000 
     46 O           3.1193  -15.3994  -46.4490 O.2       5 UNK        -0.5000 
     47 CA          5.2742  -14.9305  -45.4676 C.3       5 UNK         0.1400 
     48 CB          5.3446  -13.7181  -46.4141 C.3       5 UNK        -0.1800 
     49 N           5.5509  -14.4651  -44.1066 N.am      5 UNK        -0.5000 
     50 C           5.9760  -15.2058  -43.0735 C.2       4 UNK         0.5000 
     51 O           6.1559  -16.4224  -43.1422 O.2       4 UNK        -0.5000 
     52 CA          6.2432  -14.4732  -41.7412 C.3       4 UNK         0.1400 
     53 CB          7.7542  -14.3140  -41.5114 C.3       4 UNK        -0.1800 
     54 N           5.6132  -13.1514  -41.6696 N.am      4 UNK        -0.5000 
     55 C           4.3000  -12.9442  -41.5089 C.2       3 UNK         0.5000 
     56 O           3.4894  -13.8569  -41.3365 O.2       3 UNK        -0.5000 
     57 CA          3.7942  -11.4928  -41.5894 C.3       3 UNK         0.1400 
     58 CB          4.8319  -10.4800  -42.1223 C.3       3 UNK        -0.1800 
     59 N           2.6184  -11.5009  -42.4467 N.am      3 UNK        -0.5000 
     60 C           1.6173  -10.6215  -42.4586 C.2       2 UNK         0.5000 
     61 O           1.5863   -9.6125  -41.7515 O.2       2 UNK        -0.5000 
     62 CA          0.4617  -10.9391  -43.4334 C.3       2 UNK         0.1400 
     63 CB         -0.6848   -9.9160  -43.3502 C.3       2 UNK        -0.1800 
     64 N           0.8918  -11.0399  -44.8304 N.am      2 UNK        -0.5000 
     65 C           1.5970  -12.0311  -45.3911 C.2       1 UNK         0.5000 
     66 O           2.0691  -12.9730  -44.7544 O.2       1 UNK        -0.5000 
     67 C          -2.2571  -22.7812  -47.6721 C.2       11 UNK         0.5000 
     68 O          -2.3757  -23.6493  -48.5335 O.2       11 UNK        -0.5000 
     69 N          -3.2450  -22.4489  -46.8311 N.am      12 UNK        -0.5000 
     70 CA         -4.5233  -23.1536  -46.7371 C.3       12 UNK         0.1400 
     71 CB         -5.5394  -22.3026  -45.9619 C.3       12 UNK        -0.1800 
     72 C          -4.3536  -24.5429  -46.1043 C.2       12 UNK         0.5000 
     73 O          -4.9500  -25.5016  -46.5926 O.2       12 UNK        -0.5000 
     74 N          -3.4895  -24.6432  -45.0831 N.am      13 UNK        -0.5000 
     75 CA         -3.0791  -25.9087  -44.4672 C.3       13 UNK         0.1400 
     76 CB         -2.2664  -25.6230  -43.1955 C.3       13 UNK        -0.1800 
     77 C          -2.2933  -26.8151  -45.4381 C.2       13 UNK         0.5000 
     78 O          -2.4821  -28.0315  -45.4225 O.2       13 UNK        -0.5000 
     79 N          -1.4672  -26.2022  -46.2982 N.am      14 UNK        -0.5000 
     80 CA         -0.7452  -26.8586  -47.3937 C.3       14 UNK         0.1400 
     81 CB          0.4464  -25.9751  -47.7956 C.3       14 UNK        -0.1800 
     82 C          -1.6270  -27.1616  -48.6268 C.2       14 UNK         0.5000 
     83 O          -1.1473  -27.8019  -49.5623 O.2       14 UNK        -0.5000 
     84 N          -2.8785  -26.6802  -48.6179 N.am      15 UNK        -0.5000 
     85 CA         -3.9216  -26.7895  -49.6440 C.3       15 UNK         0.1400 
     86 CB         -4.2336  -28.2593  -49.9879 C.3       15 UNK        -0.1800 
     87 C          -3.6947  -25.9330  -50.9080 C.2       15 UNK         0.5000 
     88 O          -4.5406  -25.9533  -51.8018 O.2       15 UNK        -0.5000 
     89 N          -2.6143  -25.1445  -50.9529 N.am      16 UNK        -0.5000 
     90 CA         -2.2878  -24.2220  -52.0420 C.3       16 UNK         0.1400 
     91 CB         -0.8501  -23.7119  -51.8632 C.3       16 UNK        -0.1800 
     92 C          -3.2700  -23.0416  -52.1370 C.2       16 UNK         0.5000 
     93 O          -3.6226  -22.6326  -53.2449 O.2       16 UNK        -0.5000 
     94 N          -3.7134  -22.5298  -50.9797 N.am      17 UNK        -0.5000 
     95 CA         -4.7412  -21.4869  -50.9044 C.3       17 UNK         0.1400 
     96 CB         -4.5294  -20.6086  -49.6636 C.3       17 UNK        -0.1800 
     97 C          -6.1656  -22.0679  -50.9330 C.2       17 UNK         0.5000 
     98 O          -7.0901  -21.3568  -51.3229 O.2       17 UNK        -0.5000 
     99 N          -6.3230  -23.3506  -50.5699 N.am      18 UNK        -0.5000 
    100 CA        -7.5901  -24.0835  -50.6722 C.3       18 UNK         0.1400 
    101 CB        -7.5205  -25.3739  -49.8419 C.3       18 UNK        -0.1800 
    102 C         -7.9465  -24.3899  -52.1391 C.2       18 UNK         0.5000 
    103 O         -9.1048  -24.2479  -52.5308 O.2       18 UNK        -0.5000 
    104 N         -6.9264  -24.7434  -52.9348 N.am      19 UNK        -0.5000 
    105 CA        -6.9948  -24.8741  -54.3923 C.3       19 UNK         0.1400 
    106 CB        -5.7621  -25.6589  -54.8689 C.3       19 UNK        -0.1800 
    107 C         -7.0719  -23.5153  -55.1213 C.2       19 UNK         0.5000 
    108 O         -7.3591  -23.4911  -56.3184 O.2       19 UNK        -0.5000 
    109 N         -6.7973  -22.4225  -54.3922 N.am      20 UNK        -0.5000 
    110 CA        -6.7472  -21.0260  -54.8351 C.3       20 UNK         0.1400 
    111 CB        -8.1374  -20.5418  -55.2963 C.3       20 UNK        -0.1800 
    112 C         -5.6348  -20.7578  -55.8695 C.2       20 UNK         0.5000 
    113 O         -5.7776  -19.8713  -56.7137 O.2       20 UNK        -0.5000 
    114 N         -4.5383  -21.5219  -55.7776 N.am      21 UNK        -0.5000 
    115 CA        -3.3297  -21.3301  -56.5737 C.3       21 UNK         0.1400 
    116 CB        -2.5267  -22.6408  -56.6113 C.3       21 UNK        -0.1800 
    117 C         -2.4929  -20.1764  -55.9987 C.2       21 UNK         0.5000 
    118 O         -2.1122  -19.2712  -56.7425 O.2       21 UNK        -0.5000 
    119 N         -2.2758  -20.2195  -54.6761 N.am      22 UNK        -0.5000 
    120 CA        -1.5581  -19.2174  -53.8696 C.3       22 UNK         0.1400 
    121 C         -0.0731  -18.9737  -54.2899 C.2       22 UNK         0.5000 
    122 N          0.5984  -17.9807  -53.7205 N.am      22 UNK        -0.7600 
    123 O          0.5109  -19.7147  -55.0776 O.2       22 UNK        -0.5000 
    124 C124       -2.3984  -17.9142  -53.6954 C.3       23 UNK        -0.0398 
    125 S125       -3.8293  -18.2088  -52.5941 S.3       23 UNK        -0.2404 
    126 C126       -3.5702  -17.0480  -51.1984 C.3       23 UNK        -0.0205 
    127 H127        4.2273   -8.9173  -47.9655 H         1 UNK         0.0600 
    128 H128        3.4577   -7.7575  -46.8788 H         1 UNK         0.0600 
    129 H129        2.9165   -7.8916  -48.5553 H         1 UNK         0.0600 
    130 H130        3.5746  -10.9857  -47.5639 H         1 UNK         0.3000 
    131 H131        2.4570  -12.8023  -47.1784 H         1 UNK         0.0600 
    132 H132        0.6744  -11.7645  -48.7508 H         1 UNK         0.0800 
    133 H133       -0.2734  -11.4445  -47.3354 H         1 UNK         0.0800 
    134 H134        1.3803  -14.3012  -49.5751 H         1 UNK         0.0800 
    135 H135       -0.0817  -13.5424  -50.1624 H         1 UNK         0.0800 
    136 H136       -2.2057  -14.8531  -50.3629 H         1 UNK         0.1150 
    137 H137       -1.7658  -19.0935  -50.7942 H         1 UNK         0.1150 
    138 H138        1.5265  -16.7278  -49.4121 H         1 UNK         0.1150 
    139 H139        1.8899  -18.9870  -50.3467 H         1 UNK         0.0800 
    140 H140        0.5624  -19.9610  -50.9147 H         1 UNK         0.0800 
    141 H141       -1.0476  -21.2084  -49.5415 H         1 UNK         0.0800 
    142 H142       -1.5485  -20.0950  -48.2896 H         1 UNK         0.0800 
    143 H143       -0.1359  -22.7621  -47.8113 H         1 UNK         0.0600 
    144 H144       -0.8033  -20.6573  -45.9407 H         1 UNK         0.3000 
    145 H145       -0.4902  -22.6272  -43.0341 H         1 UNK         0.0600 
    146 H146        1.5514  -20.6220  -44.1144 H         1 UNK         0.0600 
    147 H147        1.9113  -22.2439  -43.5423 H         1 UNK         0.0600 
    148 H148        1.3027  -21.0340  -42.4220 H         1 UNK         0.0600 
    149 H149       -0.7352  -19.7890  -43.5449 H         1 UNK         0.3000 
    150 H150       -4.3411  -19.8571  -43.6884 H         1 UNK         0.0600 
    151 H151       -2.3249  -18.6855  -41.6972 H         1 UNK         0.0600 
    152 H152       -3.6512  -19.7655  -41.2785 H         1 UNK         0.0600 
    153 H153       -3.9946  -18.1655  -41.9184 H         1 UNK         0.0600 
    154 H154       -2.6397  -17.6478  -43.9573 H         1 UNK         0.3000 
    155 H155       -1.8459  -17.8229  -47.3768 H         1 UNK         0.0600 
    156 H156       -4.1446  -16.1690  -46.2173 H         1 UNK         0.0600 
    157 H157       -4.2168  -17.2045  -47.6365 H         1 UNK         0.0600 
    158 H158       -3.2063  -15.7676  -47.6562 H         1 UNK         0.0600 
    159 H159       -0.4564  -16.5933  -46.2345 H         1 UNK         0.3000 
    160 H160       -0.1686  -14.2237  -44.6784 H         1 UNK         0.0600 
    161 H161       -0.3892  -15.8311  -42.0823 H         1 UNK         0.0600 
    162 H162       -1.1104  -14.2577  -42.4002 H         1 UNK         0.0600 
    163 H163        0.6361  -14.4153  -42.3149 H         1 UNK         0.0600 
    164 H164        1.6982  -15.3820  -45.0311 H         1 UNK         0.3000 
    165 H165        2.9978  -18.4251  -43.8890 H         1 UNK         0.0600 
    166 H166        1.8243  -19.2879  -45.9052 H         1 UNK         0.0600 
    167 H167        2.2861  -17.8670  -46.8159 H         1 UNK         0.0600 
    168 H168        3.5206  -18.9864  -46.2392 H         1 UNK         0.0600 
    169 H169        4.5201  -16.8612  -44.0592 H         1 UNK         0.3000 
    170 H170        6.0686  -15.6198  -45.7606 H         1 UNK         0.0600 
    171 H171        6.3348  -13.2626  -46.3944 H         1 UNK         0.0600 
    172 H172        5.1445  -14.0071  -47.4467 H         1 UNK         0.0600 
    173 H173        4.6210  -12.9526  -46.1357 H         1 UNK         0.0600 
    174 H174        5.3978  -13.4824  -43.9402 H         1 UNK         0.3000 
    175 H175        5.8401  -15.0952  -40.9391 H         1 UNK         0.0600 
    176 H176        8.2563  -15.2824  -41.5250 H         1 UNK         0.0600 
    177 H177        8.2157  -13.6943  -42.2813 H         1 UNK         0.0600 
    178 H178        7.9602  -13.8572  -40.5432 H         1 UNK         0.0600 
    179 H179        6.2188  -12.3538  -41.8008 H         1 UNK         0.3000 
    180 H180        3.4972  -11.2006  -40.5803 H         1 UNK         0.0600 
    181 H181        5.1725  -10.7393  -43.1256 H         1 UNK         0.0600 
    182 H182        5.7045  -10.4230  -41.4708 H         1 UNK         0.0600 
    183 H183        4.4110   -9.4755  -42.1696 H         1 UNK         0.0600 
    184 H184        2.5422  -12.3003  -43.0731 H         1 UNK         0.3000 
    185 H185        0.0571  -11.9082  -43.1358 H         1 UNK         0.0600 
    186 H186       -1.0695   -9.8382  -42.3325 H         1 UNK         0.0600 
    187 H187       -0.3584   -8.9216  -43.6575 H         1 UNK         0.0600 
    188 H188       -1.5192  -10.2067  -43.9888 H         1 UNK         0.0600 
    189 H189        0.6464  -10.2595  -45.4327 H         1 UNK         0.3000 
    190 H190       -3.1218  -21.6403  -46.2309 H         1 UNK         0.3000 
    191 H191       -4.9109  -23.2995  -47.7474 H         1 UNK         0.0600 
    192 H192       -5.6631  -21.3206  -46.4189 H         1 UNK         0.0600 
    193 H193       -6.5185  -22.7828  -45.9510 H         1 UNK         0.0600 
    194 H194       -5.2387  -22.1517  -44.9258 H         1 UNK         0.0600 
    195 H195       -3.0757  -23.7950  -44.7138 H         1 UNK         0.3000 
    196 H196       -3.9847  -26.4446  -44.1752 H         1 UNK         0.0600 
    197 H197       -2.0058  -26.5506  -42.6845 H         1 UNK         0.0600 
    198 H198       -2.8344  -25.0125  -42.4932 H         1 UNK         0.0600 
    199 H199       -1.3366  -25.0999  -43.4165 H         1 UNK         0.0600 
    200 H200       -1.3030  -25.2089  -46.1808 H         1 UNK         0.3000 
    201 H201       -0.3546  -27.8109  -47.0296 H         1 UNK         0.0600 
    202 H202        1.0756  -26.4774  -48.5313 H         1 UNK         0.0600 
    203 H203        1.0758  -25.7416  -46.9366 H         1 UNK         0.0600 
    204 H204        0.1165  -25.0355  -48.2373 H         1 UNK         0.0600 
    205 H205       -3.1565  -26.1544  -47.7996 H         1 UNK         0.3000 
    206 H206       -4.8125  -26.3777  -49.1718 H         1 UNK         0.0600 
    207 H207       -4.4211  -28.8439  -49.0872 H         1 UNK         0.0600 
    208 H208       -5.1251  -28.3326  -50.6120 H         1 UNK         0.0600 
    209 H209       -3.4177  -28.7325  -50.5343 H         1 UNK         0.0600 
    210 H210       -2.0315  -25.1001  -50.1274 H         1 UNK         0.3000 
    211 H211       -2.3425  -24.7730  -52.9833 H         1 UNK         0.0600 
    212 H212       -0.1357  -24.5345  -51.8999 H         1 UNK         0.0600 
    213 H213       -0.5803  -23.0118  -52.6553 H         1 UNK         0.0600 
    214 H214       -0.7181  -23.1994  -50.9101 H         1 UNK         0.0600 
    215 H215       -3.3604  -22.9180  -50.1111 H         1 UNK         0.3000 
    216 H216       -4.6486  -20.8400  -51.7776 H         1 UNK         0.0600 
    217 H217       -4.7006  -21.1561  -48.7407 H         1 UNK         0.0600 
    218 H218       -5.2196  -19.7641  -49.6674 H         1 UNK         0.0600 
    219 H219       -3.5229  -20.1966  -49.6344 H         1 UNK         0.0600 
    220 H220       -5.5096  -23.8778  -50.2958 H         1 UNK         0.3000 
    221 H221       -8.3808  -23.4564  -50.2544 H         1 UNK         0.0600 
    222 H222       -6.8476  -26.1065  -50.2863 H         1 UNK         0.0600 
    223 H223       -7.1868  -25.1769  -48.8227 H         1 UNK         0.0600 
    224 H224       -8.5037  -25.8411  -49.7773 H         1 UNK         0.0600 
    225 H225       -6.0210  -24.9352  -52.5153 H         1 UNK         0.3000 
    226 H226       -7.8905  -25.4421  -54.6513 H         1 UNK         0.0600 
    227 H227       -5.7161  -26.6427  -54.4015 H         1 UNK         0.0600 
    228 H228       -5.7862  -25.8129  -55.9484 H         1 UNK         0.0600 
    229 H229       -4.8359  -25.1329  -54.6320 H         1 UNK         0.0600 
    230 H230       -6.5845  -22.5702  -53.4169 H         1 UNK         0.3000 
    231 H231       -6.4758  -20.4422  -53.9543 H         1 UNK         0.0600 
    232 H232       -8.4507  -21.0268  -56.2211 H         1 UNK         0.0600 
    233 H233       -8.1369  -19.4661  -55.4759 H         1 UNK         0.0600 
    234 H234       -8.8945  -20.7419  -54.5379 H         1 UNK         0.0600 
    235 H235       -4.4708  -22.1784  -55.0072 H         1 UNK         0.3000 
    236 H236       -3.6106  -21.0754  -57.5980 H         1 UNK         0.0600 
    237 H237       -2.2209  -22.9620  -55.6150 H         1 UNK         0.0600 
    238 H238       -3.1116  -23.4463  -57.0559 H         1 UNK         0.0600 
    239 H239       -1.6227  -22.5250  -57.2103 H         1 UNK         0.0600 
    240 H240       -2.6525  -21.0079  -54.1640 H         1 UNK         0.3000 
    241 H241       -1.4585  -19.6950  -52.8969 H         1 UNK         0.0600 
    242 H242        1.5629  -17.8414  -53.9785 H         1 UNK         0.3800 
    243 H243        0.1823  -17.3791  -53.0277 H         1 UNK         0.3800 
    244 H244       -2.7644  -17.5596  -54.6595 H         1 UNK         0.0800 
    245 H245       -1.8107  -17.0902  -53.2942 H         1 UNK         0.0800 
    246 H246       -4.2416  -17.3260  -50.3853 H         1 UNK         0.0800 
    247 H247       -3.8853  -16.0576  -51.5302 H         1 UNK         0.0800 
@<TRIPOS>BOND
     1    1    2 1    
     2    1  127 1    
     3    1  128 1    
     4    1  129 1    
     5    2    3 2    
     6    2    4 am   BACKBONE|DICT|INTERRES
     7    4    5 1    
     8    4  130 1    
     9    5    6 1    
    10    5   65 1    
    11    5  131 1    
    12    6    7 1    
    13    6  132 1    
    14    6  133 1    
    15    7    8 1    
    16    8    9 1    
    17    8  134 1    
    18    8  135 1    
    19    9   10 ar   
    20    9   14 ar   
    21   10   11 ar   
    22   10  136 1    
    23   11   12 ar   
    24   11  126 1    
    25   12   13 ar   
    26   12  137 1    
    27   13   14 ar   
    28   13   15 1    
    29   14  138 1    
    30   15   16 1    
    31   15  139 1    
    32   15  140 1    
    33   16   17 1    
    34   17   18 1    
    35   17  141 1    
    36   17  142 1    
    37   18   19 1    
    38   18   67 1    
    39   18  143 1    
    40   19   20 am   BACKBONE|DICT|INTERRES
    41   19  144 1    
    42   20   21 2    
    43   20   22 1    
    44   22   23 1    
    45   22   24 1    
    46   22  145 1    
    47   23  146 1    
    48   23  147 1    
    49   23  148 1    
    50   24   25 am   BACKBONE|DICT|INTERRES
    51   24  149 1    
    52   25   26 2    
    53   25   27 1    
    54   27   28 1    
    55   27   29 1    
    56   27  150 1    
    57   28  151 1    
    58   28  152 1    
    59   28  153 1    
    60   29   30 am   BACKBONE|DICT|INTERRES
    61   29  154 1    
    62   30   31 2    
    63   30   32 1    
    64   32   33 1    
    65   32   34 1    
    66   32  155 1    
    67   33  156 1    
    68   33  157 1    
    69   33  158 1    
    70   34   35 am   BACKBONE|DICT|INTERRES
    71   34  159 1    
    72   35   36 2    
    73   35   37 1    
    74   37   38 1    
    75   37   39 1    
    76   37  160 1    
    77   38  161 1    
    78   38  162 1    
    79   38  163 1    
    80   39   40 am   BACKBONE|DICT|INTERRES
    81   39  164 1    
    82   40   41 2    
    83   40   42 1    
    84   42   43 1    
    85   42   44 1    
    86   42  165 1    
    87   43  166 1    
    88   43  167 1    
    89   43  168 1    
    90   44   45 am   BACKBONE|DICT|INTERRES
    91   44  169 1    
    92   45   46 2    
    93   45   47 1    
    94   47   48 1    
    95   47   49 1    
    96   47  170 1    
    97   48  171 1    
    98   48  172 1    
    99   48  173 1    
   100   49   50 am   BACKBONE|DICT|INTERRES
   101   49  174 1    
   102   50   51 2    
   103   50   52 1    
   104   52   53 1    
   105   52   54 1    
   106   52  175 1    
   107   53  176 1    
   108   53  177 1    
   109   53  178 1    
   110   54   55 am   BACKBONE|DICT|INTERRES
   111   54  179 1    
   112   55   56 2    
   113   55   57 1    
   114   57   58 1    
   115   57   59 1    
   116   57  180 1    
   117   58  181 1    
   118   58  182 1    
   119   58  183 1    
   120   59   60 am   BACKBONE|DICT|INTERRES
   121   59  184 1    
   122   60   61 2    
   123   60   62 1    
   124   62   63 1    
   125   62   64 1    
   126   62  185 1    
   127   63  186 1    
   128   63  187 1    
   129   63  188 1    
   130   64   65 am   BACKBONE|DICT|INTERRES
   131   64  189 1    
   132   65   66 2    
   133   67   68 2    
   134   67   69 am   BACKBONE|DICT|INTERRES
   135   69   70 1    
   136   69  190 1    
   137   70   71 1    
   138   70   72 1    
   139   70  191 1    
   140   71  192 1    
   141   71  193 1    
   142   71  194 1    
   143   72   73 2    
   144   72   74 am   BACKBONE|DICT|INTERRES
   145   74   75 1    
   146   74  195 1    
   147   75   76 1    
   148   75   77 1    
   149   75  196 1    
   150   76  197 1    
   151   76  198 1    
   152   76  199 1    
   153   77   78 2    
   154   77   79 am   BACKBONE|DICT|INTERRES
   155   79   80 1    
   156   79  200 1    
   157   80   81 1    
   158   80   82 1    
   159   80  201 1    
   160   81  202 1    
   161   81  203 1    
   162   81  204 1    
   163   82   83 2    
   164   82   84 am   BACKBONE|DICT|INTERRES
   165   84   85 1    
   166   84  205 1    
   167   85   86 1    
   168   85   87 1    
   169   85  206 1    
   170   86  207 1    
   171   86  208 1    
   172   86  209 1    
   173   87   88 2    
   174   87   89 am   BACKBONE|DICT|INTERRES
   175   89   90 1    
   176   89  210 1    
   177   90   91 1    
   178   90   92 1    
   179   90  211 1    
   180   91  212 1    
   181   91  213 1    
   182   91  214 1    
   183   92   93 2    
   184   92   94 am   BACKBONE|DICT|INTERRES
   185   94   95 1    
   186   94  215 1    
   187   95   96 1    
   188   95   97 1    
   189   95  216 1    
   190   96  217 1    
   191   96  218 1    
   192   96  219 1    
   193   97   98 2    
   194   97   99 am   BACKBONE|DICT|INTERRES
   195   99  100 1    
   196   99  220 1    
   197  100  101 1    
   198  100  102 1    
   199  100  221 1    
   200  101  222 1    
   201  101  223 1    
   202  101  224 1    
   203  102  103 2    
   204  102  104 am   BACKBONE|DICT|INTERRES
   205  104  105 1    
   206  104  225 1    
   207  105  106 1    
   208  105  107 1    
   209  105  226 1    
   210  106  227 1    
   211  106  228 1    
   212  106  229 1    
   213  107  108 2    
   214  107  109 am   BACKBONE|DICT|INTERRES
   215  109  110 1    
   216  109  230 1    
   217  110  111 1    
   218  110  112 1    
   219  110  231 1    
   220  111  232 1    
   221  111  233 1    
   222  111  234 1    
   223  112  113 2    
   224  112  114 am   BACKBONE|DICT|INTERRES
   225  114  115 1    
   226  114  235 1    
   227  115  116 1    
   228  115  117 1    
   229  115  236 1    
   230  116  237 1    
   231  116  238 1    
   232  116  239 1    
   233  117  118 2    
   234  117  119 am   BACKBONE|DICT|INTERRES
   235  119  120 1    
   236  119  240 1    
   237  120  121 1    
   238  120  124 1    
   239  120  241 1    
   240  121  122 am   BACKBONE|DICT|INTERRES
   241  121  123 2    
   242  122  242 1    
   243  122  243 1    
   244  124  125 1    
   245  124  244 1    
   246  124  245 1    
   247  125  126 1    
   248  126  246 1    
   249  126  247 1    
@<TRIPOS>SUBSTRUCTURE
     1 UNK         1 GROUP             0       ****    0 ROOT    
