@<TRIPOS>MOLECULE
3R540
247   249    1
SMALL
USER_CHARGES


@<TRIPOS>ATOM
      1 CA          4.8662  -14.1161  -44.4686 C.3       0 UNK        -0.1800 
      2 C           3.4763  -14.2306  -45.0767 C.2       0 UNK         0.5000 
      3 O           2.7515  -15.1788  -44.7700 O.2       0 UNK        -0.5000 
      4 N           3.1161  -13.2800  -45.9443 N.am      1 UNK        -0.5000 
      5 CA          1.8150  -13.2036  -46.6228 C.3       1 UNK         0.1400 
      6 C6          1.9712  -13.0819  -48.1607 C.3       23 UNK        -0.0398 
      7 S7          2.8842  -14.4741  -48.9114 S.3       23 UNK        -0.2404 
      8 C8          1.6517  -15.8036  -48.7734 C.3       23 UNK        -0.0205 
      9 C9          1.6977  -16.7392  -49.9681 C.ar      23 UNK        -0.0193 
     10 C10         1.0518  -16.3791  -51.1536 C.ar      23 UNK        -0.1150 
     11 C11         1.0524  -17.2399  -52.2540 C.ar      23 UNK        -0.0193 
     12 C12         1.7141  -18.4679  -52.1638 C.ar      23 UNK        -0.1150 
     13 C13         2.3695  -18.8374  -50.9843 C.ar      23 UNK        -0.0193 
     14 C14         2.3596  -17.9679  -49.8885 C.ar      23 UNK        -0.1150 
     15 C15         3.1041  -20.1677  -50.9102 C.3       23 UNK        -0.0205 
     16 S16         1.9779  -21.5510  -50.5493 S.3       23 UNK        -0.2404 
     17 C17         1.8160  -21.4124  -48.7382 C.3       23 UNK        -0.0398 
     18 CA          0.6245  -22.2325  -48.1725 C.3       11 UNK         0.1400 
     19 N           0.7084  -22.3749  -46.7244 N.am      11 UNK        -0.5000 
     20 C           1.4651  -23.2796  -46.0901 C.2       10 UNK         0.5000 
     21 O           2.0840  -24.1690  -46.6764 O.2       10 UNK        -0.5000 
     22 CA          1.5835  -23.1706  -44.5559 C.3       10 UNK         0.1400 
     23 CB          3.0569  -23.1910  -44.1127 C.3       10 UNK        -0.1800 
     24 N           0.9776  -21.9390  -44.0543 N.am      10 UNK        -0.5000 
     25 C          -0.1363  -21.8612  -43.3165 C.2       9 UNK         0.5000 
     26 O          -0.7620  -22.8435  -42.9180 O.2       9 UNK        -0.5000 
     27 CA         -0.6508  -20.4496  -42.9649 C.3       9 UNK         0.1400 
     28 CB         -0.3888  -20.1379  -41.4839 C.3       9 UNK        -0.1800 
     29 N          -0.0849  -19.3780  -43.7933 N.am      9 UNK        -0.5000 
     30 C          -0.3145  -19.2371  -45.1058 C.2       8 UNK         0.5000 
     31 O          -1.0079  -20.0163  -45.7588 O.2       8 UNK        -0.5000 
     32 CA          0.3905  -18.0830  -45.8375 C.3       8 UNK         0.1400 
     33 CB         -0.4011  -16.7758  -45.6919 C.3       8 UNK        -0.1800 
     34 N           1.7830  -17.8760  -45.4346 N.am      8 UNK        -0.5000 
     35 C           2.7524  -18.8004  -45.5229 C.2       7 UNK         0.5000 
     36 O           2.5615  -19.9590  -45.8880 O.2       7 UNK        -0.5000 
     37 CA          4.1687  -18.3656  -45.1268 C.3       7 UNK         0.1400 
     38 CB          4.8233  -17.5668  -46.2656 C.3       7 UNK        -0.1800 
     39 N           4.1293  -17.5637  -43.9057 N.am      7 UNK        -0.5000 
     40 C           4.3805  -18.0439  -42.6815 C.2       6 UNK         0.5000 
     41 O           4.7799  -19.1883  -42.4625 O.2       6 UNK        -0.5000 
     42 CA          4.1352  -17.0977  -41.4899 C.3       6 UNK         0.1400 
     43 CB          5.4214  -16.3392  -41.1292 C.3       6 UNK        -0.1800 
     44 N           3.0508  -16.1324  -41.6837 N.am      6 UNK        -0.5000 
     45 C           1.7641  -16.4287  -41.9036 C.2       5 UNK         0.5000 
     46 O           1.3627  -17.5790  -42.0788 O.2       5 UNK        -0.5000 
     47 CA          0.7588  -15.2536  -41.9237 C.3       5 UNK         0.1400 
     48 CB         -0.7017  -15.7346  -41.8145 C.3       5 UNK        -0.1800 
     49 N           0.9761  -14.2583  -40.8698 N.am      5 UNK        -0.5000 
     50 C           1.9512  -13.3448  -40.8115 C.2       4 UNK         0.5000 
     51 O           2.8808  -13.2835  -41.6178 O.2       4 UNK        -0.5000 
     52 CA          1.8142  -12.2861  -39.7007 C.3       4 UNK         0.1400 
     53 CB          3.1513  -11.5968  -39.3775 C.3       4 UNK        -0.1800 
     54 N           0.8561  -11.2778  -40.1433 N.am      4 UNK        -0.5000 
     55 C          -0.4771  -11.4165  -40.1177 C.2       3 UNK         0.5000 
     56 O          -1.0614  -12.3029  -39.4931 O.2       3 UNK        -0.5000 
     57 CA         -1.2816  -10.4402  -41.0011 C.3       3 UNK         0.1400 
     58 CB         -1.6669   -9.1821  -40.2086 C.3       3 UNK        -0.1800 
     59 N          -0.5544  -10.0470  -42.2152 N.am      3 UNK        -0.5000 
     60 C          -0.1668  -10.8928  -43.1828 C.2       2 UNK         0.5000 
     61 O          -0.4886  -12.0832  -43.2051 O.2       2 UNK        -0.5000 
     62 CA          0.7564  -10.3136  -44.2774 C.3       2 UNK         0.1400 
     63 CB          1.8300   -9.3725  -43.6958 C.3       2 UNK        -0.1800 
     64 N           1.4425  -11.3789  -45.0073 N.am      2 UNK        -0.5000 
     65 C           0.9516  -12.0529  -46.0560 C.2       1 UNK         0.5000 
     66 O          -0.1326  -11.7926  -46.5803 O.2       1 UNK        -0.5000 
     67 C          -0.7752  -21.6961  -48.5190 C.2       11 UNK         0.5000 
     68 O          -1.7419  -22.4482  -48.4036 O.2       11 UNK        -0.5000 
     69 N          -0.8686  -20.4266  -48.9350 N.am      12 UNK        -0.5000 
     70 CA         -2.0480  -19.7901  -49.5217 C.3       12 UNK         0.1400 
     71 CB         -1.7222  -18.3175  -49.7993 C.3       12 UNK        -0.1800 
     72 C          -3.3650  -19.8987  -48.7321 C.2       12 UNK         0.5000 
     73 O          -4.4175  -20.0739  -49.3483 O.2       12 UNK        -0.5000 
     74 N          -3.2969  -19.7949  -47.3998 N.am      13 UNK        -0.5000 
     75 CA         -4.4640  -19.8763  -46.5203 C.3       13 UNK         0.1400 
     76 CB         -4.1765  -19.1176  -45.2155 C.3       13 UNK        -0.1800 
     77 C          -4.8694  -21.3306  -46.2245 C.2       13 UNK         0.5000 
     78 O          -6.0428  -21.5845  -45.9516 O.2       13 UNK        -0.5000 
     79 N          -3.9031  -22.2564  -46.2889 N.am      14 UNK        -0.5000 
     80 CA         -4.1228  -23.6906  -46.1155 C.3       14 UNK         0.1400 
     81 CB         -2.8092  -24.3634  -45.6855 C.3       14 UNK        -0.1800 
     82 C          -4.6765  -24.3278  -47.4005 C.2       14 UNK         0.5000 
     83 O          -5.6200  -25.1162  -47.3332 O.2       14 UNK        -0.5000 
     84 N          -4.0860  -23.9635  -48.5467 N.am      15 UNK        -0.5000 
     85 CA         -4.4807  -24.4352  -49.8726 C.3       15 UNK         0.1400 
     86 CB         -3.3211  -24.2189  -50.8521 C.3       15 UNK        -0.1800 
     87 C          -5.7651  -23.7698  -50.3964 C.2       15 UNK         0.5000 
     88 O          -6.4708  -24.3804  -51.2032 O.2       15 UNK        -0.5000 
     89 N          -6.0365  -22.5403  -49.9309 N.am      16 UNK        -0.5000 
     90 CA         -7.2654  -21.7562  -50.1030 C.3       16 UNK         0.1400 
     91 CB         -8.4045  -22.4012  -49.2875 C.3       16 UNK        -0.1800 
     92 C          -7.6705  -21.4963  -51.5702 C.2       16 UNK         0.5000 
     93 O          -8.8558  -21.3087  -51.8499 O.2       16 UNK        -0.5000 
     94 N          -6.6869  -21.5169  -52.4826 N.am      17 UNK        -0.5000 
     95 CA         -6.8273  -21.4478  -53.9420 C.3       17 UNK         0.1400 
     96 CB         -7.3541  -20.0669  -54.3833 C.3       17 UNK        -0.1800 
     97 C          -7.6304  -22.6248  -54.5435 C.2       17 UNK         0.5000 
     98 O          -8.1642  -22.4987  -55.6474 O.2       17 UNK        -0.5000 
     99 N          -7.7001  -23.7452  -53.8112 N.am      18 UNK        -0.5000 
    100 CA        -8.3873  -24.9719  -54.2030 C.3       18 UNK         0.1400 
    101 CB        -9.4106  -25.3459  -53.1183 C.3       18 UNK        -0.1800 
    102 C         -7.3742  -26.1053  -54.4145 C.2       18 UNK         0.5000 
    103 O         -7.4244  -26.7775  -55.4452 O.2       18 UNK        -0.5000 
    104 N         -6.4617  -26.2897  -53.4493 N.am      19 UNK        -0.5000 
    105 CA        -5.4158  -27.3176  -53.4931 C.3       19 UNK         0.1400 
    106 CB        -5.0873  -27.7550  -52.0581 C.3       19 UNK        -0.1800 
    107 C         -4.1388  -26.8472  -54.2184 C.2       19 UNK         0.5000 
    108 O         -3.2594  -27.6671  -54.4859 O.2       19 UNK        -0.5000 
    109 N         -4.0505  -25.5473  -54.5156 N.am      20 UNK        -0.5000 
    110 CA        -2.9550  -24.8935  -55.2212 C.3       20 UNK         0.1400 
    111 CB        -1.8457  -24.5062  -54.2237 C.3       20 UNK        -0.1800 
    112 C         -3.5141  -23.6609  -55.9465 C.2       20 UNK         0.5000 
    113 O         -4.7016  -23.3556  -55.8177 O.2       20 UNK        -0.5000 
    114 N         -2.6451  -22.9587  -56.6822 N.am      21 UNK        -0.5000 
    115 CA        -2.9740  -21.7297  -57.4111 C.3       21 UNK         0.1400 
    116 CB        -1.8741  -21.4708  -58.4535 C.3       21 UNK        -0.1800 
    117 C         -3.1611  -20.4919  -56.5062 C.2       21 UNK         0.5000 
    118 O         -3.6572  -19.4720  -56.9866 O.2       21 UNK        -0.5000 
    119 N         -2.7538  -20.5915  -55.2354 N.am      22 UNK        -0.5000 
    120 CA        -2.8439  -19.5388  -54.2168 C.3       22 UNK         0.1400 
    121 C         -3.6022  -20.0438  -52.9621 C.2       22 UNK         0.5000 
    122 N         -4.1757  -19.1458  -52.1746 N.am      22 UNK        -0.7600 
    123 O         -3.6557  -21.2381  -52.6753 O.2       22 UNK        -0.5000 
    124 C124       -1.4314  -19.0044  -53.8505 C.3       23 UNK        -0.0398 
    125 S125       -1.4406  -17.2215  -53.4681 S.3       23 UNK        -0.2404 
    126 C126        0.3377  -16.8334  -53.5338 C.3       23 UNK        -0.0205 
    127 H127        5.4388  -15.0238  -44.6559 H         1 UNK         0.0600 
    128 H128        4.7921  -13.9733  -43.3914 H         1 UNK         0.0600 
    129 H129        5.4218  -13.2750  -44.8835 H         1 UNK         0.0600 
    130 H130        3.7716  -12.5472  -46.1779 H         1 UNK         0.3000 
    131 H131        1.2431  -14.1103  -46.4242 H         1 UNK         0.0600 
    132 H132        0.9976  -13.0136  -48.6496 H         1 UNK         0.0800 
    133 H133        2.4983  -12.1609  -48.4147 H         1 UNK         0.0800 
    134 H134        0.6471  -15.3867  -48.6908 H         1 UNK         0.0800 
    135 H135        1.8382  -16.3526  -47.8507 H         1 UNK         0.0800 
    136 H136        0.5371  -15.4305  -51.2162 H         1 UNK         0.1150 
    137 H137        1.7193  -19.1386  -53.0115 H         1 UNK         0.1150 
    138 H138        2.8677  -18.2447  -48.9754 H         1 UNK         0.1150 
    139 H139        3.5975  -20.3596  -51.8641 H         1 UNK         0.0800 
    140 H140        3.8981  -20.1311  -50.1625 H         1 UNK         0.0800 
    141 H141        1.7563  -20.3670  -48.4366 H         1 UNK         0.0800 
    142 H142        2.7496  -21.7817  -48.3114 H         1 UNK         0.0800 
    143 H143        0.6671  -23.2311  -48.6132 H         1 UNK         0.0600 
    144 H144        0.1899  -21.6913  -46.1849 H         1 UNK         0.3000 
    145 H145        1.0862  -24.0463  -44.1347 H         1 UNK         0.0600 
    146 H146        3.1424  -23.1227  -43.0281 H         1 UNK         0.0600 
    147 H147        3.5493  -24.1152  -44.4175 H         1 UNK         0.0600 
    148 H148        3.6165  -22.3603  -44.5452 H         1 UNK         0.0600 
    149 H149        1.4168  -21.0804  -44.3647 H         1 UNK         0.3000 
    150 H150       -1.7311  -20.4566  -43.1202 H         1 UNK         0.0600 
    151 H151       -0.8441  -20.8892  -40.8374 H         1 UNK         0.0600 
    152 H152       -0.8088  -19.1717  -41.2038 H         1 UNK         0.0600 
    153 H153        0.6790  -20.1172  -41.2625 H         1 UNK         0.0600 
    154 H154        0.5135  -18.7088  -43.3127 H         1 UNK         0.3000 
    155 H155        0.3988  -18.3467  -46.8971 H         1 UNK         0.0600 
    156 H156       -1.4702  -16.9388  -45.8365 H         1 UNK         0.0600 
    157 H157       -0.0903  -16.0415  -46.4316 H         1 UNK         0.0600 
    158 H158       -0.2620  -16.3283  -44.7100 H         1 UNK         0.0600 
    159 H159        2.0323  -16.9416  -45.1246 H         1 UNK         0.3000 
    160 H160        4.7652  -19.2669  -44.9705 H         1 UNK         0.0600 
    161 H161        4.2411  -16.6876  -46.5411 H         1 UNK         0.0600 
    162 H162        4.9212  -18.1816  -47.1612 H         1 UNK         0.0600 
    163 H163        5.8240  -17.2349  -45.9895 H         1 UNK         0.0600 
    164 H164        3.7473  -16.6271  -43.9908 H         1 UNK         0.3000 
    165 H165        3.8598  -17.7210  -40.6368 H         1 UNK         0.0600 
    166 H166        5.2822  -15.7252  -40.2392 H         1 UNK         0.0600 
    167 H167        6.2377  -17.0320  -40.9209 H         1 UNK         0.0600 
    168 H168        5.7452  -15.6867  -41.9402 H         1 UNK         0.0600 
    169 H169        3.2873  -15.1477  -41.6069 H         1 UNK         0.3000 
    170 H170        0.8743  -14.7551  -42.8880 H         1 UNK         0.0600 
    171 H171       -0.9470  -16.4789  -42.5714 H         1 UNK         0.0600 
    172 H172       -0.8993  -16.1890  -40.8429 H         1 UNK         0.0600 
    173 H173       -1.3967  -14.9044  -41.9443 H         1 UNK         0.0600 
    174 H174        0.2427  -14.1957  -40.1764 H         1 UNK         0.3000 
    175 H175        1.4523  -12.7733  -38.7927 H         1 UNK         0.0600 
    176 H176        3.5533  -11.0624  -40.2393 H         1 UNK         0.0600 
    177 H177        3.0367  -10.8799  -38.5643 H         1 UNK         0.0600 
    178 H178        3.8993  -12.3265  -39.0650 H         1 UNK         0.0600 
    179 H179        1.2350  -10.5269  -40.7002 H         1 UNK         0.3000 
    180 H180       -2.1980  -10.9490  -41.3071 H         1 UNK         0.0600 
    181 H181       -0.7879   -8.6182  -39.8939 H         1 UNK         0.0600 
    182 H182       -2.2278   -9.4439  -39.3105 H         1 UNK         0.0600 
    183 H183       -2.2973   -8.5195  -40.8020 H         1 UNK         0.0600 
    184 H184       -0.2711   -9.0796  -42.2735 H         1 UNK         0.3000 
    185 H185        0.1337   -9.7425  -44.9690 H         1 UNK         0.0600 
    186 H186        1.3877   -8.4791  -43.2542 H         1 UNK         0.0600 
    187 H187        2.4247   -9.8666  -42.9260 H         1 UNK         0.0600 
    188 H188        2.5136   -9.0309  -44.4735 H         1 UNK         0.0600 
    189 H189        2.3076  -11.7081  -44.6049 H         1 UNK         0.3000 
    190 H190       -0.0167  -19.8916  -49.0027 H         1 UNK         0.3000 
    191 H191       -2.2113  -20.2899  -50.4761 H         1 UNK         0.0600 
    192 H192       -0.9170  -18.2379  -50.5257 H         1 UNK         0.0600 
    193 H193       -1.4167  -17.7912  -48.8942 H         1 UNK         0.0600 
    194 H194       -2.5806  -17.7885  -50.2147 H         1 UNK         0.0600 
    195 H195       -2.3886  -19.7320  -46.9469 H         1 UNK         0.3000 
    196 H196       -5.3103  -19.3881  -47.0088 H         1 UNK         0.0600 
    197 H197       -5.0673  -19.0755  -44.5878 H         1 UNK         0.0600 
    198 H198       -3.8684  -18.0909  -45.4131 H         1 UNK         0.0600 
    199 H199       -3.3922  -19.5989  -44.6326 H         1 UNK         0.0600 
    200 H200       -2.9786  -21.9706  -46.5836 H         1 UNK         0.3000 
    201 H201       -4.8543  -23.8447  -45.3192 H         1 UNK         0.0600 
    202 H202       -2.4498  -23.9523  -44.7427 H         1 UNK         0.0600 
    203 H203       -2.0203  -24.2355  -46.4271 H         1 UNK         0.0600 
    204 H204       -2.9504  -25.4349  -45.5391 H         1 UNK         0.0600 
    205 H205       -3.2799  -23.3411  -48.5045 H         1 UNK         0.3000 
    206 H206       -4.6760  -25.5057  -49.8008 H         1 UNK         0.0600 
    207 H207       -2.4379  -24.7819  -50.5503 H         1 UNK         0.0600 
    208 H208       -3.5952  -24.5518  -51.8525 H         1 UNK         0.0600 
    209 H209       -3.0406  -23.1671  -50.9172 H         1 UNK         0.0600 
    210 H210       -5.3336  -22.0946  -49.3550 H         1 UNK         0.3000 
    211 H211       -7.0638  -20.7758  -49.6698 H         1 UNK         0.0600 
    212 H212       -8.6968  -23.3673  -49.7009 H         1 UNK         0.0600 
    213 H213       -9.2911  -21.7664  -49.2748 H         1 UNK         0.0600 
    214 H214       -8.1054  -22.5569  -48.2505 H         1 UNK         0.0600 
    215 H215       -5.7373  -21.6587  -52.1563 H         1 UNK         0.3000 
    216 H216       -5.8187  -21.5449  -54.3410 H         1 UNK         0.0600 
    217 H217       -7.2962  -19.9556  -55.4666 H         1 UNK         0.0600 
    218 H218       -6.7630  -19.2627  -53.9452 H         1 UNK         0.0600 
    219 H219       -8.3944  -19.9171  -54.0943 H         1 UNK         0.0600 
    220 H220       -7.2412  -23.7596  -52.9059 H         1 UNK         0.3000 
    221 H221       -8.9274  -24.8302  -55.1413 H         1 UNK         0.0600 
    222 H222       -8.9384  -25.4936  -52.1461 H         1 UNK         0.0600 
    223 H223      -10.1629  -24.5650  -53.0057 H         1 UNK         0.0600 
    224 H224       -9.9333  -26.2681  -53.3751 H         1 UNK         0.0600 
    225 H225       -6.4863  -25.6979  -52.6238 H         1 UNK         0.3000 
    226 H226       -5.7929  -28.1917  -54.0283 H         1 UNK         0.0600 
    227 H227       -5.9860  -28.0420  -51.5119 H         1 UNK         0.0600 
    228 H228       -4.4174  -28.6157  -52.0581 H         1 UNK         0.0600 
    229 H229       -4.5919  -26.9604  -51.5042 H         1 UNK         0.0600 
    230 H230       -4.8497  -24.9499  -54.3479 H         1 UNK         0.3000 
    231 H231       -2.5526  -25.5739  -55.9744 H         1 UNK         0.0600 
    232 H232       -1.5397  -25.3581  -53.6163 H         1 UNK         0.0600 
    233 H233       -2.1700  -23.7130  -53.5490 H         1 UNK         0.0600 
    234 H234       -0.9561  -24.1484  -54.7424 H         1 UNK         0.0600 
    235 H235       -1.6866  -23.2712  -56.7430 H         1 UNK         0.3000 
    236 H236       -3.9153  -21.8860  -57.9425 H         1 UNK         0.0600 
    237 H237       -2.0991  -20.5855  -59.0499 H         1 UNK         0.0600 
    238 H238       -0.9034  -21.3108  -57.9826 H         1 UNK         0.0600 
    239 H239       -1.7795  -22.3088  -59.1444 H         1 UNK         0.0600 
    240 H240       -2.4281  -21.4864  -54.9009 H         1 UNK         0.3000 
    241 H241       -3.4396  -18.7193  -54.6235 H         1 UNK         0.0600 
    242 H242       -4.6065  -19.4571  -51.3135 H         1 UNK         0.3800 
    243 H243       -4.1327  -18.1609  -52.3834 H         1 UNK         0.3800 
    244 H244       -0.9876  -19.5562  -53.0193 H         1 UNK         0.0800 
    245 H245       -0.7521  -19.1436  -54.6929 H         1 UNK         0.0800 
    246 H246        0.4540  -15.7595  -53.6868 H         1 UNK         0.0800 
    247 H247        0.7960  -17.3112  -54.4010 H         1 UNK         0.0800 
@<TRIPOS>BOND
     1    1    2 1    
     2    1  127 1    
     3    1  128 1    
     4    1  129 1    
     5    2    3 2    
     6    2    4 am   BACKBONE|DICT|INTERRES
     7    4    5 1    
     8    4  130 1    
     9    5    6 1    
    10    5   65 1    
    11    5  131 1    
    12    6    7 1    
    13    6  132 1    
    14    6  133 1    
    15    7    8 1    
    16    8    9 1    
    17    8  134 1    
    18    8  135 1    
    19    9   10 ar   
    20    9   14 ar   
    21   10   11 ar   
    22   10  136 1    
    23   11   12 ar   
    24   11  126 1    
    25   12   13 ar   
    26   12  137 1    
    27   13   14 ar   
    28   13   15 1    
    29   14  138 1    
    30   15   16 1    
    31   15  139 1    
    32   15  140 1    
    33   16   17 1    
    34   17   18 1    
    35   17  141 1    
    36   17  142 1    
    37   18   19 1    
    38   18   67 1    
    39   18  143 1    
    40   19   20 am   BACKBONE|DICT|INTERRES
    41   19  144 1    
    42   20   21 2    
    43   20   22 1    
    44   22   23 1    
    45   22   24 1    
    46   22  145 1    
    47   23  146 1    
    48   23  147 1    
    49   23  148 1    
    50   24   25 am   BACKBONE|DICT|INTERRES
    51   24  149 1    
    52   25   26 2    
    53   25   27 1    
    54   27   28 1    
    55   27   29 1    
    56   27  150 1    
    57   28  151 1    
    58   28  152 1    
    59   28  153 1    
    60   29   30 am   BACKBONE|DICT|INTERRES
    61   29  154 1    
    62   30   31 2    
    63   30   32 1    
    64   32   33 1    
    65   32   34 1    
    66   32  155 1    
    67   33  156 1    
    68   33  157 1    
    69   33  158 1    
    70   34   35 am   BACKBONE|DICT|INTERRES
    71   34  159 1    
    72   35   36 2    
    73   35   37 1    
    74   37   38 1    
    75   37   39 1    
    76   37  160 1    
    77   38  161 1    
    78   38  162 1    
    79   38  163 1    
    80   39   40 am   BACKBONE|DICT|INTERRES
    81   39  164 1    
    82   40   41 2    
    83   40   42 1    
    84   42   43 1    
    85   42   44 1    
    86   42  165 1    
    87   43  166 1    
    88   43  167 1    
    89   43  168 1    
    90   44   45 am   BACKBONE|DICT|INTERRES
    91   44  169 1    
    92   45   46 2    
    93   45   47 1    
    94   47   48 1    
    95   47   49 1    
    96   47  170 1    
    97   48  171 1    
    98   48  172 1    
    99   48  173 1    
   100   49   50 am   BACKBONE|DICT|INTERRES
   101   49  174 1    
   102   50   51 2    
   103   50   52 1    
   104   52   53 1    
   105   52   54 1    
   106   52  175 1    
   107   53  176 1    
   108   53  177 1    
   109   53  178 1    
   110   54   55 am   BACKBONE|DICT|INTERRES
   111   54  179 1    
   112   55   56 2    
   113   55   57 1    
   114   57   58 1    
   115   57   59 1    
   116   57  180 1    
   117   58  181 1    
   118   58  182 1    
   119   58  183 1    
   120   59   60 am   BACKBONE|DICT|INTERRES
   121   59  184 1    
   122   60   61 2    
   123   60   62 1    
   124   62   63 1    
   125   62   64 1    
   126   62  185 1    
   127   63  186 1    
   128   63  187 1    
   129   63  188 1    
   130   64   65 am   BACKBONE|DICT|INTERRES
   131   64  189 1    
   132   65   66 2    
   133   67   68 2    
   134   67   69 am   BACKBONE|DICT|INTERRES
   135   69   70 1    
   136   69  190 1    
   137   70   71 1    
   138   70   72 1    
   139   70  191 1    
   140   71  192 1    
   141   71  193 1    
   142   71  194 1    
   143   72   73 2    
   144   72   74 am   BACKBONE|DICT|INTERRES
   145   74   75 1    
   146   74  195 1    
   147   75   76 1    
   148   75   77 1    
   149   75  196 1    
   150   76  197 1    
   151   76  198 1    
   152   76  199 1    
   153   77   78 2    
   154   77   79 am   BACKBONE|DICT|INTERRES
   155   79   80 1    
   156   79  200 1    
   157   80   81 1    
   158   80   82 1    
   159   80  201 1    
   160   81  202 1    
   161   81  203 1    
   162   81  204 1    
   163   82   83 2    
   164   82   84 am   BACKBONE|DICT|INTERRES
   165   84   85 1    
   166   84  205 1    
   167   85   86 1    
   168   85   87 1    
   169   85  206 1    
   170   86  207 1    
   171   86  208 1    
   172   86  209 1    
   173   87   88 2    
   174   87   89 am   BACKBONE|DICT|INTERRES
   175   89   90 1    
   176   89  210 1    
   177   90   91 1    
   178   90   92 1    
   179   90  211 1    
   180   91  212 1    
   181   91  213 1    
   182   91  214 1    
   183   92   93 2    
   184   92   94 am   BACKBONE|DICT|INTERRES
   185   94   95 1    
   186   94  215 1    
   187   95   96 1    
   188   95   97 1    
   189   95  216 1    
   190   96  217 1    
   191   96  218 1    
   192   96  219 1    
   193   97   98 2    
   194   97   99 am   BACKBONE|DICT|INTERRES
   195   99  100 1    
   196   99  220 1    
   197  100  101 1    
   198  100  102 1    
   199  100  221 1    
   200  101  222 1    
   201  101  223 1    
   202  101  224 1    
   203  102  103 2    
   204  102  104 am   BACKBONE|DICT|INTERRES
   205  104  105 1    
   206  104  225 1    
   207  105  106 1    
   208  105  107 1    
   209  105  226 1    
   210  106  227 1    
   211  106  228 1    
   212  106  229 1    
   213  107  108 2    
   214  107  109 am   BACKBONE|DICT|INTERRES
   215  109  110 1    
   216  109  230 1    
   217  110  111 1    
   218  110  112 1    
   219  110  231 1    
   220  111  232 1    
   221  111  233 1    
   222  111  234 1    
   223  112  113 2    
   224  112  114 am   BACKBONE|DICT|INTERRES
   225  114  115 1    
   226  114  235 1    
   227  115  116 1    
   228  115  117 1    
   229  115  236 1    
   230  116  237 1    
   231  116  238 1    
   232  116  239 1    
   233  117  118 2    
   234  117  119 am   BACKBONE|DICT|INTERRES
   235  119  120 1    
   236  119  240 1    
   237  120  121 1    
   238  120  124 1    
   239  120  241 1    
   240  121  122 am   BACKBONE|DICT|INTERRES
   241  121  123 2    
   242  122  242 1    
   243  122  243 1    
   244  124  125 1    
   245  124  244 1    
   246  124  245 1    
   247  125  126 1    
   248  126  246 1    
   249  126  247 1    
@<TRIPOS>SUBSTRUCTURE
     1 UNK         1 GROUP             0       ****    0 ROOT    
