@<TRIPOS>MOLECULE
3R540
247   249    1
SMALL
USER_CHARGES


@<TRIPOS>ATOM
      1 CA          5.5318  -16.5187  -51.0697 C.3       0 UNK        -0.1800 
      2 C           4.4560  -16.7316  -50.0158 C.2       0 UNK         0.5000 
      3 O           4.6660  -16.4023  -48.8486 O.2       0 UNK        -0.5000 
      4 N           3.2937  -17.2619  -50.4179 N.am      1 UNK        -0.5000 
      5 CA          2.1493  -17.5403  -49.5404 C.3       1 UNK         0.1400 
      6 C6          1.0502  -18.3606  -50.2583 C.3       23 UNK        -0.0398 
      7 S7          0.3551  -17.5314  -51.7327 S.3       23 UNK        -0.2404 
      8 C8         -1.4335  -17.7283  -51.4733 C.3       23 UNK        -0.0205 
      9 C9         -1.9493  -16.9796  -50.2522 C.ar      23 UNK        -0.0193 
     10 C10        -2.0707  -15.5879  -50.2713 C.ar      23 UNK        -0.1150 
     11 C11        -2.6096  -14.9097  -49.1734 C.ar      23 UNK        -0.0193 
     12 C12        -3.0210  -15.6315  -48.0486 C.ar      23 UNK        -0.1150 
     13 C13        -2.9052  -17.0225  -48.0184 C.ar      23 UNK        -0.0193 
     14 C14        -2.3682  -17.6882  -49.1230 C.ar      23 UNK        -0.1150 
     15 C15        -3.3876  -17.8154  -46.8108 C.3       23 UNK        -0.0205 
     16 S16        -2.2109  -17.8053  -45.4144 S.3       23 UNK        -0.2404 
     17 C17        -0.6483  -18.3850  -46.1675 C.3       23 UNK        -0.0398 
     18 CA         -0.3526  -19.9000  -46.1285 C.3       11 UNK         0.1400 
     19 N           0.1426  -20.3794  -44.8373 N.am      11 UNK        -0.5000 
     20 C           0.8391  -21.5199  -44.7141 C.2       10 UNK         0.5000 
     21 O           1.1384  -22.2423  -45.6660 O.2       10 UNK        -0.5000 
     22 CA          1.2270  -21.9506  -43.2932 C.3       10 UNK         0.1400 
     23 CB          2.4610  -21.1770  -42.8029 C.3       10 UNK        -0.1800 
     24 N           0.1166  -21.7790  -42.3582 N.am      10 UNK        -0.5000 
     25 C          -0.9817  -22.5491  -42.3500 C.2       9 UNK         0.5000 
     26 O          -1.1667  -23.4812  -43.1330 O.2       9 UNK        -0.5000 
     27 CA         -2.0679  -22.2086  -41.3115 C.3       9 UNK         0.1400 
     28 CB         -1.7923  -22.9354  -39.9870 C.3       9 UNK        -0.1800 
     29 N          -2.1884  -20.7728  -41.0572 N.am      9 UNK        -0.5000 
     30 C          -2.6027  -19.8776  -41.9642 C.2       8 UNK         0.5000 
     31 O          -2.9624  -20.1802  -43.1006 O.2       8 UNK        -0.5000 
     32 CA         -2.5569  -18.3944  -41.5463 C.3       8 UNK         0.1400 
     33 CB         -3.8751  -17.9813  -40.8759 C.3       8 UNK        -0.1800 
     34 N          -1.4343  -18.0564  -40.6631 N.am      8 UNK        -0.5000 
     35 C          -0.1444  -18.2350  -40.9756 C.2       7 UNK         0.5000 
     36 O           0.2306  -18.7570  -42.0270 O.2       7 UNK        -0.5000 
     37 CA          0.8895  -17.7213  -39.9632 C.3       7 UNK         0.1400 
     38 CB          2.0636  -18.7015  -39.8030 C.3       7 UNK        -0.1800 
     39 N           1.3905  -16.4574  -40.4817 N.am      7 UNK        -0.5000 
     40 C           1.1967  -15.2503  -39.9335 C.2       6 UNK         0.5000 
     41 O           0.7244  -15.0752  -38.8097 O.2       6 UNK        -0.5000 
     42 CA          1.5455  -14.0254  -40.8109 C.3       6 UNK         0.1400 
     43 CB          2.9926  -13.5755  -40.5617 C.3       6 UNK        -0.1800 
     44 N           1.3682  -14.2909  -42.2410 N.am      6 UNK        -0.5000 
     45 C           0.2045  -14.6345  -42.8100 C.2       5 UNK         0.5000 
     46 O          -0.8826  -14.5095  -42.2444 O.2       5 UNK        -0.5000 
     47 CA          0.2467  -15.2840  -44.2083 C.3       5 UNK         0.1400 
     48 CB         -0.5368  -14.4484  -45.2337 C.3       5 UNK        -0.1800 
     49 N           1.5721  -15.5919  -44.7598 N.am      5 UNK        -0.5000 
     50 C           2.5205  -16.3800  -44.2308 C.2       4 UNK         0.5000 
     51 O           2.4383  -16.9011  -43.1208 O.2       4 UNK        -0.5000 
     52 CA          3.7941  -16.6095  -45.0675 C.3       4 UNK         0.1400 
     53 CB          3.7342  -17.9842  -45.7518 C.3       4 UNK        -0.1800 
     54 N           4.0302  -15.5724  -46.0758 N.am      4 UNK        -0.5000 
     55 C           4.3289  -14.2916  -45.8095 C.2       3 UNK         0.5000 
     56 O           4.4808  -13.8485  -44.6706 O.2       3 UNK        -0.5000 
     57 CA          4.4343  -13.3411  -47.0153 C.3       3 UNK         0.1400 
     58 CB          5.8423  -13.3817  -47.6294 C.3       3 UNK        -0.1800 
     59 N           3.4385  -13.6717  -48.0364 N.am      3 UNK        -0.5000 
     60 C           2.1635  -13.2563  -48.0038 C.2       2 UNK         0.5000 
     61 O           1.7298  -12.4627  -47.1692 O.2       2 UNK        -0.5000 
     62 CA          1.2009  -13.8295  -49.0640 C.3       2 UNK         0.1400 
     63 CB          1.0480  -12.8587  -50.2438 C.3       2 UNK        -0.1800 
     64 N           1.6088  -15.1383  -49.5746 N.am      2 UNK        -0.5000 
     65 C           1.5938  -16.2702  -48.8572 C.2       1 UNK         0.5000 
     66 O           1.2353  -16.3213  -47.6833 O.2       1 UNK        -0.5000 
     67 C          -1.4987  -20.7736  -46.6718 C.2       11 UNK         0.5000 
     68 O          -1.5475  -21.0008  -47.8789 O.2       11 UNK        -0.5000 
     69 N          -2.3662  -21.2889  -45.7864 N.am      12 UNK        -0.5000 
     70 CA         -3.4278  -22.2354  -46.1328 C.3       12 UNK         0.1400 
     71 CB         -4.3284  -22.4879  -44.9157 C.3       12 UNK        -0.1800 
     72 C          -2.8745  -23.5596  -46.6873 C.2       12 UNK         0.5000 
     73 O          -3.3907  -24.0572  -47.6871 O.2       12 UNK        -0.5000 
     74 N          -1.8039  -24.0762  -46.0663 N.am      13 UNK        -0.5000 
     75 CA         -1.0766  -25.2607  -46.5255 C.3       13 UNK         0.1400 
     76 CB         -0.0521  -25.6801  -45.4609 C.3       13 UNK        -0.1800 
     77 C          -0.3949  -25.0567  -47.8926 C.2       13 UNK         0.5000 
     78 O          -0.3681  -25.9882  -48.6966 O.2       13 UNK        -0.5000 
     79 N           0.1199  -23.8441  -48.1420 N.am      14 UNK        -0.5000 
     80 CA          0.6966  -23.4431  -49.4263 C.3       14 UNK         0.1400 
     81 CB          1.5140  -22.1547  -49.2409 C.3       14 UNK        -0.1800 
     82 C          -0.3705  -23.2607  -50.5239 C.2       14 UNK         0.5000 
     83 O          -0.1279  -23.6281  -51.6729 O.2       14 UNK        -0.5000 
     84 N          -1.5250  -22.6920  -50.1531 N.am      15 UNK        -0.5000 
     85 CA         -2.6582  -22.4252  -51.0372 C.3       15 UNK         0.1400 
     86 CB         -3.6188  -21.4519  -50.3409 C.3       15 UNK        -0.1800 
     87 C          -3.4291  -23.6795  -51.4782 C.2       15 UNK         0.5000 
     88 O          -4.0000  -23.6663  -52.5720 O.2       15 UNK        -0.5000 
     89 N          -3.4665  -24.7028  -50.6132 N.am      16 UNK        -0.5000 
     90 CA         -4.1980  -25.9591  -50.7832 C.3       16 UNK         0.1400 
     91 CB         -3.9279  -26.8714  -49.5756 C.3       16 UNK        -0.1800 
     92 C          -3.8601  -26.6787  -52.1020 C.2       16 UNK         0.5000 
     93 O          -2.7247  -27.1229  -52.2833 O.2       16 UNK        -0.5000 
     94 N          -4.8585  -26.7536  -52.9948 N.am      17 UNK        -0.5000 
     95 CA         -4.8034  -27.3250  -54.3469 C.3       17 UNK         0.1400 
     96 CB         -4.5793  -28.8509  -54.2863 C.3       17 UNK        -0.1800 
     97 C          -3.8059  -26.6096  -55.2872 C.2       17 UNK         0.5000 
     98 O          -3.3142  -27.2218  -56.2376 O.2       17 UNK        -0.5000 
     99 N          -3.5291  -25.3293  -55.0128 N.am      18 UNK        -0.5000 
    100 CA        -2.5907  -24.4936  -55.7489 C.3       18 UNK         0.1400 
    101 CB        -1.2239  -24.5153  -55.0352 C.3       18 UNK        -0.1800 
    102 C         -3.2029  -23.0937  -55.9117 C.2       18 UNK         0.5000 
    103 O         -4.1374  -22.9374  -56.6989 O.2       18 UNK        -0.5000 
    104 N         -2.6679  -22.1022  -55.1863 N.am      19 UNK        -0.5000 
    105 CA        -3.0352  -20.6878  -55.2875 C.3       19 UNK         0.1400 
    106 CB        -2.0147  -19.8532  -54.4969 C.3       19 UNK        -0.1800 
    107 C         -4.4683  -20.3551  -54.8267 C.2       19 UNK         0.5000 
    108 O         -5.0156  -19.3503  -55.2797 O.2       19 UNK        -0.5000 
    109 N         -5.0357  -21.1764  -53.9278 N.am      20 UNK        -0.5000 
    110 CA        -6.3846  -21.0620  -53.3481 C.3       20 UNK         0.1400 
    111 CB        -7.4648  -21.2382  -54.4355 C.3       20 UNK        -0.1800 
    112 C         -6.6171  -19.8008  -52.4789 C.2       20 UNK         0.5000 
    113 O         -7.7663  -19.4774  -52.1742 O.2       20 UNK        -0.5000 
    114 N         -5.5171  -19.1568  -52.0619 N.am      21 UNK        -0.5000 
    115 CA        -5.3972  -17.9661  -51.2145 C.3       21 UNK         0.1400 
    116 CB        -6.0749  -18.1714  -49.8445 C.3       21 UNK        -0.1800 
    117 C         -5.8368  -16.6539  -51.8932 C.2       21 UNK         0.5000 
    118 O         -6.5157  -16.6670  -52.9219 O.2       21 UNK        -0.5000 
    119 N         -5.4087  -15.5289  -51.3053 N.am      22 UNK        -0.5000 
    120 CA        -5.6915  -14.1686  -51.7947 C.3       22 UNK         0.1400 
    121 C         -7.1323  -13.6440  -51.5121 C.2       22 UNK         0.5000 
    122 N         -7.9561  -14.3373  -50.7352 N.am      22 UNK        -0.7600 
    123 O         -7.5153  -12.5942  -52.0217 O.2       22 UNK        -0.5000 
    124 C124       -4.5979  -13.1571  -51.3577 C.3       23 UNK        -0.0398 
    125 S125       -4.4738  -12.8979  -49.5501 S.3       23 UNK        -0.2404 
    126 C126       -2.7587  -13.3980  -49.1968 C.3       23 UNK        -0.0205 
    127 H127        5.8022  -15.4640  -51.1205 H         1 UNK         0.0600 
    128 H128        5.1985  -16.8338  -52.0587 H         1 UNK         0.0600 
    129 H129        6.4246  -17.0886  -50.8127 H         1 UNK         0.0600 
    130 H130        3.1629  -17.4962  -51.3920 H         1 UNK         0.3000 
    131 H131        2.5316  -18.1729  -48.7372 H         1 UNK         0.0600 
    132 H132        1.4668  -19.3138  -50.5857 H         1 UNK         0.0800 
    133 H133        0.2572  -18.6215  -49.5570 H         1 UNK         0.0800 
    134 H134       -1.6628  -18.7920  -51.3991 H         1 UNK         0.0800 
    135 H135       -1.9561  -17.3649  -52.3591 H         1 UNK         0.0800 
    136 H136       -1.7545  -15.0374  -51.1460 H         1 UNK         0.1150 
    137 H137       -3.4397  -15.1106  -47.1989 H         1 UNK         0.1150 
    138 H138       -2.2828  -18.7641  -49.1021 H         1 UNK         0.1150 
    139 H139       -4.3349  -17.3995  -46.4655 H         1 UNK         0.0800 
    140 H140       -3.6065  -18.8448  -47.0962 H         1 UNK         0.0800 
    141 H141        0.1709  -17.8603  -45.6790 H         1 UNK         0.0800 
    142 H142       -0.6040  -18.0451  -47.1982 H         1 UNK         0.0800 
    143 H143        0.4734  -20.0374  -46.8307 H         1 UNK         0.0600 
    144 H144       -0.0707  -19.8296  -44.0129 H         1 UNK         0.3000 
    145 H145        1.4857  -23.0115  -43.3217 H         1 UNK         0.0600 
    146 H146        2.7223  -21.4519  -41.7810 H         1 UNK         0.0600 
    147 H147        3.3262  -21.3947  -43.4302 H         1 UNK         0.0600 
    148 H148        2.3065  -20.0983  -42.8328 H         1 UNK         0.0600 
    149 H149        0.1558  -20.9691  -41.7544 H         1 UNK         0.3000 
    150 H150       -3.0236  -22.5637  -41.7024 H         1 UNK         0.0600 
    151 H151       -1.7183  -24.0128  -40.1416 H         1 UNK         0.0600 
    152 H152       -2.5953  -22.7660  -39.2694 H         1 UNK         0.0600 
    153 H153       -0.8582  -22.6040  -39.5317 H         1 UNK         0.0600 
    154 H154       -1.9057  -20.4416  -40.1468 H         1 UNK         0.3000 
    155 H155       -2.4410  -17.8027  -42.4558 H         1 UNK         0.0600 
    156 H156       -4.0316  -18.5094  -39.9346 H         1 UNK         0.0600 
    157 H157       -3.8939  -16.9110  -40.6696 H         1 UNK         0.0600 
    158 H158       -4.7263  -18.2008  -41.5220 H         1 UNK         0.0600 
    159 H159       -1.6687  -17.6021  -39.7922 H         1 UNK         0.3000 
    160 H160        0.4083  -17.5931  -38.9916 H         1 UNK         0.0600 
    161 H161        2.6184  -18.8245  -40.7341 H         1 UNK         0.0600 
    162 H162        1.7130  -19.6867  -39.4937 H         1 UNK         0.0600 
    163 H163        2.7640  -18.3504  -39.0453 H         1 UNK         0.0600 
    164 H164        1.7611  -16.5123  -41.4295 H         1 UNK         0.3000 
    165 H165        0.8748  -13.2106  -40.5310 H         1 UNK         0.0600 
    166 H166        3.2291  -12.6748  -41.1286 H         1 UNK         0.0600 
    167 H167        3.1547  -13.3481  -39.5073 H         1 UNK         0.0600 
    168 H168        3.7081  -14.3485  -40.8457 H         1 UNK         0.0600 
    169 H169        2.2106  -14.4274  -42.7814 H         1 UNK         0.3000 
    170 H170       -0.2634  -16.2377  -44.0831 H         1 UNK         0.0600 
    171 H171       -1.5581  -14.2669  -44.8967 H         1 UNK         0.0600 
    172 H172       -0.0679  -13.4789  -45.4011 H         1 UNK         0.0600 
    173 H173       -0.6058  -14.9617  -46.1931 H         1 UNK         0.0600 
    174 H174        1.7309  -15.2723  -45.7062 H         1 UNK         0.3000 
    175 H175        4.6434  -16.6064  -44.3814 H         1 UNK         0.0600 
    176 H176        2.8616  -18.0734  -46.3977 H         1 UNK         0.0600 
    177 H177        4.6228  -18.1677  -46.3562 H         1 UNK         0.0600 
    178 H178        3.6708  -18.7836  -45.0122 H         1 UNK         0.0600 
    179 H179        3.9864  -15.8658  -47.0463 H         1 UNK         0.3000 
    180 H180        4.2582  -12.3244  -46.6573 H         1 UNK         0.0600 
    181 H181        6.1066  -14.3780  -47.9832 H         1 UNK         0.0600 
    182 H182        6.5932  -13.0874  -46.8952 H         1 UNK         0.0600 
    183 H183        5.9246  -12.6943  -48.4714 H         1 UNK         0.0600 
    184 H184        3.7105  -14.3594  -48.7257 H         1 UNK         0.3000 
    185 H185        0.2248  -13.9447  -48.5880 H         1 UNK         0.0600 
    186 H186        0.7014  -11.8822  -49.9032 H         1 UNK         0.0600 
    187 H187        1.9934  -12.7089  -50.7665 H         1 UNK         0.0600 
    188 H188        0.3191  -13.2276  -50.9657 H         1 UNK         0.0600 
    189 H189        1.9241  -15.1807  -50.5326 H         1 UNK         0.3000 
    190 H190       -2.3163  -20.9966  -44.8151 H         1 UNK         0.3000 
    191 H191       -4.0388  -21.7770  -46.9126 H         1 UNK         0.0600 
    192 H192       -3.7672  -22.9017  -44.0779 H         1 UNK         0.0600 
    193 H193       -5.1250  -23.1922  -45.1583 H         1 UNK         0.0600 
    194 H194       -4.8027  -21.5658  -44.5797 H         1 UNK         0.0600 
    195 H195       -1.4622  -23.6320  -45.2212 H         1 UNK         0.3000 
    196 H196       -1.7997  -26.0714  -46.6372 H         1 UNK         0.0600 
    197 H197        0.4913  -26.5733  -45.7716 H         1 UNK         0.0600 
    198 H198       -0.5404  -25.9097  -44.5137 H         1 UNK         0.0600 
    199 H199        0.6824  -24.8959  -45.2763 H         1 UNK         0.0600 
    200 H200        0.1049  -23.1484  -47.4063 H         1 UNK         0.3000 
    201 H201        1.3795  -24.2301  -49.7532 H         1 UNK         0.0600 
    202 H202        2.2894  -22.2842  -48.4855 H         1 UNK         0.0600 
    203 H203        0.8872  -21.3175  -48.9356 H         1 UNK         0.0600 
    204 H204        2.0086  -21.8715  -50.1707 H         1 UNK         0.0600 
    205 H205       -1.6054  -22.3397  -49.2029 H         1 UNK         0.3000 
    206 H206       -2.2798  -21.9467  -51.9415 H         1 UNK         0.0600 
    207 H207       -4.5580  -21.3654  -50.8838 H         1 UNK         0.0600 
    208 H208       -3.8671  -21.7845  -49.3335 H         1 UNK         0.0600 
    209 H209       -3.1870  -20.4561  -50.2696 H         1 UNK         0.0600 
    210 H210       -3.0156  -24.5735  -49.7151 H         1 UNK         0.3000 
    211 H211       -5.2615  -25.7129  -50.7814 H         1 UNK         0.0600 
    212 H212       -2.8636  -27.0804  -49.4607 H         1 UNK         0.0600 
    213 H213       -4.4413  -27.8275  -49.6842 H         1 UNK         0.0600 
    214 H214       -4.2820  -26.4183  -48.6499 H         1 UNK         0.0600 
    215 H215       -5.7425  -26.3300  -52.7488 H         1 UNK         0.3000 
    216 H216       -5.7894  -27.1587  -54.7829 H         1 UNK         0.0600 
    217 H217       -4.6957  -29.3040  -55.2715 H         1 UNK         0.0600 
    218 H218       -5.3010  -29.3298  -53.6247 H         1 UNK         0.0600 
    219 H219       -3.5796  -29.0999  -53.9293 H         1 UNK         0.0600 
    220 H220       -3.9680  -24.8900  -54.2096 H         1 UNK         0.3000 
    221 H221       -2.4516  -24.8819  -56.7599 H         1 UNK         0.0600 
    222 H222       -1.3062  -24.2041  -53.9938 H         1 UNK         0.0600 
    223 H223       -0.8012  -25.5201  -55.0403 H         1 UNK         0.0600 
    224 H224       -0.5044  -23.8622  -55.5307 H         1 UNK         0.0600 
    225 H225       -1.9039  -22.3275  -54.5663 H         1 UNK         0.3000 
    226 H226       -2.9624  -20.4027  -56.3392 H         1 UNK         0.0600 
    227 H227       -1.0040  -19.9990  -54.8785 H         1 UNK         0.0600 
    228 H228       -2.2361  -18.7877  -54.5732 H         1 UNK         0.0600 
    229 H229       -2.0135  -20.1132  -53.4390 H         1 UNK         0.0600 
    230 H230       -4.5114  -21.9931  -53.6308 H         1 UNK         0.3000 
    231 H231       -6.4777  -21.9070  -52.6644 H         1 UNK         0.0600 
    232 H232       -8.4567  -21.3318  -53.9921 H         1 UNK         0.0600 
    233 H233       -7.2879  -22.1388  -55.0238 H         1 UNK         0.0600 
    234 H234       -7.4932  -20.3900  -55.1198 H         1 UNK         0.0600 
    235 H235       -4.6448  -19.5033  -52.4294 H         1 UNK         0.3000 
    236 H236       -4.3301  -17.8708  -51.0390 H         1 UNK         0.0600 
    237 H237       -5.7340  -19.0926  -49.3716 H         1 UNK         0.0600 
    238 H238       -5.8368  -17.3549  -49.1619 H         1 UNK         0.0600 
    239 H239       -7.1607  -18.2173  -49.9286 H         1 UNK         0.0600 
    240 H240       -4.8576  -15.5816  -50.4599 H         1 UNK         0.3000 
    241 H241       -5.6304  -14.2138  -52.8839 H         1 UNK         0.0600 
    242 H242       -8.8873  -13.9913  -50.5648 H         1 UNK         0.3800 
    243 H243       -7.6563  -15.2012  -50.3143 H         1 UNK         0.3800 
    244 H244       -3.6327  -13.4831  -51.7456 H         1 UNK         0.0800 
    245 H245       -4.7771  -12.1866  -51.8233 H         1 UNK         0.0800 
    246 H246       -2.0824  -12.9480  -49.9250 H         1 UNK         0.0800 
    247 H247       -2.4679  -12.9950  -48.2254 H         1 UNK         0.0800 
@<TRIPOS>BOND
     1    1    2 1    
     2    1  127 1    
     3    1  128 1    
     4    1  129 1    
     5    2    3 2    
     6    2    4 am   BACKBONE|DICT|INTERRES
     7    4    5 1    
     8    4  130 1    
     9    5    6 1    
    10    5   65 1    
    11    5  131 1    
    12    6    7 1    
    13    6  132 1    
    14    6  133 1    
    15    7    8 1    
    16    8    9 1    
    17    8  134 1    
    18    8  135 1    
    19    9   10 ar   
    20    9   14 ar   
    21   10   11 ar   
    22   10  136 1    
    23   11   12 ar   
    24   11  126 1    
    25   12   13 ar   
    26   12  137 1    
    27   13   14 ar   
    28   13   15 1    
    29   14  138 1    
    30   15   16 1    
    31   15  139 1    
    32   15  140 1    
    33   16   17 1    
    34   17   18 1    
    35   17  141 1    
    36   17  142 1    
    37   18   19 1    
    38   18   67 1    
    39   18  143 1    
    40   19   20 am   BACKBONE|DICT|INTERRES
    41   19  144 1    
    42   20   21 2    
    43   20   22 1    
    44   22   23 1    
    45   22   24 1    
    46   22  145 1    
    47   23  146 1    
    48   23  147 1    
    49   23  148 1    
    50   24   25 am   BACKBONE|DICT|INTERRES
    51   24  149 1    
    52   25   26 2    
    53   25   27 1    
    54   27   28 1    
    55   27   29 1    
    56   27  150 1    
    57   28  151 1    
    58   28  152 1    
    59   28  153 1    
    60   29   30 am   BACKBONE|DICT|INTERRES
    61   29  154 1    
    62   30   31 2    
    63   30   32 1    
    64   32   33 1    
    65   32   34 1    
    66   32  155 1    
    67   33  156 1    
    68   33  157 1    
    69   33  158 1    
    70   34   35 am   BACKBONE|DICT|INTERRES
    71   34  159 1    
    72   35   36 2    
    73   35   37 1    
    74   37   38 1    
    75   37   39 1    
    76   37  160 1    
    77   38  161 1    
    78   38  162 1    
    79   38  163 1    
    80   39   40 am   BACKBONE|DICT|INTERRES
    81   39  164 1    
    82   40   41 2    
    83   40   42 1    
    84   42   43 1    
    85   42   44 1    
    86   42  165 1    
    87   43  166 1    
    88   43  167 1    
    89   43  168 1    
    90   44   45 am   BACKBONE|DICT|INTERRES
    91   44  169 1    
    92   45   46 2    
    93   45   47 1    
    94   47   48 1    
    95   47   49 1    
    96   47  170 1    
    97   48  171 1    
    98   48  172 1    
    99   48  173 1    
   100   49   50 am   BACKBONE|DICT|INTERRES
   101   49  174 1    
   102   50   51 2    
   103   50   52 1    
   104   52   53 1    
   105   52   54 1    
   106   52  175 1    
   107   53  176 1    
   108   53  177 1    
   109   53  178 1    
   110   54   55 am   BACKBONE|DICT|INTERRES
   111   54  179 1    
   112   55   56 2    
   113   55   57 1    
   114   57   58 1    
   115   57   59 1    
   116   57  180 1    
   117   58  181 1    
   118   58  182 1    
   119   58  183 1    
   120   59   60 am   BACKBONE|DICT|INTERRES
   121   59  184 1    
   122   60   61 2    
   123   60   62 1    
   124   62   63 1    
   125   62   64 1    
   126   62  185 1    
   127   63  186 1    
   128   63  187 1    
   129   63  188 1    
   130   64   65 am   BACKBONE|DICT|INTERRES
   131   64  189 1    
   132   65   66 2    
   133   67   68 2    
   134   67   69 am   BACKBONE|DICT|INTERRES
   135   69   70 1    
   136   69  190 1    
   137   70   71 1    
   138   70   72 1    
   139   70  191 1    
   140   71  192 1    
   141   71  193 1    
   142   71  194 1    
   143   72   73 2    
   144   72   74 am   BACKBONE|DICT|INTERRES
   145   74   75 1    
   146   74  195 1    
   147   75   76 1    
   148   75   77 1    
   149   75  196 1    
   150   76  197 1    
   151   76  198 1    
   152   76  199 1    
   153   77   78 2    
   154   77   79 am   BACKBONE|DICT|INTERRES
   155   79   80 1    
   156   79  200 1    
   157   80   81 1    
   158   80   82 1    
   159   80  201 1    
   160   81  202 1    
   161   81  203 1    
   162   81  204 1    
   163   82   83 2    
   164   82   84 am   BACKBONE|DICT|INTERRES
   165   84   85 1    
   166   84  205 1    
   167   85   86 1    
   168   85   87 1    
   169   85  206 1    
   170   86  207 1    
   171   86  208 1    
   172   86  209 1    
   173   87   88 2    
   174   87   89 am   BACKBONE|DICT|INTERRES
   175   89   90 1    
   176   89  210 1    
   177   90   91 1    
   178   90   92 1    
   179   90  211 1    
   180   91  212 1    
   181   91  213 1    
   182   91  214 1    
   183   92   93 2    
   184   92   94 am   BACKBONE|DICT|INTERRES
   185   94   95 1    
   186   94  215 1    
   187   95   96 1    
   188   95   97 1    
   189   95  216 1    
   190   96  217 1    
   191   96  218 1    
   192   96  219 1    
   193   97   98 2    
   194   97   99 am   BACKBONE|DICT|INTERRES
   195   99  100 1    
   196   99  220 1    
   197  100  101 1    
   198  100  102 1    
   199  100  221 1    
   200  101  222 1    
   201  101  223 1    
   202  101  224 1    
   203  102  103 2    
   204  102  104 am   BACKBONE|DICT|INTERRES
   205  104  105 1    
   206  104  225 1    
   207  105  106 1    
   208  105  107 1    
   209  105  226 1    
   210  106  227 1    
   211  106  228 1    
   212  106  229 1    
   213  107  108 2    
   214  107  109 am   BACKBONE|DICT|INTERRES
   215  109  110 1    
   216  109  230 1    
   217  110  111 1    
   218  110  112 1    
   219  110  231 1    
   220  111  232 1    
   221  111  233 1    
   222  111  234 1    
   223  112  113 2    
   224  112  114 am   BACKBONE|DICT|INTERRES
   225  114  115 1    
   226  114  235 1    
   227  115  116 1    
   228  115  117 1    
   229  115  236 1    
   230  116  237 1    
   231  116  238 1    
   232  116  239 1    
   233  117  118 2    
   234  117  119 am   BACKBONE|DICT|INTERRES
   235  119  120 1    
   236  119  240 1    
   237  120  121 1    
   238  120  124 1    
   239  120  241 1    
   240  121  122 am   BACKBONE|DICT|INTERRES
   241  121  123 2    
   242  122  242 1    
   243  122  243 1    
   244  124  125 1    
   245  124  244 1    
   246  124  245 1    
   247  125  126 1    
   248  126  246 1    
   249  126  247 1    
@<TRIPOS>SUBSTRUCTURE
     1 UNK         1 GROUP             0       ****    0 ROOT    
