@<TRIPOS>MOLECULE
3R540
247   249    1
SMALL
USER_CHARGES


@<TRIPOS>ATOM
      1 CA         -4.2565  -13.9230  -52.7640 C.3       0 UNK        -0.1800 
      2 C          -3.4192  -13.3647  -51.6212 C.2       0 UNK         0.5000 
      3 O          -3.9727  -12.8039  -50.6756 O.2       0 UNK        -0.5000 
      4 N          -2.0917  -13.5144  -51.7081 N.am      1 UNK        -0.5000 
      5 CA         -1.1151  -13.1369  -50.6806 C.3       1 UNK         0.1400 
      6 C6          0.3585  -13.1644  -51.1901 C.3       23 UNK        -0.0398 
      7 S7          0.7136  -14.2858  -52.5986 S.3       23 UNK        -0.2404 
      8 C8          2.1742  -15.2163  -52.0379 C.3       23 UNK        -0.0205 
      9 C9          1.7756  -16.5584  -51.4501 C.ar      23 UNK        -0.0193 
     10 C10         1.7275  -17.6962  -52.2618 C.ar      23 UNK        -0.1150 
     11 C11         1.3239  -18.9258  -51.7341 C.ar      23 UNK        -0.0193 
     12 C12         0.9655  -19.0107  -50.3869 C.ar      23 UNK        -0.1150 
     13 C13         1.0368  -17.8861  -49.5585 C.ar      23 UNK        -0.0193 
     14 C14         1.4408  -16.6623  -50.0989 C.ar      23 UNK        -0.1150 
     15 C15         0.6619  -17.9654  -48.0865 C.3       23 UNK        -0.0205 
     16 S16         1.5026  -19.3237  -47.2058 S.3       23 UNK        -0.2404 
     17 C17         0.2228  -20.6242  -47.2211 C.3       23 UNK        -0.0398 
     18 CA          0.7365  -21.9896  -47.7352 C.3       11 UNK         0.1400 
     19 N           1.7994  -22.5331  -46.8817 N.am      11 UNK        -0.5000 
     20 C           2.5972  -23.5603  -47.2067 C.2       10 UNK         0.5000 
     21 O           2.5400  -24.1597  -48.2807 O.2       10 UNK        -0.5000 
     22 CA          3.6159  -24.0055  -46.1450 C.3       10 UNK         0.1400 
     23 CB          4.8646  -23.1099  -46.1812 C.3       10 UNK        -0.1800 
     24 N           3.0303  -23.9699  -44.8049 N.am      10 UNK        -0.5000 
     25 C           2.3964  -24.9964  -44.2215 C.2       9 UNK         0.5000 
     26 O           2.2787  -26.1081  -44.7375 O.2       9 UNK        -0.5000 
     27 CA          1.7837  -24.7456  -42.8276 C.3       9 UNK         0.1400 
     28 CB          2.7825  -25.1297  -41.7255 C.3       9 UNK        -0.1800 
     29 N           1.3555  -23.3612  -42.6201 N.am      9 UNK        -0.5000 
     30 C           0.3255  -22.7828  -43.2514 C.2       8 UNK         0.5000 
     31 O          -0.4090  -23.3755  -44.0404 O.2       8 UNK        -0.5000 
     32 CA          0.1078  -21.2780  -43.0043 C.3       8 UNK         0.1400 
     33 CB         -0.9221  -21.0453  -41.8901 C.3       8 UNK        -0.1800 
     34 N           1.3230  -20.5126  -42.7069 N.am      8 UNK        -0.5000 
     35 C           2.4178  -20.4404  -43.4793 C.2       7 UNK         0.5000 
     36 O           2.5830  -21.1392  -44.4784 O.2       7 UNK        -0.5000 
     37 CA          3.4977  -19.4116  -43.0940 C.3       7 UNK         0.1400 
     38 CB          3.8258  -18.4949  -44.2834 C.3       7 UNK        -0.1800 
     39 N           3.0994  -18.5771  -41.9583 N.am      7 UNK        -0.5000 
     40 C           3.3638  -18.8570  -40.6752 C.2       6 UNK         0.5000 
     41 O           3.9653  -19.8651  -40.3045 O.2       6 UNK        -0.5000 
     42 CA          2.8374  -17.8613  -39.6333 C.3       6 UNK         0.1400 
     43 CB          3.7125  -16.5977  -39.6045 C.3       6 UNK        -0.1800 
     44 N           1.4597  -17.4770  -39.9347 N.am      6 UNK        -0.5000 
     45 C           0.3830  -17.8146  -39.2112 C.2       5 UNK         0.5000 
     46 O           0.4325  -18.5570  -38.2295 O.2       5 UNK        -0.5000 
     47 CA         -0.9829  -17.2400  -39.6606 C.3       5 UNK         0.1400 
     48 CB         -1.8843  -16.8606  -38.4677 C.3       5 UNK        -0.1800 
     49 N          -0.8762  -16.1264  -40.6130 N.am      5 UNK        -0.5000 
     50 C          -0.2979  -14.9289  -40.4234 C.2       4 UNK         0.5000 
     51 O           0.1209  -14.5355  -39.3342 O.2       4 UNK        -0.5000 
     52 CA         -0.1219  -14.0422  -41.6782 C.3       4 UNK         0.1400 
     53 CB          1.1819  -13.2193  -41.6276 C.3       4 UNK        -0.1800 
     54 N          -0.2059  -14.7758  -42.9510 N.am      4 UNK        -0.5000 
     55 C           0.5715  -15.7867  -43.3752 C.2       3 UNK         0.5000 
     56 O           1.4748  -16.2875  -42.7006 O.2       3 UNK        -0.5000 
     57 CA          0.2344  -16.3948  -44.7497 C.3       3 UNK         0.1400 
     58 CB         -0.3552  -17.7989  -44.5550 C.3       3 UNK        -0.1800 
     59 N          -0.7300  -15.5888  -45.5012 N.am      3 UNK        -0.5000 
     60 C          -0.4095  -14.6052  -46.3500 C.2       2 UNK         0.5000 
     61 O           0.7469  -14.2929  -46.6416 O.2       2 UNK        -0.5000 
     62 CA         -1.5910  -13.8013  -46.9176 C.3       2 UNK         0.1400 
     63 CB         -1.9524  -12.6477  -45.9690 C.3       2 UNK        -0.1800 
     64 N          -1.3121  -13.2501  -48.2423 N.am      2 UNK        -0.5000 
     65 C          -1.3215  -13.9501  -49.3838 C.2       1 UNK         0.5000 
     66 O          -1.5231  -15.1645  -49.4437 O.2       1 UNK        -0.5000 
     67 C          -0.4530  -22.9618  -47.8970 C.2       11 UNK         0.5000 
     68 O          -1.1623  -22.8701  -48.8970 O.2       11 UNK        -0.5000 
     69 N          -0.6549  -23.8464  -46.9071 N.am      12 UNK        -0.5000 
     70 CA         -1.7387  -24.8285  -46.7721 C.3       12 UNK         0.1400 
     71 CB         -1.7619  -25.8116  -47.9611 C.3       12 UNK        -0.1800 
     72 C          -3.1205  -24.1973  -46.4906 C.2       12 UNK         0.5000 
     73 O          -4.1398  -24.8765  -46.6236 O.2       12 UNK        -0.5000 
     74 N          -3.1284  -22.9257  -46.0779 N.am      13 UNK        -0.5000 
     75 CA         -4.2776  -22.0902  -45.7480 C.3       13 UNK         0.1400 
     76 CB         -5.1679  -21.8665  -46.9874 C.3       13 UNK        -0.1800 
     77 C          -3.7426  -20.7533  -45.2077 C.2       13 UNK         0.5000 
     78 O          -2.5311  -20.5227  -45.2265 O.2       13 UNK        -0.5000 
     79 N          -4.6508  -19.8812  -44.7523 N.am      14 UNK        -0.5000 
     80 CA         -4.3378  -18.5425  -44.2380 C.3       14 UNK         0.1400 
     81 CB         -5.5645  -17.9993  -43.4898 C.3       14 UNK        -0.1800 
     82 C          -3.8775  -17.5379  -45.3172 C.2       14 UNK         0.5000 
     83 O          -3.3542  -16.4772  -44.9696 O.2       14 UNK        -0.5000 
     84 N          -4.0657  -17.8759  -46.5962 N.am      15 UNK        -0.5000 
     85 CA         -3.6412  -17.1035  -47.7552 C.3       15 UNK         0.1400 
     86 CB         -4.6448  -15.9644  -48.0222 C.3       15 UNK        -0.1800 
     87 C          -3.5350  -18.0385  -48.9656 C.2       15 UNK         0.5000 
     88 O          -4.0209  -19.1692  -48.9103 O.2       15 UNK        -0.5000 
     89 N          -2.9303  -17.5301  -50.0451 N.am      16 UNK        -0.5000 
     90 CA         -2.7648  -18.2007  -51.3377 C.3       16 UNK         0.1400 
     91 CB         -1.9987  -17.2557  -52.2748 C.3       16 UNK        -0.1800 
     92 C          -4.0875  -18.6200  -52.0091 C.2       16 UNK         0.5000 
     93 O          -4.1040  -19.5998  -52.7572 O.2       16 UNK        -0.5000 
     94 N          -5.1596  -17.8560  -51.7421 N.am      17 UNK        -0.5000 
     95 CA         -6.5331  -18.0535  -52.2196 C.3       17 UNK         0.1400 
     96 CB         -7.1390  -19.3242  -51.5864 C.3       17 UNK        -0.1800 
     97 C          -6.6278  -18.0441  -53.7591 C.2       17 UNK         0.5000 
     98 O          -7.2395  -18.9340  -54.3479 O.2       17 UNK        -0.5000 
     99 N          -5.9615  -17.0630  -54.3881 N.am      18 UNK        -0.5000 
    100 CA        -5.7916  -16.9181  -55.8427 C.3       18 UNK         0.1400 
    101 CB        -7.1349  -16.5836  -56.5247 C.3       18 UNK        -0.1800 
    102 C         -5.0734  -18.1320  -56.4770 C.2       18 UNK         0.5000 
    103 O         -5.4155  -18.5565  -57.5813 O.2       18 UNK        -0.5000 
    104 N         -4.1009  -18.6704  -55.7282 N.am      19 UNK        -0.5000 
    105 CA        -3.2859  -19.8594  -55.9885 C.3       19 UNK         0.1400 
    106 CB        -2.5389  -19.7666  -57.3346 C.3       19 UNK        -0.1800 
    107 C         -4.0274  -21.2012  -55.8143 C.2       19 UNK         0.5000 
    108 O         -3.4265  -22.2467  -56.0702 O.2       19 UNK        -0.5000 
    109 N         -5.2839  -21.1836  -55.3419 N.am      20 UNK        -0.5000 
    110 CA        -6.0691  -22.3921  -55.0756 C.3       20 UNK         0.1400 
    111 CB        -7.5462  -22.0296  -54.8661 C.3       20 UNK        -0.1800 
    112 C         -5.5398  -23.2034  -53.8789 C.2       20 UNK         0.5000 
    113 O         -5.6708  -24.4281  -53.8844 O.2       20 UNK        -0.5000 
    114 N         -4.9379  -22.5249  -52.8901 N.am      21 UNK        -0.5000 
    115 CA        -4.2507  -23.1764  -51.7733 C.3       21 UNK         0.1400 
    116 CB        -4.1777  -22.2162  -50.5781 C.3       21 UNK        -0.1800 
    117 C         -2.8432  -23.6473  -52.1820 C.2       21 UNK         0.5000 
    118 O         -2.3983  -24.7023  -51.7291 O.2       21 UNK        -0.5000 
    119 N         -2.1833  -22.8607  -53.0425 N.am      22 UNK        -0.5000 
    120 CA        -0.8363  -23.1209  -53.5714 C.3       22 UNK         0.1400 
    121 C         -0.7720  -24.3563  -54.5106 C.2       22 UNK         0.5000 
    122 N         -1.7365  -24.5339  -55.4058 N.am      22 UNK        -0.7600 
    123 O          0.1585  -25.1533  -54.4295 O.2       22 UNK        -0.5000 
    124 C124       -0.2342  -21.8838  -54.2876 C.3       23 UNK        -0.0398 
    125 S125       -0.3976  -20.3396  -53.3323 S.3       23 UNK        -0.2404 
    126 C126        1.2594  -20.1598  -52.6184 C.3       23 UNK        -0.0205 
    127 H127       -4.8677  -13.1334  -53.2012 H         1 UNK         0.0600 
    128 H128       -4.9206  -14.7025  -52.3918 H         1 UNK         0.0600 
    129 H129       -3.6356  -14.3468  -53.5537 H         1 UNK         0.0600 
    130 H130       -1.6908  -13.9940  -52.5020 H         1 UNK         0.3000 
    131 H131       -1.3369  -12.0967  -50.4311 H         1 UNK         0.0600 
    132 H132        0.6181  -12.1637  -51.5378 H         1 UNK         0.0800 
    133 H133        1.0548  -13.3597  -50.3728 H         1 UNK         0.0800 
    134 H134        2.8340  -15.3724  -52.8927 H         1 UNK         0.0800 
    135 H135        2.7522  -14.6360  -51.3174 H         1 UNK         0.0800 
    136 H136        1.9845  -17.6210  -53.3090 H         1 UNK         0.1150 
    137 H137        0.6323  -19.9558  -49.9868 H         1 UNK         0.1150 
    138 H138        1.4758  -15.7824  -49.4718 H         1 UNK         0.1150 
    139 H139        0.9435  -17.0365  -47.5920 H         1 UNK         0.0800 
    140 H140       -0.4211  -18.0387  -47.9882 H         1 UNK         0.0800 
    141 H141       -0.1520  -20.7247  -46.2041 H         1 UNK         0.0800 
    142 H142       -0.6254  -20.2883  -47.8208 H         1 UNK         0.0800 
    143 H143        1.1605  -21.8429  -48.7304 H         1 UNK         0.0600 
    144 H144        1.9716  -22.0440  -46.0069 H         1 UNK         0.3000 
    145 H145        3.9287  -25.0245  -46.3825 H         1 UNK         0.0600 
    146 H146        5.6042  -23.4366  -45.4502 H         1 UNK         0.0600 
    147 H147        4.6248  -22.0669  -45.9716 H         1 UNK         0.0600 
    148 H148        5.3393  -23.1450  -47.1625 H         1 UNK         0.0600 
    149 H149        3.0186  -23.0634  -44.3507 H         1 UNK         0.3000 
    150 H150        0.9068  -25.3898  -42.7327 H         1 UNK         0.0600 
    151 H151        3.6752  -24.5035  -41.7553 H         1 UNK         0.0600 
    152 H152        2.3356  -25.0317  -40.7361 H         1 UNK         0.0600 
    153 H153        3.1046  -26.1662  -41.8342 H         1 UNK         0.0600 
    154 H154        1.9136  -22.7974  -41.9958 H         1 UNK         0.3000 
    155 H155       -0.3034  -20.8667  -43.9250 H         1 UNK         0.0600 
    156 H156       -1.8450  -21.5910  -42.0919 H         1 UNK         0.0600 
    157 H157       -1.1842  -19.9902  -41.8129 H         1 UNK         0.0600 
    158 H158       -0.5479  -21.3742  -40.9199 H         1 UNK         0.0600 
    159 H159        1.2915  -19.9153  -41.8949 H         1 UNK         0.3000 
    160 H160        4.4008  -19.9716  -42.8435 H         1 UNK         0.0600 
    161 H161        4.1832  -19.0705  -45.1384 H         1 UNK         0.0600 
    162 H162        4.6064  -17.7789  -44.0263 H         1 UNK         0.0600 
    163 H163        2.9514  -17.9336  -44.6114 H         1 UNK         0.0600 
    164 H164        2.5907  -17.7270  -42.1879 H         1 UNK         0.3000 
    165 H165        2.9004  -18.3379  -38.6528 H         1 UNK         0.0600 
    166 H166        3.3759  -15.9069  -38.8312 H         1 UNK         0.0600 
    167 H167        4.7526  -16.8462  -39.3897 H         1 UNK         0.0600 
    168 H168        3.6894  -16.0661  -40.5570 H         1 UNK         0.0600 
    169 H169        1.3277  -16.8849  -40.7469 H         1 UNK         0.3000 
    170 H170       -1.4803  -18.0470  -40.1997 H         1 UNK         0.0600 
    171 H171       -2.1009  -17.7313  -37.8478 H         1 UNK         0.0600 
    172 H172       -1.4165  -16.1136  -37.8260 H         1 UNK         0.0600 
    173 H173       -2.8400  -16.4611  -38.8070 H         1 UNK         0.0600 
    174 H174       -1.1923  -16.3302  -41.5497 H         1 UNK         0.3000 
    175 H175       -0.9579  -13.3414  -41.6720 H         1 UNK         0.0600 
    176 H176        2.0618  -13.8600  -41.5578 H         1 UNK         0.0600 
    177 H177        1.2901  -12.5972  -42.5160 H         1 UNK         0.0600 
    178 H178        1.1940  -12.5528  -40.7645 H         1 UNK         0.0600 
    179 H179       -0.9409  -14.4745  -43.5738 H         1 UNK         0.3000 
    180 H180        1.1635  -16.4802  -45.3151 H         1 UNK         0.0600 
    181 H181        0.4149  -18.4861  -44.2158 H         1 UNK         0.0600 
    182 H182       -0.7591  -18.2018  -45.4831 H         1 UNK         0.0600 
    183 H183       -1.1546  -17.8106  -43.8141 H         1 UNK         0.0600 
    184 H184       -1.7121  -15.7944  -45.3192 H         1 UNK         0.3000 
    185 H185       -2.4581  -14.4567  -46.9936 H         1 UNK         0.0600 
    186 H186       -2.2258  -13.0220  -44.9817 H         1 UNK         0.0600 
    187 H187       -1.1193  -11.9554  -45.8396 H         1 UNK         0.0600 
    188 H188       -2.8051  -12.0813  -46.3443 H         1 UNK         0.0600 
    189 H189       -1.1121  -12.2613  -48.2745 H         1 UNK         0.3000 
    190 H190       -0.0553  -23.7795  -46.0929 H         1 UNK         0.3000 
    191 H191       -1.4942  -25.4068  -45.8801 H         1 UNK         0.0600 
    192 H192       -2.4356  -26.6462  -47.7646 H         1 UNK         0.0600 
    193 H193       -0.7729  -26.2306  -48.1465 H         1 UNK         0.0600 
    194 H194       -2.1015  -25.3316  -48.8794 H         1 UNK         0.0600 
    195 H195       -2.2430  -22.4538  -45.9391 H         1 UNK         0.3000 
    196 H196       -4.8522  -22.5771  -44.9583 H         1 UNK         0.0600 
    197 H197       -4.5971  -21.4293  -47.8049 H         1 UNK         0.0600 
    198 H198       -5.6014  -22.7984  -47.3488 H         1 UNK         0.0600 
    199 H199       -6.0003  -21.1963  -46.7722 H         1 UNK         0.0600 
    200 H200       -5.6278  -20.1362  -44.7684 H         1 UNK         0.3000 
    201 H201       -3.5199  -18.6388  -43.5211 H         1 UNK         0.0600 
    202 H202       -5.3580  -17.0190  -43.0578 H         1 UNK         0.0600 
    203 H203       -5.8512  -18.6586  -42.6703 H         1 UNK         0.0600 
    204 H204       -6.4240  -17.8912  -44.1524 H         1 UNK         0.0600 
    205 H205       -4.4504  -18.7838  -46.8247 H         1 UNK         0.3000 
    206 H206       -2.6474  -16.6983  -47.5620 H         1 UNK         0.0600 
    207 H207       -4.7466  -15.3090  -47.1573 H         1 UNK         0.0600 
    208 H208       -4.3243  -15.3424  -48.8588 H         1 UNK         0.0600 
    209 H209       -5.6354  -16.3534  -48.2608 H         1 UNK         0.0600 
    210 H210       -2.4918  -16.6138  -49.9579 H         1 UNK         0.3000 
    211 H211       -2.1692  -19.1004  -51.1733 H         1 UNK         0.0600 
    212 H212       -2.5587  -16.3424  -52.4696 H         1 UNK         0.0600 
    213 H213       -1.7953  -17.7263  -53.2368 H         1 UNK         0.0600 
    214 H214       -1.0413  -16.9680  -51.8436 H         1 UNK         0.0600 
    215 H215       -5.0228  -17.0798  -51.1117 H         1 UNK         0.3000 
    216 H216       -7.1141  -17.1993  -51.8696 H         1 UNK         0.0600 
    217 H217       -7.0690  -19.2932  -50.4990 H         1 UNK         0.0600 
    218 H218       -6.6334  -20.2284  -51.9256 H         1 UNK         0.0600 
    219 H219       -8.1943  -19.4245  -51.8424 H         1 UNK         0.0600 
    220 H220       -5.4806  -16.3813  -53.8204 H         1 UNK         0.3000 
    221 H221       -5.1285  -16.0645  -55.9911 H         1 UNK         0.0600 
    222 H222       -6.9880  -16.3404  -57.5775 H         1 UNK         0.0600 
    223 H223       -7.8343  -17.4188  -56.4782 H         1 UNK         0.0600 
    224 H224       -7.6102  -15.7215  -56.0570 H         1 UNK         0.0600 
    225 H225       -3.9613  -18.2707  -54.8113 H         1 UNK         0.3000 
    226 H226       -2.5291  -19.8491  -55.2060 H         1 UNK         0.0600 
    227 H227       -2.0092  -18.8186  -57.4280 H         1 UNK         0.0600 
    228 H228       -1.7967  -20.5606  -57.4236 H         1 UNK         0.0600 
    229 H229       -3.2154  -19.8617  -58.1839 H         1 UNK         0.0600 
    230 H230       -5.7229  -20.2976  -55.1216 H         1 UNK         0.3000 
    231 H231       -6.0058  -23.0293  -55.9603 H         1 UNK         0.0600 
    232 H232       -8.1608  -22.9286  -54.8083 H         1 UNK         0.0600 
    233 H233       -7.9286  -21.4253  -55.6890 H         1 UNK         0.0600 
    234 H234       -7.6974  -21.4750  -53.9398 H         1 UNK         0.0600 
    235 H235       -4.8494  -21.5159  -52.9576 H         1 UNK         0.3000 
    236 H236       -4.8257  -24.0511  -51.4618 H         1 UNK         0.0600 
    237 H237       -3.5193  -21.3700  -50.7744 H         1 UNK         0.0600 
    238 H238       -5.1608  -21.8243  -50.3171 H         1 UNK         0.0600 
    239 H239       -3.7867  -22.7305  -49.6995 H         1 UNK         0.0600 
    240 H240       -2.6265  -22.0104  -53.3543 H         1 UNK         0.3000 
    241 H241       -0.1996  -23.3392  -52.7116 H         1 UNK         0.0600 
    242 H242       -2.4599  -23.8309  -55.5312 H         1 UNK         0.3800 
    243 H243       -1.7065  -25.3332  -56.0180 H         1 UNK         0.3800 
    244 H244       -0.7294  -21.7225  -55.2465 H         1 UNK         0.0800 
    245 H245        0.8181  -22.0551  -54.5210 H         1 UNK         0.0800 
    246 H246        1.9984  -20.0903  -53.4181 H         1 UNK         0.0800 
    247 H247        1.5061  -21.0506  -52.0386 H         1 UNK         0.0800 
@<TRIPOS>BOND
     1    1    2 1    
     2    1  127 1    
     3    1  128 1    
     4    1  129 1    
     5    2    3 2    
     6    2    4 am   BACKBONE|DICT|INTERRES
     7    4    5 1    
     8    4  130 1    
     9    5    6 1    
    10    5   65 1    
    11    5  131 1    
    12    6    7 1    
    13    6  132 1    
    14    6  133 1    
    15    7    8 1    
    16    8    9 1    
    17    8  134 1    
    18    8  135 1    
    19    9   10 ar   
    20    9   14 ar   
    21   10   11 ar   
    22   10  136 1    
    23   11   12 ar   
    24   11  126 1    
    25   12   13 ar   
    26   12  137 1    
    27   13   14 ar   
    28   13   15 1    
    29   14  138 1    
    30   15   16 1    
    31   15  139 1    
    32   15  140 1    
    33   16   17 1    
    34   17   18 1    
    35   17  141 1    
    36   17  142 1    
    37   18   19 1    
    38   18   67 1    
    39   18  143 1    
    40   19   20 am   BACKBONE|DICT|INTERRES
    41   19  144 1    
    42   20   21 2    
    43   20   22 1    
    44   22   23 1    
    45   22   24 1    
    46   22  145 1    
    47   23  146 1    
    48   23  147 1    
    49   23  148 1    
    50   24   25 am   BACKBONE|DICT|INTERRES
    51   24  149 1    
    52   25   26 2    
    53   25   27 1    
    54   27   28 1    
    55   27   29 1    
    56   27  150 1    
    57   28  151 1    
    58   28  152 1    
    59   28  153 1    
    60   29   30 am   BACKBONE|DICT|INTERRES
    61   29  154 1    
    62   30   31 2    
    63   30   32 1    
    64   32   33 1    
    65   32   34 1    
    66   32  155 1    
    67   33  156 1    
    68   33  157 1    
    69   33  158 1    
    70   34   35 am   BACKBONE|DICT|INTERRES
    71   34  159 1    
    72   35   36 2    
    73   35   37 1    
    74   37   38 1    
    75   37   39 1    
    76   37  160 1    
    77   38  161 1    
    78   38  162 1    
    79   38  163 1    
    80   39   40 am   BACKBONE|DICT|INTERRES
    81   39  164 1    
    82   40   41 2    
    83   40   42 1    
    84   42   43 1    
    85   42   44 1    
    86   42  165 1    
    87   43  166 1    
    88   43  167 1    
    89   43  168 1    
    90   44   45 am   BACKBONE|DICT|INTERRES
    91   44  169 1    
    92   45   46 2    
    93   45   47 1    
    94   47   48 1    
    95   47   49 1    
    96   47  170 1    
    97   48  171 1    
    98   48  172 1    
    99   48  173 1    
   100   49   50 am   BACKBONE|DICT|INTERRES
   101   49  174 1    
   102   50   51 2    
   103   50   52 1    
   104   52   53 1    
   105   52   54 1    
   106   52  175 1    
   107   53  176 1    
   108   53  177 1    
   109   53  178 1    
   110   54   55 am   BACKBONE|DICT|INTERRES
   111   54  179 1    
   112   55   56 2    
   113   55   57 1    
   114   57   58 1    
   115   57   59 1    
   116   57  180 1    
   117   58  181 1    
   118   58  182 1    
   119   58  183 1    
   120   59   60 am   BACKBONE|DICT|INTERRES
   121   59  184 1    
   122   60   61 2    
   123   60   62 1    
   124   62   63 1    
   125   62   64 1    
   126   62  185 1    
   127   63  186 1    
   128   63  187 1    
   129   63  188 1    
   130   64   65 am   BACKBONE|DICT|INTERRES
   131   64  189 1    
   132   65   66 2    
   133   67   68 2    
   134   67   69 am   BACKBONE|DICT|INTERRES
   135   69   70 1    
   136   69  190 1    
   137   70   71 1    
   138   70   72 1    
   139   70  191 1    
   140   71  192 1    
   141   71  193 1    
   142   71  194 1    
   143   72   73 2    
   144   72   74 am   BACKBONE|DICT|INTERRES
   145   74   75 1    
   146   74  195 1    
   147   75   76 1    
   148   75   77 1    
   149   75  196 1    
   150   76  197 1    
   151   76  198 1    
   152   76  199 1    
   153   77   78 2    
   154   77   79 am   BACKBONE|DICT|INTERRES
   155   79   80 1    
   156   79  200 1    
   157   80   81 1    
   158   80   82 1    
   159   80  201 1    
   160   81  202 1    
   161   81  203 1    
   162   81  204 1    
   163   82   83 2    
   164   82   84 am   BACKBONE|DICT|INTERRES
   165   84   85 1    
   166   84  205 1    
   167   85   86 1    
   168   85   87 1    
   169   85  206 1    
   170   86  207 1    
   171   86  208 1    
   172   86  209 1    
   173   87   88 2    
   174   87   89 am   BACKBONE|DICT|INTERRES
   175   89   90 1    
   176   89  210 1    
   177   90   91 1    
   178   90   92 1    
   179   90  211 1    
   180   91  212 1    
   181   91  213 1    
   182   91  214 1    
   183   92   93 2    
   184   92   94 am   BACKBONE|DICT|INTERRES
   185   94   95 1    
   186   94  215 1    
   187   95   96 1    
   188   95   97 1    
   189   95  216 1    
   190   96  217 1    
   191   96  218 1    
   192   96  219 1    
   193   97   98 2    
   194   97   99 am   BACKBONE|DICT|INTERRES
   195   99  100 1    
   196   99  220 1    
   197  100  101 1    
   198  100  102 1    
   199  100  221 1    
   200  101  222 1    
   201  101  223 1    
   202  101  224 1    
   203  102  103 2    
   204  102  104 am   BACKBONE|DICT|INTERRES
   205  104  105 1    
   206  104  225 1    
   207  105  106 1    
   208  105  107 1    
   209  105  226 1    
   210  106  227 1    
   211  106  228 1    
   212  106  229 1    
   213  107  108 2    
   214  107  109 am   BACKBONE|DICT|INTERRES
   215  109  110 1    
   216  109  230 1    
   217  110  111 1    
   218  110  112 1    
   219  110  231 1    
   220  111  232 1    
   221  111  233 1    
   222  111  234 1    
   223  112  113 2    
   224  112  114 am   BACKBONE|DICT|INTERRES
   225  114  115 1    
   226  114  235 1    
   227  115  116 1    
   228  115  117 1    
   229  115  236 1    
   230  116  237 1    
   231  116  238 1    
   232  116  239 1    
   233  117  118 2    
   234  117  119 am   BACKBONE|DICT|INTERRES
   235  119  120 1    
   236  119  240 1    
   237  120  121 1    
   238  120  124 1    
   239  120  241 1    
   240  121  122 am   BACKBONE|DICT|INTERRES
   241  121  123 2    
   242  122  242 1    
   243  122  243 1    
   244  124  125 1    
   245  124  244 1    
   246  124  245 1    
   247  125  126 1    
   248  126  246 1    
   249  126  247 1    
@<TRIPOS>SUBSTRUCTURE
     1 UNK         1 GROUP             0       ****    0 ROOT    
