@<TRIPOS>MOLECULE
3R540
247   249    1
SMALL
USER_CHARGES


@<TRIPOS>ATOM
      1 CA         -2.4665  -19.8813  -45.0259 C.3       0 UNK        -0.1800 
      2 C          -1.7057  -19.1515  -46.1203 C.2       0 UNK         0.5000 
      3 O          -2.1915  -19.0637  -47.2464 O.2       0 UNK        -0.5000 
      4 N          -0.5201  -18.6230  -45.7968 N.am      1 UNK        -0.5000 
      5 CA          0.2646  -17.7407  -46.6620 C.3       1 UNK         0.1400 
      6 C6          1.7408  -17.6527  -46.1859 C.3       23 UNK        -0.0398 
      7 S7          2.7279  -16.2842  -46.8996 S.3       23 UNK        -0.2404 
      8 C8          3.5818  -17.0980  -48.2848 C.3       23 UNK        -0.0205 
      9 C9          2.6189  -17.6248  -49.3401 C.ar      23 UNK        -0.0193 
     10 C10         1.8301  -16.7452  -50.0875 C.ar      23 UNK        -0.1150 
     11 C11         0.9634  -17.2281  -51.0715 C.ar      23 UNK        -0.0193 
     12 C12         0.9073  -18.6008  -51.3203 C.ar      23 UNK        -0.1150 
     13 C13         1.6831  -19.4928  -50.5769 C.ar      23 UNK        -0.0193 
     14 C14         2.5358  -18.9968  -49.5883 C.ar      23 UNK        -0.1150 
     15 C15         1.6335  -20.9853  -50.8682 C.3       23 UNK        -0.0205 
     16 S16        -0.0423  -21.6856  -50.7417 S.3       23 UNK        -0.2404 
     17 C17        -0.4651  -21.4665  -48.9821 C.3       23 UNK        -0.0398 
     18 CA         -0.0109  -22.6743  -48.1259 C.3       11 UNK         0.1400 
     19 N           1.3952  -22.5502  -47.7195 N.am      11 UNK        -0.5000 
     20 C           2.1373  -23.4916  -47.1185 C.2       10 UNK         0.5000 
     21 O           1.7140  -24.6110  -46.8295 O.2       10 UNK        -0.5000 
     22 CA          3.5767  -23.1024  -46.7219 C.3       10 UNK         0.1400 
     23 CB          4.1986  -22.0285  -47.6366 C.3       10 UNK        -0.1800 
     24 N           3.7017  -22.6799  -45.3217 N.am      10 UNK        -0.5000 
     25 C           2.9867  -21.7457  -44.6776 C.2       9 UNK         0.5000 
     26 O           2.0108  -21.1589  -45.1541 O.2       9 UNK        -0.5000 
     27 CA          3.4721  -21.3835  -43.2686 C.3       9 UNK         0.1400 
     28 CB          4.5912  -20.3303  -43.3336 C.3       9 UNK        -0.1800 
     29 N           2.3529  -20.8529  -42.5023 N.am      9 UNK        -0.5000 
     30 C           2.1871  -20.9599  -41.1823 C.2       8 UNK         0.5000 
     31 O           3.0198  -21.4767  -40.4346 O.2       8 UNK        -0.5000 
     32 CA          0.8718  -20.3895  -40.6077 C.3       8 UNK         0.1400 
     33 CB          0.7175  -20.6619  -39.1003 C.3       8 UNK        -0.1800 
     34 N           0.7244  -18.9518  -40.8364 N.am      8 UNK        -0.5000 
     35 C           0.4029  -18.3629  -41.9943 C.2       7 UNK         0.5000 
     36 O           0.2671  -18.9628  -43.0642 O.2       7 UNK        -0.5000 
     37 CA          0.2207  -16.8369  -41.9423 C.3       7 UNK         0.1400 
     38 CB          1.5481  -16.1211  -42.2181 C.3       7 UNK        -0.1800 
     39 N          -0.8046  -16.3677  -42.8777 N.am      7 UNK        -0.5000 
     40 C          -2.1132  -16.6146  -42.7263 C.2       6 UNK         0.5000 
     41 O          -2.5740  -17.2587  -41.7815 O.2       6 UNK        -0.5000 
     42 CA         -3.0590  -15.9810  -43.7609 C.3       6 UNK         0.1400 
     43 CB         -4.5462  -16.2514  -43.4330 C.3       6 UNK        -0.1800 
     44 N          -2.7656  -14.5494  -43.8267 N.am      6 UNK        -0.5000 
     45 C          -3.3204  -13.6417  -44.6350 C.2       5 UNK         0.5000 
     46 O          -4.2174  -13.8889  -45.4407 O.2       5 UNK        -0.5000 
     47 CA         -2.7675  -12.2079  -44.5492 C.3       5 UNK         0.1400 
     48 CB         -3.1298  -11.5298  -43.2131 C.3       5 UNK        -0.1800 
     49 N          -1.3334  -12.1145  -44.8447 N.am      5 UNK        -0.5000 
     50 C          -0.2859  -12.5554  -44.1320 C.2       4 UNK         0.5000 
     51 O          -0.3860  -13.1297  -43.0466 O.2       4 UNK        -0.5000 
     52 CA          1.0947  -12.3317  -44.7777 C.3       4 UNK         0.1400 
     53 CB          2.2346  -13.0956  -44.0859 C.3       4 UNK        -0.1800 
     54 N           1.0346  -12.7488  -46.1737 N.am      4 UNK        -0.5000 
     55 C           1.2636  -11.9700  -47.2377 C.2       3 UNK         0.5000 
     56 O           1.6476  -10.8026  -47.1635 O.2       3 UNK        -0.5000 
     57 CA          0.9841  -12.5886  -48.6228 C.3       3 UNK         0.1400 
     58 CB          2.2964  -13.0062  -49.3027 C.3       3 UNK        -0.1800 
     59 N           0.0721  -13.7367  -48.5669 N.am      3 UNK        -0.5000 
     60 C          -1.2284  -13.6565  -48.2482 C.2       2 UNK         0.5000 
     61 O          -1.8091  -12.5923  -48.0332 O.2       2 UNK        -0.5000 
     62 CA         -2.0054  -14.9792  -48.1116 C.3       2 UNK         0.1400 
     63 CB         -2.8801  -15.2241  -49.3493 C.3       2 UNK        -0.1800 
     64 N          -1.1661  -16.1550  -47.8663 N.am      2 UNK        -0.5000 
     65 C          -0.4566  -16.3774  -46.7510 C.2       1 UNK         0.5000 
     66 O          -0.3782  -15.5793  -45.8130 O.2       1 UNK        -0.5000 
     67 C          -0.9819  -22.9332  -46.9511 C.2       11 UNK         0.5000 
     68 O          -2.1121  -23.3571  -47.1963 O.2       11 UNK        -0.5000 
     69 N          -0.5292  -22.7558  -45.7016 N.am      12 UNK        -0.5000 
     70 CA         -1.2115  -23.2245  -44.4927 C.3       12 UNK         0.1400 
     71 CB         -0.4097  -22.7865  -43.2632 C.3       12 UNK        -0.1800 
     72 C          -1.4465  -24.7482  -44.4681 C.2       12 UNK         0.5000 
     73 O          -2.4743  -25.1868  -43.9522 O.2       12 UNK        -0.5000 
     74 N          -0.5389  -25.5261  -45.0796 N.am      13 UNK        -0.5000 
     75 CA         -0.6790  -26.9763  -45.2527 C.3       13 UNK         0.1400 
     76 CB          0.6715  -27.5690  -45.6815 C.3       13 UNK        -0.1800 
     77 C          -1.7819  -27.3602  -46.2614 C.2       13 UNK         0.5000 
     78 O          -2.3060  -28.4720  -46.1928 O.2       13 UNK        -0.5000 
     79 N          -2.1292  -26.4265  -47.1568 N.am      14 UNK        -0.5000 
     80 CA         -3.2273  -26.5271  -48.1173 C.3       14 UNK         0.1400 
     81 CB         -2.7553  -25.9403  -49.4597 C.3       14 UNK        -0.1800 
     82 C          -4.4940  -25.8029  -47.6160 C.2       14 UNK         0.5000 
     83 O          -5.4274  -25.6216  -48.3974 O.2       14 UNK        -0.5000 
     84 N          -4.4998  -25.3584  -46.3478 N.am      15 UNK        -0.5000 
     85 CA         -5.5664  -24.6056  -45.6756 C.3       15 UNK         0.1400 
     86 CB         -6.7909  -25.5122  -45.4342 C.3       15 UNK        -0.1800 
     87 C          -5.9299  -23.2853  -46.3921 C.2       15 UNK         0.5000 
     88 O          -7.0947  -22.8849  -46.3923 O.2       15 UNK        -0.5000 
     89 N          -4.9215  -22.6530  -47.0123 N.am      16 UNK        -0.5000 
     90 CA         -4.9861  -21.4392  -47.8333 C.3       16 UNK         0.1400 
     91 CB         -5.5627  -20.2476  -47.0398 C.3       16 UNK        -0.1800 
     92 C          -5.7070  -21.6181  -49.1874 C.2       16 UNK         0.5000 
     93 O          -5.8798  -20.6282  -49.8978 O.2       16 UNK        -0.5000 
     94 N          -6.0923  -22.8483  -49.5638 N.am      17 UNK        -0.5000 
     95 CA         -6.7852  -23.1295  -50.8272 C.3       17 UNK         0.1400 
     96 CB         -7.3627  -24.5520  -50.7991 C.3       17 UNK        -0.1800 
     97 C          -5.8756  -22.9386  -52.0546 C.2       17 UNK         0.5000 
     98 O          -6.3367  -22.4687  -53.0951 O.2       17 UNK        -0.5000 
     99 N          -4.5885  -23.2730  -51.8939 N.am      18 UNK        -0.5000 
    100 CA        -3.5485  -23.0994  -52.9084 C.3       18 UNK         0.1400 
    101 CB        -2.3734  -24.0307  -52.5745 C.3       18 UNK        -0.1800 
    102 C         -3.0673  -21.6409  -53.0451 C.2       18 UNK         0.5000 
    103 O         -2.4316  -21.3098  -54.0465 O.2       18 UNK        -0.5000 
    104 N         -3.3836  -20.7845  -52.0600 N.am      19 UNK        -0.5000 
    105 CA        -2.9383  -19.3891  -51.9949 C.3       19 UNK         0.1400 
    106 CB        -3.1759  -18.8307  -50.5870 C.3       19 UNK        -0.1800 
    107 C         -3.5620  -18.4774  -53.0679 C.2       19 UNK         0.5000 
    108 O         -3.0444  -17.3863  -53.3086 O.2       19 UNK        -0.5000 
    109 N         -4.6154  -18.9607  -53.7429 N.am      20 UNK        -0.5000 
    110 CA        -5.2260  -18.3517  -54.9270 C.3       20 UNK         0.1400 
    111 CB        -6.4241  -19.2087  -55.3612 C.3       20 UNK        -0.1800 
    112 C         -4.2443  -18.1583  -56.1035 C.2       20 UNK         0.5000 
    113 O         -4.4704  -17.2806  -56.9376 O.2       20 UNK        -0.5000 
    114 N         -3.1471  -18.9325  -56.1230 N.am      21 UNK        -0.5000 
    115 CA        -2.0235  -18.7998  -57.0535 C.3       21 UNK         0.1400 
    116 CB        -1.0149  -19.9250  -56.7775 C.3       21 UNK        -0.1800 
    117 C         -1.3196  -17.4263  -57.0044 C.2       21 UNK         0.5000 
    118 O         -0.7256  -17.0259  -58.0067 O.2       21 UNK        -0.5000 
    119 N         -1.4148  -16.7200  -55.8683 N.am      22 UNK        -0.5000 
    120 CA        -0.9546  -15.3294  -55.7161 C.3       22 UNK         0.1400 
    121 C         -1.9187  -14.2703  -56.3335 C.2       22 UNK         0.5000 
    122 N         -3.0992  -14.6290  -56.8268 N.am      22 UNK        -0.7600 
    123 O         -1.5818  -13.0902  -56.3781 O.2       22 UNK        -0.5000 
    124 C124       -0.6216  -14.9793  -54.2424 C.3       23 UNK        -0.0398 
    125 S125        0.7056  -16.0227  -53.5476 S.3       23 UNK        -0.2404 
    126 C126        0.0788  -16.2788  -51.8616 C.3       23 UNK        -0.0205 
    127 H127       -3.2722  -19.2522  -44.6486 H         1 UNK         0.0600 
    128 H128       -1.8209  -20.1454  -44.1901 H         1 UNK         0.0600 
    129 H129       -2.9040  -20.7951  -45.4246 H         1 UNK         0.0600 
    130 H130       -0.1737  -18.7396  -44.8460 H         1 UNK         0.3000 
    131 H131        0.2808  -18.1770  -47.6628 H         1 UNK         0.0600 
    132 H132        2.2451  -18.6008  -46.3778 H         1 UNK         0.0800 
    133 H133        1.7676  -17.5294  -45.1043 H         1 UNK         0.0800 
    134 H134        4.2121  -17.8982  -47.8936 H         1 UNK         0.0800 
    135 H135        4.2564  -16.3789  -48.7513 H         1 UNK         0.0800 
    136 H136        1.8985  -15.6851  -49.9059 H         1 UNK         0.1150 
    137 H137        0.2692  -18.9768  -52.1051 H         1 UNK         0.1150 
    138 H138        3.1586  -19.6759  -49.0299 H         1 UNK         0.1150 
    139 H139        2.0006  -21.1509  -51.8818 H         1 UNK         0.0800 
    140 H140        2.3026  -21.5397  -50.2108 H         1 UNK         0.0800 
    141 H141       -1.5496  -21.3495  -48.9545 H         1 UNK         0.0800 
    142 H142       -0.0610  -20.5279  -48.6011 H         1 UNK         0.0800 
    143 H143       -0.0801  -23.5753  -48.7396 H         1 UNK         0.0600 
    144 H144        1.8101  -21.6389  -47.8393 H         1 UNK         0.3000 
    145 H145        4.1731  -24.0096  -46.8312 H         1 UNK         0.0600 
    146 H146        4.0591  -22.2685  -48.6912 H         1 UNK         0.0600 
    147 H147        3.7735  -21.0444  -47.4461 H         1 UNK         0.0600 
    148 H148        5.2726  -21.9534  -47.4662 H         1 UNK         0.0600 
    149 H149        4.4574  -23.1214  -44.8168 H         1 UNK         0.3000 
    150 H150        3.8474  -22.2906  -42.7902 H         1 UNK         0.0600 
    151 H151        5.4424  -20.6948  -43.9098 H         1 UNK         0.0600 
    152 H152        4.9568  -20.0805  -42.3375 H         1 UNK         0.0600 
    153 H153        4.2453  -19.4084  -43.8036 H         1 UNK         0.0600 
    154 H154        1.6293  -20.3993  -43.0554 H         1 UNK         0.3000 
    155 H155        0.0491  -20.8990  -41.1103 H         1 UNK         0.0600 
    156 H156        1.4949  -20.1652  -38.5183 H         1 UNK         0.0600 
    157 H157        0.7776  -21.7300  -38.8870 H         1 UNK         0.0600 
    158 H158       -0.2490  -20.3152  -38.7338 H         1 UNK         0.0600 
    159 H159        0.8572  -18.3683  -40.0232 H         1 UNK         0.3000 
    160 H160       -0.1011  -16.5658  -40.9344 H         1 UNK         0.0600 
    161 H161        1.8921  -16.2818  -43.2381 H         1 UNK         0.0600 
    162 H162        2.3334  -16.4743  -41.5487 H         1 UNK         0.0600 
    163 H163        1.4480  -15.0485  -42.0559 H         1 UNK         0.0600 
    164 H164       -0.4896  -15.8674  -43.7015 H         1 UNK         0.3000 
    165 H165       -2.8299  -16.4260  -44.7304 H         1 UNK         0.0600 
    166 H166       -5.2086  -15.9173  -44.2303 H         1 UNK         0.0600 
    167 H167       -4.7319  -17.3187  -43.3061 H         1 UNK         0.0600 
    168 H168       -4.8497  -15.7518  -42.5125 H         1 UNK         0.0600 
    169 H169       -1.9927  -14.2345  -43.2448 H         1 UNK         0.3000 
    170 H170       -3.2601  -11.6387  -45.3394 H         1 UNK         0.0600 
    171 H171       -4.2102  -11.5221  -43.0649 H         1 UNK         0.0600 
    172 H172       -2.6905  -12.0406  -42.3561 H         1 UNK         0.0600 
    173 H173       -2.7920  -10.4937  -43.1940 H         1 UNK         0.0600 
    174 H174       -1.1269  -11.7200  -45.7527 H         1 UNK         0.3000 
    175 H175        1.3042  -11.2634  -44.6965 H         1 UNK         0.0600 
    176 H176        2.1183  -14.1712  -44.2104 H         1 UNK         0.0600 
    177 H177        3.2002  -12.8194  -44.5093 H         1 UNK         0.0600 
    178 H178        2.2738  -12.8766  -43.0183 H         1 UNK         0.0600 
    179 H179        0.6895  -13.6897  -46.3252 H         1 UNK         0.3000 
    180 H180        0.5167  -11.8153  -49.2360 H         1 UNK         0.0600 
    181 H181        2.1194  -13.3681  -50.3156 H         1 UNK         0.0600 
    182 H182        2.8106  -13.7880  -48.7430 H         1 UNK         0.0600 
    183 H183        2.9802  -12.1599  -49.3805 H         1 UNK         0.0600 
    184 H184        0.4760  -14.6513  -48.6969 H         1 UNK         0.3000 
    185 H185       -2.6688  -14.8734  -47.2543 H         1 UNK         0.0600 
    186 H186       -3.5388  -16.0794  -49.1993 H         1 UNK         0.0600 
    187 H187       -3.5183  -14.3633  -49.5534 H         1 UNK         0.0600 
    188 H188       -2.2813  -15.4048  -50.2414 H         1 UNK         0.0600 
    189 H189       -1.2235  -16.8956  -48.5506 H         1 UNK         0.3000 
    190 H190        0.3929  -22.3504  -45.5773 H         1 UNK         0.3000 
    191 H191       -2.1921  -22.7493  -44.4508 H         1 UNK         0.0600 
    192 H192       -0.9258  -23.0550  -42.3407 H         1 UNK         0.0600 
    193 H193       -0.2735  -21.7066  -43.2618 H         1 UNK         0.0600 
    194 H194        0.5769  -23.2506  -43.2387 H         1 UNK         0.0600 
    195 H195        0.2692  -25.0979  -45.5218 H         1 UNK         0.3000 
    196 H196       -0.9491  -27.4097  -44.2874 H         1 UNK         0.0600 
    197 H197        0.9769  -27.2056  -46.6633 H         1 UNK         0.0600 
    198 H198        1.4583  -27.3173  -44.9703 H         1 UNK         0.0600 
    199 H199        0.6192  -28.6570  -45.7378 H         1 UNK         0.0600 
    200 H200       -1.6740  -25.5249  -47.1111 H         1 UNK         0.3000 
    201 H201       -3.4934  -27.5736  -48.2773 H         1 UNK         0.0600 
    202 H202       -1.8538  -26.4404  -49.8138 H         1 UNK         0.0600 
    203 H203       -2.5374  -24.8751  -49.3804 H         1 UNK         0.0600 
    204 H204       -3.5156  -26.0638  -50.2320 H         1 UNK         0.0600 
    205 H205       -3.6806  -25.5354  -45.7808 H         1 UNK         0.3000 
    206 H206       -5.1695  -24.3196  -44.7006 H         1 UNK         0.0600 
    207 H207       -6.5066  -26.4276  -44.9153 H         1 UNK         0.0600 
    208 H208       -7.5361  -25.0095  -44.8167 H         1 UNK         0.0600 
    209 H209       -7.2763  -25.7936  -46.3693 H         1 UNK         0.0600 
    210 H210       -3.9998  -23.0816  -46.9726 H         1 UNK         0.3000 
    211 H211       -3.9498  -21.1980  -48.0733 H         1 UNK         0.0600 
    212 H212       -5.3464  -19.3062  -47.5464 H         1 UNK         0.0600 
    213 H213       -5.1353  -20.1829  -46.0409 H         1 UNK         0.0600 
    214 H214       -6.6455  -20.3174  -46.9327 H         1 UNK         0.0600 
    215 H215       -5.9205  -23.6384  -48.9516 H         1 UNK         0.3000 
    216 H216       -7.6188  -22.4298  -50.9179 H         1 UNK         0.0600 
    217 H217       -6.5764  -25.3071  -50.7745 H         1 UNK         0.0600 
    218 H218       -7.9690  -24.7423  -51.6855 H         1 UNK         0.0600 
    219 H219       -8.0010  -24.7034  -49.9284 H         1 UNK         0.0600 
    220 H220       -4.3012  -23.6529  -51.0044 H         1 UNK         0.3000 
    221 H221       -3.9517  -23.3985  -53.8783 H         1 UNK         0.0600 
    222 H222       -2.6832  -25.0757  -52.5868 H         1 UNK         0.0600 
    223 H223       -1.9568  -23.8164  -51.5905 H         1 UNK         0.0600 
    224 H224       -1.5675  -23.9234  -53.3018 H         1 UNK         0.0600 
    225 H225       -3.9675  -21.1074  -51.3024 H         1 UNK         0.3000 
    226 H226       -1.8644  -19.3933  -52.1734 H         1 UNK         0.0600 
    227 H227       -4.2323  -18.6430  -50.3952 H         1 UNK         0.0600 
    228 H228       -2.8081  -19.5108  -49.8206 H         1 UNK         0.0600 
    229 H229       -2.6460  -17.8884  -50.4591 H         1 UNK         0.0600 
    230 H230       -4.9712  -19.8658  -53.4702 H         1 UNK         0.3000 
    231 H231       -5.5910  -17.3635  -54.6405 H         1 UNK         0.0600 
    232 H232       -6.1177  -20.2209  -55.6289 H         1 UNK         0.0600 
    233 H233       -6.9224  -18.7747  -56.2291 H         1 UNK         0.0600 
    234 H234       -7.1655  -19.2831  -54.5653 H         1 UNK         0.0600 
    235 H235       -3.0394  -19.6316  -55.3977 H         1 UNK         0.3000 
    236 H236       -2.4164  -18.9296  -58.0637 H         1 UNK         0.0600 
    237 H237       -0.6047  -19.8561  -55.7689 H         1 UNK         0.0600 
    238 H238       -1.4783  -20.9062  -56.8834 H         1 UNK         0.0600 
    239 H239       -0.1788  -19.8830  -57.4767 H         1 UNK         0.0600 
    240 H240       -1.9275  -17.1047  -55.0832 H         1 UNK         0.3000 
    241 H241       -0.0246  -15.2283  -56.2788 H         1 UNK         0.0600 
    242 H242       -3.6976  -13.9231  -57.2254 H         1 UNK         0.3800 
    243 H243       -3.4091  -15.5947  -56.8204 H         1 UNK         0.3800 
    244 H244       -1.5203  -15.0637  -53.6292 H         1 UNK         0.0800 
    245 H245       -0.2919  -13.9425  -54.1565 H         1 UNK         0.0800 
    246 H246        0.0026  -15.3141  -51.3577 H         1 UNK         0.0800 
    247 H247       -0.9299  -16.6882  -51.9069 H         1 UNK         0.0800 
@<TRIPOS>BOND
     1    1    2 1    
     2    1  127 1    
     3    1  128 1    
     4    1  129 1    
     5    2    3 2    
     6    2    4 am   BACKBONE|DICT|INTERRES
     7    4    5 1    
     8    4  130 1    
     9    5    6 1    
    10    5   65 1    
    11    5  131 1    
    12    6    7 1    
    13    6  132 1    
    14    6  133 1    
    15    7    8 1    
    16    8    9 1    
    17    8  134 1    
    18    8  135 1    
    19    9   10 ar   
    20    9   14 ar   
    21   10   11 ar   
    22   10  136 1    
    23   11   12 ar   
    24   11  126 1    
    25   12   13 ar   
    26   12  137 1    
    27   13   14 ar   
    28   13   15 1    
    29   14  138 1    
    30   15   16 1    
    31   15  139 1    
    32   15  140 1    
    33   16   17 1    
    34   17   18 1    
    35   17  141 1    
    36   17  142 1    
    37   18   19 1    
    38   18   67 1    
    39   18  143 1    
    40   19   20 am   BACKBONE|DICT|INTERRES
    41   19  144 1    
    42   20   21 2    
    43   20   22 1    
    44   22   23 1    
    45   22   24 1    
    46   22  145 1    
    47   23  146 1    
    48   23  147 1    
    49   23  148 1    
    50   24   25 am   BACKBONE|DICT|INTERRES
    51   24  149 1    
    52   25   26 2    
    53   25   27 1    
    54   27   28 1    
    55   27   29 1    
    56   27  150 1    
    57   28  151 1    
    58   28  152 1    
    59   28  153 1    
    60   29   30 am   BACKBONE|DICT|INTERRES
    61   29  154 1    
    62   30   31 2    
    63   30   32 1    
    64   32   33 1    
    65   32   34 1    
    66   32  155 1    
    67   33  156 1    
    68   33  157 1    
    69   33  158 1    
    70   34   35 am   BACKBONE|DICT|INTERRES
    71   34  159 1    
    72   35   36 2    
    73   35   37 1    
    74   37   38 1    
    75   37   39 1    
    76   37  160 1    
    77   38  161 1    
    78   38  162 1    
    79   38  163 1    
    80   39   40 am   BACKBONE|DICT|INTERRES
    81   39  164 1    
    82   40   41 2    
    83   40   42 1    
    84   42   43 1    
    85   42   44 1    
    86   42  165 1    
    87   43  166 1    
    88   43  167 1    
    89   43  168 1    
    90   44   45 am   BACKBONE|DICT|INTERRES
    91   44  169 1    
    92   45   46 2    
    93   45   47 1    
    94   47   48 1    
    95   47   49 1    
    96   47  170 1    
    97   48  171 1    
    98   48  172 1    
    99   48  173 1    
   100   49   50 am   BACKBONE|DICT|INTERRES
   101   49  174 1    
   102   50   51 2    
   103   50   52 1    
   104   52   53 1    
   105   52   54 1    
   106   52  175 1    
   107   53  176 1    
   108   53  177 1    
   109   53  178 1    
   110   54   55 am   BACKBONE|DICT|INTERRES
   111   54  179 1    
   112   55   56 2    
   113   55   57 1    
   114   57   58 1    
   115   57   59 1    
   116   57  180 1    
   117   58  181 1    
   118   58  182 1    
   119   58  183 1    
   120   59   60 am   BACKBONE|DICT|INTERRES
   121   59  184 1    
   122   60   61 2    
   123   60   62 1    
   124   62   63 1    
   125   62   64 1    
   126   62  185 1    
   127   63  186 1    
   128   63  187 1    
   129   63  188 1    
   130   64   65 am   BACKBONE|DICT|INTERRES
   131   64  189 1    
   132   65   66 2    
   133   67   68 2    
   134   67   69 am   BACKBONE|DICT|INTERRES
   135   69   70 1    
   136   69  190 1    
   137   70   71 1    
   138   70   72 1    
   139   70  191 1    
   140   71  192 1    
   141   71  193 1    
   142   71  194 1    
   143   72   73 2    
   144   72   74 am   BACKBONE|DICT|INTERRES
   145   74   75 1    
   146   74  195 1    
   147   75   76 1    
   148   75   77 1    
   149   75  196 1    
   150   76  197 1    
   151   76  198 1    
   152   76  199 1    
   153   77   78 2    
   154   77   79 am   BACKBONE|DICT|INTERRES
   155   79   80 1    
   156   79  200 1    
   157   80   81 1    
   158   80   82 1    
   159   80  201 1    
   160   81  202 1    
   161   81  203 1    
   162   81  204 1    
   163   82   83 2    
   164   82   84 am   BACKBONE|DICT|INTERRES
   165   84   85 1    
   166   84  205 1    
   167   85   86 1    
   168   85   87 1    
   169   85  206 1    
   170   86  207 1    
   171   86  208 1    
   172   86  209 1    
   173   87   88 2    
   174   87   89 am   BACKBONE|DICT|INTERRES
   175   89   90 1    
   176   89  210 1    
   177   90   91 1    
   178   90   92 1    
   179   90  211 1    
   180   91  212 1    
   181   91  213 1    
   182   91  214 1    
   183   92   93 2    
   184   92   94 am   BACKBONE|DICT|INTERRES
   185   94   95 1    
   186   94  215 1    
   187   95   96 1    
   188   95   97 1    
   189   95  216 1    
   190   96  217 1    
   191   96  218 1    
   192   96  219 1    
   193   97   98 2    
   194   97   99 am   BACKBONE|DICT|INTERRES
   195   99  100 1    
   196   99  220 1    
   197  100  101 1    
   198  100  102 1    
   199  100  221 1    
   200  101  222 1    
   201  101  223 1    
   202  101  224 1    
   203  102  103 2    
   204  102  104 am   BACKBONE|DICT|INTERRES
   205  104  105 1    
   206  104  225 1    
   207  105  106 1    
   208  105  107 1    
   209  105  226 1    
   210  106  227 1    
   211  106  228 1    
   212  106  229 1    
   213  107  108 2    
   214  107  109 am   BACKBONE|DICT|INTERRES
   215  109  110 1    
   216  109  230 1    
   217  110  111 1    
   218  110  112 1    
   219  110  231 1    
   220  111  232 1    
   221  111  233 1    
   222  111  234 1    
   223  112  113 2    
   224  112  114 am   BACKBONE|DICT|INTERRES
   225  114  115 1    
   226  114  235 1    
   227  115  116 1    
   228  115  117 1    
   229  115  236 1    
   230  116  237 1    
   231  116  238 1    
   232  116  239 1    
   233  117  118 2    
   234  117  119 am   BACKBONE|DICT|INTERRES
   235  119  120 1    
   236  119  240 1    
   237  120  121 1    
   238  120  124 1    
   239  120  241 1    
   240  121  122 am   BACKBONE|DICT|INTERRES
   241  121  123 2    
   242  122  242 1    
   243  122  243 1    
   244  124  125 1    
   245  124  244 1    
   246  124  245 1    
   247  125  126 1    
   248  126  246 1    
   249  126  247 1    
@<TRIPOS>SUBSTRUCTURE
     1 UNK         1 GROUP             0       ****    0 ROOT    
