@<TRIPOS>MOLECULE
3R540
247   249    1
SMALL
USER_CHARGES


@<TRIPOS>ATOM
      1 CA          0.8371  -10.7546  -49.1832 C.3       0 UNK        -0.1800 
      2 C           0.6780  -11.5058  -47.8704 C.2       0 UNK         0.5000 
      3 O           1.5563  -11.4282  -47.0114 O.2       0 UNK        -0.5000 
      4 N          -0.4467  -12.2156  -47.7023 N.am      1 UNK        -0.5000 
      5 CA         -0.7708  -13.0627  -46.5436 C.3       1 UNK         0.1400 
      6 C6         -2.1200  -13.8015  -46.7385 C.3       23 UNK        -0.0398 
      7 S7         -2.2514  -15.0150  -48.1037 S.3       23 UNK        -0.2404 
      8 C8         -0.5499  -15.4717  -48.5802 C.3       23 UNK        -0.0205 
      9 C9         -0.5680  -16.4199  -49.7719 C.ar      23 UNK        -0.0193 
     10 C10        -1.0189  -15.9574  -51.0134 C.ar      23 UNK        -0.1150 
     11 C11        -1.0709  -16.8129  -52.1157 C.ar      23 UNK        -0.0193 
     12 C12        -0.6604  -18.1391  -51.9713 C.ar      23 UNK        -0.1150 
     13 C13        -0.1781  -18.6107  -50.7488 C.ar      23 UNK        -0.0193 
     14 C14        -0.1373  -17.7471  -49.6470 C.ar      23 UNK        -0.1150 
     15 C15         0.3200  -20.0462  -50.6495 C.3       23 UNK        -0.0205 
     16 S16        -0.9967  -21.1902  -50.1283 S.3       23 UNK        -0.2404 
     17 C17        -0.9618  -20.9650  -48.3191 C.3       23 UNK        -0.0398 
     18 CA         -1.0262  -22.3119  -47.5542 C.3       11 UNK         0.1400 
     19 N          -0.1769  -22.3061  -46.3593 N.am      11 UNK        -0.5000 
     20 C           0.0979  -23.3744  -45.5989 C.2       10 UNK         0.5000 
     21 O          -0.3332  -24.5024  -45.8278 O.2       10 UNK        -0.5000 
     22 CA          0.9537  -23.1344  -44.3419 C.3       10 UNK         0.1400 
     23 CB          2.4445  -23.0264  -44.6951 C.3       10 UNK        -0.1800 
     24 N           0.5294  -21.9450  -43.6040 N.am      10 UNK        -0.5000 
     25 C          -0.6637  -21.8217  -43.0046 C.2       9 UNK         0.5000 
     26 O          -1.5027  -22.7229  -42.9591 O.2       9 UNK        -0.5000 
     27 CA         -0.9945  -20.4449  -42.4002 C.3       9 UNK         0.1400 
     28 CB         -0.3378  -20.2811  -41.0216 C.3       9 UNK        -0.1800 
     29 N          -0.5964  -19.3349  -43.2676 N.am      9 UNK        -0.5000 
     30 C          -1.0835  -19.1168  -44.4978 C.2       8 UNK         0.5000 
     31 O          -1.9477  -19.8119  -45.0281 O.2       8 UNK        -0.5000 
     32 CA         -0.4646  -17.9575  -45.2939 C.3       8 UNK         0.1400 
     33 CB         -1.0222  -16.6176  -44.8008 C.3       8 UNK        -0.1800 
     34 N           0.9962  -17.9395  -45.2241 N.am      8 UNK        -0.5000 
     35 C           1.7975  -18.9360  -45.6265 C.2       7 UNK         0.5000 
     36 O           1.3925  -19.9753  -46.1397 O.2       7 UNK        -0.5000 
     37 CA          3.3006  -18.7710  -45.3628 C.3       7 UNK         0.1400 
     38 CB          3.9495  -17.8945  -46.4432 C.3       7 UNK        -0.1800 
     39 N           3.5495  -18.2095  -44.0364 N.am      7 UNK        -0.5000 
     40 C           3.3246  -18.8676  -42.8895 C.2       6 UNK         0.5000 
     41 O           2.9352  -20.0350  -42.8335 O.2       6 UNK        -0.5000 
     42 CA          3.5283  -18.0674  -41.5902 C.3       6 UNK         0.1400 
     43 CB          5.0107  -18.0487  -41.1888 C.3       6 UNK        -0.1800 
     44 N           3.0356  -16.6927  -41.7007 N.am      6 UNK        -0.5000 
     45 C           1.7414  -16.3664  -41.8247 C.2       5 UNK         0.5000 
     46 O           0.8281  -17.1918  -41.8175 O.2       5 UNK        -0.5000 
     47 CA          1.4164  -14.8751  -42.0315 C.3       5 UNK         0.1400 
     48 CB          1.2640  -14.1581  -40.6824 C.3       5 UNK        -0.1800 
     49 N           2.4017  -14.1614  -42.8482 N.am      5 UNK        -0.5000 
     50 C           2.6834  -14.4351  -44.1283 C.2       4 UNK         0.5000 
     51 O           2.1901  -15.3817  -44.7429 O.2       4 UNK        -0.5000 
     52 CA          3.6704  -13.4821  -44.8294 C.3       4 UNK         0.1400 
     53 CB          3.9304  -13.8651  -46.2970 C.3       4 UNK        -0.1800 
     54 N           3.1810  -12.1067  -44.7931 N.am      4 UNK        -0.5000 
     55 C           3.3708  -11.2374  -43.7932 C.2       3 UNK         0.5000 
     56 O           3.9588  -11.5190  -42.7482 O.2       3 UNK        -0.5000 
     57 CA          2.7732   -9.8362  -43.9843 C.3       3 UNK         0.1400 
     58 CB          3.5398   -9.0524  -45.0622 C.3       3 UNK        -0.1800 
     59 N           1.3671   -9.9371  -44.3663 N.am      3 UNK        -0.5000 
     60 C           0.3393   -9.8611  -43.5103 C.2       2 UNK         0.5000 
     61 O           0.4635   -9.6244  -42.3080 O.2       2 UNK        -0.5000 
     62 CA         -1.0704  -10.0904  -44.0907 C.3       2 UNK         0.1400 
     63 CB         -1.7139   -8.7525  -44.4857 C.3       2 UNK        -0.1800 
     64 N          -1.0766  -10.9830  -45.2508 N.am      2 UNK        -0.5000 
     65 C          -0.8043  -12.2949  -45.2023 C.2       1 UNK         0.5000 
     66 O          -0.5825  -12.9025  -44.1559 O.2       1 UNK        -0.5000 
     67 C          -2.4835  -22.7014  -47.2320 C.2       11 UNK         0.5000 
     68 O          -3.0923  -23.4681  -47.9813 O.2       11 UNK        -0.5000 
     69 N          -3.0111  -22.1839  -46.1132 N.am      12 UNK        -0.5000 
     70 CA         -4.3317  -22.5048  -45.5742 C.3       12 UNK         0.1400 
     71 CB         -4.6465  -21.5964  -44.3773 C.3       12 UNK        -0.1800 
     72 C          -4.4680  -23.9882  -45.1969 C.2       12 UNK         0.5000 
     73 O          -5.4725  -24.6097  -45.5431 O.2       12 UNK        -0.5000 
     74 N          -3.4404  -24.5364  -44.5359 N.am      13 UNK        -0.5000 
     75 CA         -3.3562  -25.9537  -44.1875 C.3       13 UNK         0.1400 
     76 CB         -2.2005  -26.1662  -43.1977 C.3       13 UNK        -0.1800 
     77 C          -3.1968  -26.8632  -45.4215 C.2       13 UNK         0.5000 
     78 O          -3.8187  -27.9250  -45.4754 O.2       13 UNK        -0.5000 
     79 N          -2.3637  -26.4370  -46.3798 N.am      14 UNK        -0.5000 
     80 CA         -2.0239  -27.1955  -47.5805 C.3       14 UNK         0.1400 
     81 CB         -0.7505  -26.6133  -48.2151 C.3       14 UNK        -0.1800 
     82 C          -3.1562  -27.2567  -48.6186 C.2       14 UNK         0.5000 
     83 O          -3.4560  -28.3461  -49.1102 O.2       14 UNK        -0.5000 
     84 N          -3.7302  -26.0983  -48.9720 N.am      15 UNK        -0.5000 
     85 CA         -4.5980  -25.9599  -50.1454 C.3       15 UNK         0.1400 
     86 CB         -3.7227  -25.7892  -51.4040 C.3       15 UNK        -0.1800 
     87 C          -5.6462  -24.8416  -49.9987 C.2       15 UNK         0.5000 
     88 O          -6.1267  -24.3279  -51.0091 O.2       15 UNK        -0.5000 
     89 N          -5.9996  -24.4835  -48.7546 N.am      16 UNK        -0.5000 
     90 CA         -6.9995  -23.4662  -48.3952 C.3       16 UNK         0.1400 
     91 CB         -8.4140  -23.9087  -48.8273 C.3       16 UNK        -0.1800 
     92 C          -6.6418  -22.0413  -48.8778 C.2       16 UNK         0.5000 
     93 O          -7.5390  -21.2387  -49.1396 O.2       16 UNK        -0.5000 
     94 N          -5.3335  -21.7544  -48.9596 N.am      17 UNK        -0.5000 
     95 CA         -4.7248  -20.4840  -49.3674 C.3       17 UNK         0.1400 
     96 CB         -5.0004  -19.3768  -48.3292 C.3       17 UNK        -0.1800 
     97 C          -5.0694  -20.0850  -50.8167 C.2       17 UNK         0.5000 
     98 O          -5.3709  -18.9227  -51.0921 O.2       17 UNK        -0.5000 
     99 N          -5.0203  -21.0753  -51.7115 N.am      18 UNK        -0.5000 
    100 CA        -5.2594  -20.9662  -53.1441 C.3       18 UNK         0.1400 
    101 CB        -6.7764  -20.9071  -53.4118 C.3       18 UNK        -0.1800 
    102 C         -4.6130  -22.1807  -53.8326 C.2       18 UNK         0.5000 
    103 O         -4.0458  -23.0407  -53.1536 O.2       18 UNK        -0.5000 
    104 N         -4.7236  -22.2432  -55.1657 N.am      19 UNK        -0.5000 
    105 CA        -4.3898  -23.3573  -56.0660 C.3       19 UNK         0.1400 
    106 CB        -5.1776  -24.6309  -55.7031 C.3       19 UNK        -0.1800 
    107 C         -2.8857  -23.6563  -56.2162 C.2       19 UNK         0.5000 
    108 O         -2.4243  -23.8357  -57.3441 O.2       19 UNK        -0.5000 
    109 N         -2.1401  -23.6773  -55.1033 N.am      20 UNK        -0.5000 
    110 CA        -0.6738  -23.7324  -55.0720 C.3       20 UNK         0.1400 
    111 CB        -0.2058  -23.9192  -53.6198 C.3       20 UNK        -0.1800 
    112 C         -0.0599  -22.4621  -55.6934 C.2       20 UNK         0.5000 
    113 O          0.8888  -22.5391  -56.4745 O.2       20 UNK        -0.5000 
    114 N         -0.6897  -21.3306  -55.3763 N.am      21 UNK        -0.5000 
    115 CA        -0.6177  -20.0406  -56.0388 C.3       21 UNK         0.1400 
    116 CB         0.6385  -19.2681  -55.6010 C.3       21 UNK        -0.1800 
    117 C         -1.9177  -19.3168  -55.6558 C.2       21 UNK         0.5000 
    118 O         -2.4802  -19.6293  -54.6035 O.2       21 UNK        -0.5000 
    119 N         -2.3702  -18.3910  -56.5100 N.am      22 UNK        -0.5000 
    120 CA        -3.6232  -17.6174  -56.3946 C.3       22 UNK         0.1400 
    121 C         -4.9209  -18.4613  -56.1573 C.2       22 UNK         0.5000 
    122 N         -5.9910  -17.8762  -55.6352 N.am      22 UNK        -0.7600 
    123 O         -4.9944  -19.6395  -56.5035 O.2       22 UNK        -0.5000 
    124 C124       -3.4733  -16.3382  -55.5127 C.3       23 UNK        -0.0398 
    125 S125       -3.3226  -16.6140  -53.7113 S.3       23 UNK        -0.2404 
    126 C126       -1.5465  -16.3076  -53.4682 C.3       23 UNK        -0.0205 
    127 H127        0.9364   -9.6860  -48.9933 H         1 UNK         0.0600 
    128 H128       -0.0166  -10.9066  -49.8439 H         1 UNK         0.0600 
    129 H129        1.7337  -11.0948  -49.7011 H         1 UNK         0.0600 
    130 H130       -1.1323  -12.2245  -48.4443 H         1 UNK         0.3000 
    131 H131        0.0294  -13.7984  -46.4474 H         1 UNK         0.0600 
    132 H132       -2.3949  -14.3356  -45.8282 H         1 UNK         0.0800 
    133 H133       -2.9178  -13.0710  -46.8849 H         1 UNK         0.0800 
    134 H134        0.0208  -14.5856  -48.8565 H         1 UNK         0.0800 
    135 H135       -0.0389  -15.9267  -47.7307 H         1 UNK         0.0800 
    136 H136       -1.3436  -14.9314  -51.1162 H         1 UNK         0.1150 
    137 H137       -0.7133  -18.8082  -52.8165 H         1 UNK         0.1150 
    138 H138        0.2311  -18.1066  -48.6968 H         1 UNK         0.1150 
    139 H139        0.6879  -20.3728  -51.6237 H         1 UNK         0.0800 
    140 H140        1.1762  -20.1093  -49.9764 H         1 UNK         0.0800 
    141 H141       -1.7455  -20.2699  -48.0120 H         1 UNK         0.0800 
    142 H142       -0.0315  -20.4559  -48.0831 H         1 UNK         0.0800 
    143 H143       -0.6218  -23.0968  -48.1967 H         1 UNK         0.0600 
    144 H144        0.2630  -21.4195  -46.1220 H         1 UNK         0.3000 
    145 H145        0.8258  -23.9976  -43.6852 H         1 UNK         0.0600 
    146 H146        3.0537  -22.9120  -43.7983 H         1 UNK         0.0600 
    147 H147        2.7879  -23.9241  -45.2106 H         1 UNK         0.0600 
    148 H148        2.6486  -22.1767  -45.3461 H         1 UNK         0.0600 
    149 H149        1.1741  -21.1638  -43.5811 H         1 UNK         0.3000 
    150 H150       -2.0772  -20.3921  -42.2701 H         1 UNK         0.0600 
    151 H151       -0.6277  -21.0911  -40.3513 H         1 UNK         0.0600 
    152 H152       -0.6397  -19.3451  -40.5512 H         1 UNK         0.0600 
    153 H153        0.7505  -20.2833  -41.0906 H         1 UNK         0.0600 
    154 H154        0.0817  -18.6810  -42.8877 H         1 UNK         0.3000 
    155 H155       -0.7425  -18.0801  -46.3425 H         1 UNK         0.0600 
    156 H156       -0.8782  -16.4831  -43.7297 H         1 UNK         0.0600 
    157 H157       -2.0929  -16.5526  -44.9960 H         1 UNK         0.0600 
    158 H158       -0.5381  -15.7833  -45.3035 H         1 UNK         0.0600 
    159 H159        1.4245  -17.0913  -44.8612 H         1 UNK         0.3000 
    160 H160        3.7634  -19.7594  -45.4052 H         1 UNK         0.0600 
    161 H161        3.4585  -16.9257  -46.5244 H         1 UNK         0.0600 
    162 H162        3.8791  -18.3736  -47.4205 H         1 UNK         0.0600 
    163 H163        5.0066  -17.7249  -46.2384 H         1 UNK         0.0600 
    164 H164        3.8125  -17.2364  -43.9959 H         1 UNK         0.3000 
    165 H165        2.9666  -18.5690  -40.7991 H         1 UNK         0.0600 
    166 H166        5.1531  -17.5478  -40.2311 H         1 UNK         0.0600 
    167 H167        5.3987  -19.0629  -41.0847 H         1 UNK         0.0600 
    168 H168        5.6247  -17.5367  -41.9306 H         1 UNK         0.0600 
    169 H169        3.7238  -15.9544  -41.7138 H         1 UNK         0.3000 
    170 H170        0.4587  -14.8213  -42.5517 H         1 UNK         0.0600 
    171 H171        0.5200  -14.6545  -40.0580 H         1 UNK         0.0600 
    172 H172        2.2024  -14.1405  -40.1268 H         1 UNK         0.0600 
    173 H173        0.9354  -13.1277  -40.8211 H         1 UNK         0.0600 
    174 H174        2.8450  -13.3517  -42.4312 H         1 UNK         0.3000 
    175 H175        4.6217  -13.5421  -44.2969 H         1 UNK         0.0600 
    176 H176        3.0054  -13.9140  -46.8736 H         1 UNK         0.0600 
    177 H177        4.5869  -13.1428  -46.7824 H         1 UNK         0.0600 
    178 H178        4.4190  -14.8364  -46.3645 H         1 UNK         0.0600 
    179 H179        2.6384  -11.8123  -45.6028 H         1 UNK         0.3000 
    180 H180        2.8731   -9.2933  -43.0419 H         1 UNK         0.0600 
    181 H181        3.4699   -9.5286  -46.0410 H         1 UNK         0.0600 
    182 H182        4.5978   -8.9742  -44.8090 H         1 UNK         0.0600 
    183 H183        3.1527   -8.0379  -45.1576 H         1 UNK         0.0600 
    184 H184        1.1805  -10.1959  -45.3275 H         1 UNK         0.3000 
    185 H185       -1.6804  -10.5453  -43.3073 H         1 UNK         0.0600 
    186 H186       -1.7487   -8.0701  -43.6354 H         1 UNK         0.0600 
    187 H187       -1.1565   -8.2569  -45.2817 H         1 UNK         0.0600 
    188 H188       -2.7387   -8.8935  -44.8296 H         1 UNK         0.0600 
    189 H189       -1.2531  -10.5613  -46.1510 H         1 UNK         0.3000 
    190 H190       -2.4710  -21.4956  -45.5931 H         1 UNK         0.3000 
    191 H191       -5.0685  -22.2906  -46.3457 H         1 UNK         0.0600 
    192 H192       -4.6371  -20.5459  -44.6684 H         1 UNK         0.0600 
    193 H193       -5.6360  -21.8123  -43.9726 H         1 UNK         0.0600 
    194 H194       -3.9262  -21.7253  -43.5699 H         1 UNK         0.0600 
    195 H195       -2.6614  -23.9480  -44.2610 H         1 UNK         0.3000 
    196 H196       -4.2852  -26.2338  -43.6863 H         1 UNK         0.0600 
    197 H197       -2.1290  -27.2128  -42.8991 H         1 UNK         0.0600 
    198 H198       -2.3453  -25.5776  -42.2916 H         1 UNK         0.0600 
    199 H199       -1.2408  -25.8810  -43.6296 H         1 UNK         0.0600 
    200 H200       -1.8361  -25.5824  -46.2217 H         1 UNK         0.3000 
    201 H201       -1.8006  -28.2206  -47.2769 H         1 UNK         0.0600 
    202 H202        0.0935  -26.6711  -47.5277 H         1 UNK         0.0600 
    203 H203       -0.8821  -25.5680  -48.4965 H         1 UNK         0.0600 
    204 H204       -0.4737  -27.1636  -49.1153 H         1 UNK         0.0600 
    205 H205       -3.4320  -25.2314  -48.5288 H         1 UNK         0.3000 
    206 H206       -5.1832  -26.8736  -50.2658 H         1 UNK         0.0600 
    207 H207       -3.0521  -26.6371  -51.5426 H         1 UNK         0.0600 
    208 H208       -4.3307  -25.7149  -52.3062 H         1 UNK         0.0600 
    209 H209       -3.1121  -24.8876  -51.3419 H         1 UNK         0.0600 
    210 H210       -5.5560  -24.9527  -47.9757 H         1 UNK         0.3000 
    211 H211       -7.0065  -23.4151  -47.3070 H         1 UNK         0.0600 
    212 H212       -8.5279  -23.9064  -49.9117 H         1 UNK         0.0600 
    213 H213       -9.1742  -23.2416  -48.4194 H         1 UNK         0.0600 
    214 H214       -8.6401  -24.9125  -48.4676 H         1 UNK         0.0600 
    215 H215       -4.6780  -22.4974  -48.7384 H         1 UNK         0.3000 
    216 H216       -3.6530  -20.6586  -49.3644 H         1 UNK         0.0600 
    217 H217       -4.4462  -18.4692  -48.5723 H         1 UNK         0.0600 
    218 H218       -4.6889  -19.6867  -47.3314 H         1 UNK         0.0600 
    219 H219       -6.0574  -19.1138  -48.2869 H         1 UNK         0.0600 
    220 H220       -4.7502  -22.0077  -51.4199 H         1 UNK         0.3000 
    221 H221       -4.7849  -20.0583  -53.5182 H         1 UNK         0.0600 
    222 H222       -7.2779  -21.8084  -53.0565 H         1 UNK         0.0600 
    223 H223       -7.2347  -20.0522  -52.9146 H         1 UNK         0.0600 
    224 H224       -6.9883  -20.8083  -54.4767 H         1 UNK         0.0600 
    225 H225       -5.0777  -21.4152  -55.6382 H         1 UNK         0.3000 
    226 H226       -4.7366  -23.0361  -57.0494 H         1 UNK         0.0600 
    227 H227       -6.2496  -24.4360  -55.6731 H         1 UNK         0.0600 
    228 H228       -5.0100  -25.4148  -56.4426 H         1 UNK         0.0600 
    229 H229       -4.8829  -25.0323  -54.7333 H         1 UNK         0.0600 
    230 H230       -2.6253  -23.5284  -54.2210 H         1 UNK         0.3000 
    231 H231       -0.3471  -24.5931  -55.6589 H         1 UNK         0.0600 
    232 H232       -0.5293  -23.0958  -52.9812 H         1 UNK         0.0600 
    233 H233        0.8822  -23.9715  -53.5640 H         1 UNK         0.0600 
    234 H234       -0.5990  -24.8433  -53.1955 H         1 UNK         0.0600 
    235 H235       -1.4647  -21.3753  -54.7238 H         1 UNK         0.3000 
    236 H236       -0.6034  -20.1931  -57.1199 H         1 UNK         0.0600 
    237 H237        1.5445  -19.7686  -55.9428 H         1 UNK         0.0600 
    238 H238        0.6460  -18.2616  -56.0206 H         1 UNK         0.0600 
    239 H239        0.7029  -19.1756  -54.5179 H         1 UNK         0.0600 
    240 H240       -1.8470  -18.2297  -57.3584 H         1 UNK         0.3000 
    241 H241       -3.7733  -17.2467  -57.4091 H         1 UNK         0.0600 
    242 H242       -6.8346  -18.4136  -55.5189 H         1 UNK         0.3800 
    243 H243       -5.9697  -16.9176  -55.3265 H         1 UNK         0.3800 
    244 H244       -2.6111  -15.7656  -55.8565 H         1 UNK         0.0800 
    245 H245       -4.3231  -15.6743  -55.6745 H         1 UNK         0.0800 
    246 H246       -0.9773  -16.7994  -54.2579 H         1 UNK         0.0800 
    247 H247       -1.3478  -15.2393  -53.5660 H         1 UNK         0.0800 
@<TRIPOS>BOND
     1    1    2 1    
     2    1  127 1    
     3    1  128 1    
     4    1  129 1    
     5    2    3 2    
     6    2    4 am   BACKBONE|DICT|INTERRES
     7    4    5 1    
     8    4  130 1    
     9    5    6 1    
    10    5   65 1    
    11    5  131 1    
    12    6    7 1    
    13    6  132 1    
    14    6  133 1    
    15    7    8 1    
    16    8    9 1    
    17    8  134 1    
    18    8  135 1    
    19    9   10 ar   
    20    9   14 ar   
    21   10   11 ar   
    22   10  136 1    
    23   11   12 ar   
    24   11  126 1    
    25   12   13 ar   
    26   12  137 1    
    27   13   14 ar   
    28   13   15 1    
    29   14  138 1    
    30   15   16 1    
    31   15  139 1    
    32   15  140 1    
    33   16   17 1    
    34   17   18 1    
    35   17  141 1    
    36   17  142 1    
    37   18   19 1    
    38   18   67 1    
    39   18  143 1    
    40   19   20 am   BACKBONE|DICT|INTERRES
    41   19  144 1    
    42   20   21 2    
    43   20   22 1    
    44   22   23 1    
    45   22   24 1    
    46   22  145 1    
    47   23  146 1    
    48   23  147 1    
    49   23  148 1    
    50   24   25 am   BACKBONE|DICT|INTERRES
    51   24  149 1    
    52   25   26 2    
    53   25   27 1    
    54   27   28 1    
    55   27   29 1    
    56   27  150 1    
    57   28  151 1    
    58   28  152 1    
    59   28  153 1    
    60   29   30 am   BACKBONE|DICT|INTERRES
    61   29  154 1    
    62   30   31 2    
    63   30   32 1    
    64   32   33 1    
    65   32   34 1    
    66   32  155 1    
    67   33  156 1    
    68   33  157 1    
    69   33  158 1    
    70   34   35 am   BACKBONE|DICT|INTERRES
    71   34  159 1    
    72   35   36 2    
    73   35   37 1    
    74   37   38 1    
    75   37   39 1    
    76   37  160 1    
    77   38  161 1    
    78   38  162 1    
    79   38  163 1    
    80   39   40 am   BACKBONE|DICT|INTERRES
    81   39  164 1    
    82   40   41 2    
    83   40   42 1    
    84   42   43 1    
    85   42   44 1    
    86   42  165 1    
    87   43  166 1    
    88   43  167 1    
    89   43  168 1    
    90   44   45 am   BACKBONE|DICT|INTERRES
    91   44  169 1    
    92   45   46 2    
    93   45   47 1    
    94   47   48 1    
    95   47   49 1    
    96   47  170 1    
    97   48  171 1    
    98   48  172 1    
    99   48  173 1    
   100   49   50 am   BACKBONE|DICT|INTERRES
   101   49  174 1    
   102   50   51 2    
   103   50   52 1    
   104   52   53 1    
   105   52   54 1    
   106   52  175 1    
   107   53  176 1    
   108   53  177 1    
   109   53  178 1    
   110   54   55 am   BACKBONE|DICT|INTERRES
   111   54  179 1    
   112   55   56 2    
   113   55   57 1    
   114   57   58 1    
   115   57   59 1    
   116   57  180 1    
   117   58  181 1    
   118   58  182 1    
   119   58  183 1    
   120   59   60 am   BACKBONE|DICT|INTERRES
   121   59  184 1    
   122   60   61 2    
   123   60   62 1    
   124   62   63 1    
   125   62   64 1    
   126   62  185 1    
   127   63  186 1    
   128   63  187 1    
   129   63  188 1    
   130   64   65 am   BACKBONE|DICT|INTERRES
   131   64  189 1    
   132   65   66 2    
   133   67   68 2    
   134   67   69 am   BACKBONE|DICT|INTERRES
   135   69   70 1    
   136   69  190 1    
   137   70   71 1    
   138   70   72 1    
   139   70  191 1    
   140   71  192 1    
   141   71  193 1    
   142   71  194 1    
   143   72   73 2    
   144   72   74 am   BACKBONE|DICT|INTERRES
   145   74   75 1    
   146   74  195 1    
   147   75   76 1    
   148   75   77 1    
   149   75  196 1    
   150   76  197 1    
   151   76  198 1    
   152   76  199 1    
   153   77   78 2    
   154   77   79 am   BACKBONE|DICT|INTERRES
   155   79   80 1    
   156   79  200 1    
   157   80   81 1    
   158   80   82 1    
   159   80  201 1    
   160   81  202 1    
   161   81  203 1    
   162   81  204 1    
   163   82   83 2    
   164   82   84 am   BACKBONE|DICT|INTERRES
   165   84   85 1    
   166   84  205 1    
   167   85   86 1    
   168   85   87 1    
   169   85  206 1    
   170   86  207 1    
   171   86  208 1    
   172   86  209 1    
   173   87   88 2    
   174   87   89 am   BACKBONE|DICT|INTERRES
   175   89   90 1    
   176   89  210 1    
   177   90   91 1    
   178   90   92 1    
   179   90  211 1    
   180   91  212 1    
   181   91  213 1    
   182   91  214 1    
   183   92   93 2    
   184   92   94 am   BACKBONE|DICT|INTERRES
   185   94   95 1    
   186   94  215 1    
   187   95   96 1    
   188   95   97 1    
   189   95  216 1    
   190   96  217 1    
   191   96  218 1    
   192   96  219 1    
   193   97   98 2    
   194   97   99 am   BACKBONE|DICT|INTERRES
   195   99  100 1    
   196   99  220 1    
   197  100  101 1    
   198  100  102 1    
   199  100  221 1    
   200  101  222 1    
   201  101  223 1    
   202  101  224 1    
   203  102  103 2    
   204  102  104 am   BACKBONE|DICT|INTERRES
   205  104  105 1    
   206  104  225 1    
   207  105  106 1    
   208  105  107 1    
   209  105  226 1    
   210  106  227 1    
   211  106  228 1    
   212  106  229 1    
   213  107  108 2    
   214  107  109 am   BACKBONE|DICT|INTERRES
   215  109  110 1    
   216  109  230 1    
   217  110  111 1    
   218  110  112 1    
   219  110  231 1    
   220  111  232 1    
   221  111  233 1    
   222  111  234 1    
   223  112  113 2    
   224  112  114 am   BACKBONE|DICT|INTERRES
   225  114  115 1    
   226  114  235 1    
   227  115  116 1    
   228  115  117 1    
   229  115  236 1    
   230  116  237 1    
   231  116  238 1    
   232  116  239 1    
   233  117  118 2    
   234  117  119 am   BACKBONE|DICT|INTERRES
   235  119  120 1    
   236  119  240 1    
   237  120  121 1    
   238  120  124 1    
   239  120  241 1    
   240  121  122 am   BACKBONE|DICT|INTERRES
   241  121  123 2    
   242  122  242 1    
   243  122  243 1    
   244  124  125 1    
   245  124  244 1    
   246  124  245 1    
   247  125  126 1    
   248  126  246 1    
   249  126  247 1    
@<TRIPOS>SUBSTRUCTURE
     1 UNK         1 GROUP             0       ****    0 ROOT    
