@<TRIPOS>MOLECULE
3R540
247   249    1
SMALL
USER_CHARGES


@<TRIPOS>ATOM
      1 CA          3.8689  -13.3304  -50.8788 C.3       0 UNK        -0.1800 
      2 C           2.8968  -12.2921  -50.3369 C.2       0 UNK         0.5000 
      3 O           3.1783  -11.0957  -50.3989 O.2       0 UNK        -0.5000 
      4 N           1.7564  -12.7501  -49.8042 N.am      1 UNK        -0.5000 
      5 CA          0.6724  -11.9327  -49.2415 C.3       1 UNK         0.1400 
      6 C6          0.0086  -10.9904  -50.2881 C.3       23 UNK        -0.0398 
      7 S7         -1.7958  -10.8249  -50.0497 S.3       23 UNK        -0.2404 
      8 C8         -2.4409  -12.1542  -51.1199 C.3       23 UNK        -0.0205 
      9 C9         -1.9634  -13.5247  -50.6635 C.ar      23 UNK        -0.0193 
     10 C10        -0.9827  -14.2091  -51.3880 C.ar      23 UNK        -0.1150 
     11 C11        -0.4920  -15.4368  -50.9341 C.ar      23 UNK        -0.0193 
     12 C12        -0.9977  -15.9836  -49.7524 C.ar      23 UNK        -0.1150 
     13 C13        -2.0005  -15.3240  -49.0362 C.ar      23 UNK        -0.0193 
     14 C14        -2.4758  -14.0922  -49.4935 C.ar      23 UNK        -0.1150 
     15 C15        -2.5751  -15.9506  -47.7751 C.3       23 UNK        -0.0205 
     16 S16        -4.3420  -16.3816  -47.9223 S.3       23 UNK        -0.2404 
     17 C17        -4.4725  -17.2135  -49.5519 C.3       23 UNK        -0.0398 
     18 CA         -4.1584  -18.7287  -49.5649 C.3       11 UNK         0.1400 
     19 N          -2.7696  -19.0204  -49.1964 N.am      11 UNK        -0.5000 
     20 C          -2.1347  -20.1608  -49.4984 C.2       10 UNK         0.5000 
     21 O          -2.6472  -21.0644  -50.1538 O.2       10 UNK        -0.5000 
     22 CA         -0.7086  -20.3566  -48.9473 C.3       10 UNK         0.1400 
     23 CB          0.3407  -19.9337  -49.9836 C.3       10 UNK        -0.1800 
     24 N          -0.4349  -19.6775  -47.6774 N.am      10 UNK        -0.5000 
     25 C          -1.1150  -19.8541  -46.5358 C.2       9 UNK         0.5000 
     26 O          -2.1349  -20.5402  -46.4629 O.2       9 UNK        -0.5000 
     27 CA         -0.5713  -19.1705  -45.2637 C.3       9 UNK         0.1400 
     28 CB         -0.5677  -20.1495  -44.0770 C.3       9 UNK        -0.1800 
     29 N           0.7834  -18.6359  -45.4237 N.am      9 UNK        -0.5000 
     30 C           1.0997  -17.4237  -45.8941 C.2       8 UNK         0.5000 
     31 O           0.2680  -16.6148  -46.3039 O.2       8 UNK        -0.5000 
     32 CA          2.5967  -17.0628  -45.8611 C.3       8 UNK         0.1400 
     33 CB          2.8944  -15.6705  -46.4453 C.3       8 UNK        -0.1800 
     34 N           3.0921  -17.1250  -44.4855 N.am      8 UNK        -0.5000 
     35 C           3.5692  -18.2260  -43.8882 C.2       7 UNK         0.5000 
     36 O           3.6558  -19.3101  -44.4672 O.2       7 UNK        -0.5000 
     37 CA          3.9493  -18.1395  -42.3941 C.3       7 UNK         0.1400 
     38 CB          5.2681  -18.8760  -42.0804 C.3       7 UNK        -0.1800 
     39 N           3.9482  -16.7807  -41.8398 N.am      7 UNK        -0.5000 
     40 C           4.7912  -15.7706  -42.1076 C.2       6 UNK         0.5000 
     41 O           5.7466  -15.8670  -42.8784 O.2       6 UNK        -0.5000 
     42 CA          4.5061  -14.4182  -41.4198 C.3       6 UNK         0.1400 
     43 CB          4.6410  -13.2547  -42.4128 C.3       6 UNK        -0.1800 
     44 N           3.1565  -14.3795  -40.8562 N.am      6 UNK        -0.5000 
     45 C           2.8478  -14.4404  -39.5542 C.2       5 UNK         0.5000 
     46 O           3.6850  -14.4648  -38.6517 O.2       5 UNK        -0.5000 
     47 CA          1.3474  -14.5183  -39.1970 C.3       5 UNK         0.1400 
     48 CB          0.8031  -13.1208  -38.8644 C.3       5 UNK        -0.1800 
     49 N           0.5222  -15.1075  -40.2558 N.am      5 UNK        -0.5000 
     50 C           0.6342  -16.3613  -40.7171 C.2       4 UNK         0.5000 
     51 O           1.4045  -17.1948  -40.2415 O.2       4 UNK        -0.5000 
     52 CA         -0.1948  -16.7297  -41.9627 C.3       4 UNK         0.1400 
     53 CB         -1.4680  -17.4889  -41.5621 C.3       4 UNK        -0.1800 
     54 N          -0.5629  -15.5873  -42.8047 N.am      4 UNK        -0.5000 
     55 C           0.2971  -14.7669  -43.4244 C.2       3 UNK         0.5000 
     56 O           1.5228  -14.8580  -43.3071 O.2       3 UNK        -0.5000 
     57 CA         -0.3451  -13.6933  -44.3244 C.3       3 UNK         0.1400 
     58 CB         -1.2613  -12.7432  -43.5246 C.3       3 UNK        -0.1800 
     59 N           0.6227  -12.9438  -45.1313 N.am      3 UNK        -0.5000 
     60 C           1.5289  -12.0329  -44.7403 C.2       2 UNK         0.5000 
     61 O           1.6693  -11.6487  -43.5789 O.2       2 UNK        -0.5000 
     62 CA          2.4297  -11.4333  -45.8447 C.3       2 UNK         0.1400 
     63 CB          3.9002  -11.8324  -45.6481 C.3       2 UNK        -0.1800 
     64 N           2.0179  -11.8350  -47.1922 N.am      2 UNK        -0.5000 
     65 C           1.0527  -11.2433  -47.9100 C.2       1 UNK         0.5000 
     66 O           0.4558  -10.2335  -47.5347 O.2       1 UNK        -0.5000 
     67 C          -5.1720  -19.5482  -48.7367 C.2       11 UNK         0.5000 
     68 O          -6.1795  -19.9987  -49.2832 O.2       11 UNK        -0.5000 
     69 N          -4.8722  -19.7684  -47.4484 N.am      12 UNK        -0.5000 
     70 CA         -5.6628  -20.6152  -46.5556 C.3       12 UNK         0.1400 
     71 CB         -5.2855  -20.3291  -45.0941 C.3       12 UNK        -0.1800 
     72 C          -5.4752  -22.1010  -46.8987 C.2       12 UNK         0.5000 
     73 O          -6.4452  -22.8581  -46.8849 O.2       12 UNK        -0.5000 
     74 N          -4.2412  -22.4766  -47.2629 N.am      13 UNK        -0.5000 
     75 CA         -3.9064  -23.7968  -47.7901 C.3       13 UNK         0.1400 
     76 CB         -2.3851  -23.9381  -47.9045 C.3       13 UNK        -0.1800 
     77 C          -4.5987  -24.0780  -49.1365 C.2       13 UNK         0.5000 
     78 O          -5.1128  -25.1777  -49.3226 O.2       13 UNK        -0.5000 
     79 N          -4.6599  -23.0781  -50.0281 N.am      14 UNK        -0.5000 
     80 CA         -5.3962  -23.1438  -51.2922 C.3       14 UNK         0.1400 
     81 CB         -5.1017  -21.9023  -52.1476 C.3       14 UNK        -0.1800 
     82 C          -6.9113  -23.3165  -51.0934 C.2       14 UNK         0.5000 
     83 O          -7.5168  -24.1367  -51.7828 O.2       14 UNK        -0.5000 
     84 N          -7.4878  -22.5915  -50.1236 N.am      15 UNK        -0.5000 
     85 CA         -8.8920  -22.7182  -49.7197 C.3       15 UNK         0.1400 
     86 CB         -9.2440  -21.6005  -48.7267 C.3       15 UNK        -0.1800 
     87 C          -9.2286  -24.1046  -49.1318 C.2       15 UNK         0.5000 
     88 O         -10.3314  -24.6069  -49.3495 O.2       15 UNK        -0.5000 
     89 N          -8.2583  -24.7136  -48.4375 N.am      16 UNK        -0.5000 
     90 CA         -8.3175  -26.0808  -47.9163 C.3       16 UNK         0.1400 
     91 CB         -7.3366  -26.1967  -46.7376 C.3       16 UNK        -0.1800 
     92 C          -8.0203  -27.1633  -48.9790 C.2       16 UNK         0.5000 
     93 O          -8.1284  -28.3489  -48.6630 O.2       16 UNK        -0.5000 
     94 N          -7.6413  -26.7510  -50.1994 N.am      17 UNK        -0.5000 
     95 CA         -7.2180  -27.5764  -51.3374 C.3       17 UNK         0.1400 
     96 CB         -8.3800  -28.4529  -51.8499 C.3       17 UNK        -0.1800 
     97 C          -5.9248  -28.3751  -51.0592 C.2       17 UNK         0.5000 
     98 O          -5.7785  -29.5050  -51.5304 O.2       17 UNK        -0.5000 
     99 N          -5.0125  -27.7651  -50.2950 N.am      18 UNK        -0.5000 
    100 CA        -3.7076  -28.2913  -49.9151 C.3       18 UNK         0.1400 
    101 CB        -3.5676  -28.1809  -48.3821 C.3       18 UNK        -0.1800 
    102 C         -2.6040  -27.5528  -50.7022 C.2       18 UNK         0.5000 
    103 O         -2.7236  -27.3969  -51.9199 O.2       18 UNK        -0.5000 
    104 N         -1.5328  -27.1408  -50.0113 N.am      19 UNK        -0.5000 
    105 CA        -0.3335  -26.5082  -50.5615 C.3       19 UNK         0.1400 
    106 CB         0.7935  -26.6155  -49.5186 C.3       19 UNK        -0.1800 
    107 C         -0.5690  -25.0511  -51.0113 C.2       19 UNK         0.5000 
    108 O         -0.1291  -24.1140  -50.3417 O.2       19 UNK        -0.5000 
    109 N         -1.2430  -24.8829  -52.1543 N.am      20 UNK        -0.5000 
    110 CA        -1.4978  -23.6121  -52.8392 C.3       20 UNK         0.1400 
    111 CB        -2.6044  -23.8463  -53.8845 C.3       20 UNK        -0.1800 
    112 C         -0.2178  -23.0241  -53.4795 C.2       20 UNK         0.5000 
    113 O         -0.1528  -22.8620  -54.6996 O.2       20 UNK        -0.5000 
    114 N          0.7936  -22.7438  -52.6478 N.am      21 UNK        -0.5000 
    115 CA         2.1681  -22.4074  -53.0344 C.3       21 UNK         0.1400 
    116 CB         3.0221  -22.2678  -51.7653 C.3       21 UNK        -0.1800 
    117 C          2.3282  -21.1653  -53.9339 C.2       21 UNK         0.5000 
    118 O          3.2939  -21.1062  -54.6967 O.2       21 UNK        -0.5000 
    119 N          1.3889  -20.2160  -53.8457 N.am      22 UNK        -0.5000 
    120 CA         1.3040  -19.0317  -54.7162 C.3       22 UNK         0.1400 
    121 C          0.1480  -19.1019  -55.7587 C.2       22 UNK         0.5000 
    122 N         -0.5250  -20.2334  -55.9375 N.am      22 UNK        -0.7600 
    123 O         -0.1291  -18.1208  -56.4436 O.2       22 UNK        -0.5000 
    124 C124        1.3293  -17.7110  -53.9027 C.3       23 UNK        -0.0398 
    125 S125       -0.0959  -17.4496  -52.7916 S.3       23 UNK        -0.2404 
    126 C126        0.5965  -16.1594  -51.7111 C.3       23 UNK        -0.0205 
    127 H127        3.4870  -14.3450  -50.7617 H         1 UNK         0.0600 
    128 H128        4.8214  -13.2628  -50.3533 H         1 UNK         0.0600 
    129 H129        4.0500  -13.1565  -51.9395 H         1 UNK         0.0600 
    130 H130        1.5858  -13.7457  -49.7967 H         1 UNK         0.3000 
    131 H131       -0.0677  -12.6717  -48.9385 H         1 UNK         0.0600 
    132 H132        0.4658   -9.9997  -50.2722 H         1 UNK         0.0800 
    133 H133        0.1749  -11.3662  -51.2984 H         1 UNK         0.0800 
    134 H134       -3.5313  -12.1279  -51.1008 H         1 UNK         0.0800 
    135 H135       -2.1480  -11.9632  -52.1535 H         1 UNK         0.0800 
    136 H136       -0.5843  -13.7756  -52.2946 H         1 UNK         0.1150 
    137 H137       -0.6139  -16.9268  -49.3949 H         1 UNK         0.1150 
    138 H138       -3.2394  -13.5706  -48.9333 H         1 UNK         0.1150 
    139 H139       -2.0203  -16.8462  -47.4992 H         1 UNK         0.0800 
    140 H140       -2.4495  -15.2548  -46.9447 H         1 UNK         0.0800 
    141 H141       -3.8442  -16.7058  -50.2830 H         1 UNK         0.0800 
    142 H142       -5.4904  -17.0543  -49.9119 H         1 UNK         0.0800 
    143 H143       -4.2836  -19.0538  -50.6002 H         1 UNK         0.0600 
    144 H144       -2.2918  -18.3260  -48.6449 H         1 UNK         0.3000 
    145 H145       -0.5794  -21.4252  -48.7691 H         1 UNK         0.0600 
    146 H146        1.3462  -20.1841  -49.6468 H         1 UNK         0.0600 
    147 H147        0.1782  -20.4414  -50.9346 H         1 UNK         0.0600 
    148 H148        0.3116  -18.8628  -50.1748 H         1 UNK         0.0600 
    149 H149        0.3909  -19.0996  -47.6432 H         1 UNK         0.3000 
    150 H150       -1.2511  -18.3502  -45.0239 H         1 UNK         0.0600 
    151 H151       -1.5773  -20.4913  -43.8451 H         1 UNK         0.0600 
    152 H152       -0.1717  -19.6838  -43.1752 H         1 UNK         0.0600 
    153 H153        0.0375  -21.0320  -44.2878 H         1 UNK         0.0600 
    154 H154        1.5428  -19.2346  -45.1213 H         1 UNK         0.3000 
    155 H155        3.1219  -17.7943  -46.4786 H         1 UNK         0.0600 
    156 H156        3.9666  -15.4748  -46.4627 H         1 UNK         0.0600 
    157 H157        2.4234  -14.8821  -45.8618 H         1 UNK         0.0600 
    158 H158        2.5311  -15.5874  -47.4703 H         1 UNK         0.0600 
    159 H159        2.9535  -16.2892  -43.9290 H         1 UNK         0.3000 
    160 H160        3.1556  -18.6675  -41.8641 H         1 UNK         0.0600 
    161 H161        6.1071  -18.4695  -42.6453 H         1 UNK         0.0600 
    162 H162        5.1933  -19.9348  -42.3311 H         1 UNK         0.0600 
    163 H163        5.5132  -18.8128  -41.0202 H         1 UNK         0.0600 
    164 H164        3.1976  -16.5991  -41.1837 H         1 UNK         0.3000 
    165 H165        5.2549  -14.2895  -40.6362 H         1 UNK         0.0600 
    166 H166        3.9516  -13.3789  -43.2473 H         1 UNK         0.0600 
    167 H167        4.4215  -12.2988  -41.9371 H         1 UNK         0.0600 
    168 H168        5.6502  -13.1917  -42.8212 H         1 UNK         0.0600 
    169 H169        2.4063  -14.3806  -41.5404 H         1 UNK         0.3000 
    170 H170        1.2525  -15.1465  -38.3088 H         1 UNK         0.0600 
    171 H171        1.3775  -12.6588  -38.0603 H         1 UNK         0.0600 
    172 H172        0.8518  -12.4551  -39.7273 H         1 UNK         0.0600 
    173 H173       -0.2347  -13.1690  -38.5342 H         1 UNK         0.0600 
    174 H174       -0.1322  -14.4904  -40.7133 H         1 UNK         0.3000 
    175 H175        0.4230  -17.3934  -42.5706 H         1 UNK         0.0600 
    176 H176       -2.1384  -16.8649  -40.9697 H         1 UNK         0.0600 
    177 H177       -2.0163  -17.8332  -42.4392 H         1 UNK         0.0600 
    178 H178       -1.2268  -18.3701  -40.9660 H         1 UNK         0.0600 
    179 H179       -1.5524  -15.4484  -42.9493 H         1 UNK         0.3000 
    180 H180       -0.9662  -14.2286  -45.0441 H         1 UNK         0.0600 
    181 H181       -0.7328  -12.2642  -42.6998 H         1 UNK         0.0600 
    182 H182       -2.1107  -13.2767  -43.0973 H         1 UNK         0.0600 
    183 H183       -1.6666  -11.9579  -44.1629 H         1 UNK         0.0600 
    184 H184        0.6317  -13.1912  -46.1087 H         1 UNK         0.3000 
    185 H185        2.3645  -10.3464  -45.7616 H         1 UNK         0.0600 
    186 H186        4.5314  -11.4086  -46.4295 H         1 UNK         0.0600 
    187 H187        4.2787  -11.4605  -44.6957 H         1 UNK         0.0600 
    188 H188        4.0327  -12.9145  -45.6604 H         1 UNK         0.0600 
    189 H189        2.4805  -12.6409  -47.5865 H         1 UNK         0.3000 
    190 H190       -3.9908  -19.4327  -47.0862 H         1 UNK         0.3000 
    191 H191       -6.7184  -20.3683  -46.6875 H         1 UNK         0.0600 
    192 H192       -5.4324  -19.2774  -44.8481 H         1 UNK         0.0600 
    193 H193       -5.9067  -20.9123  -44.4133 H         1 UNK         0.0600 
    194 H194       -4.2462  -20.5809  -44.8827 H         1 UNK         0.0600 
    195 H195       -3.4890  -21.7985  -47.1917 H         1 UNK         0.3000 
    196 H196       -4.2598  -24.5397  -47.0722 H         1 UNK         0.0600 
    197 H197       -2.1091  -24.9478  -48.2073 H         1 UNK         0.0600 
    198 H198       -1.8933  -23.7361  -46.9529 H         1 UNK         0.0600 
    199 H199       -1.9786  -23.2519  -48.6448 H         1 UNK         0.0600 
    200 H200       -4.1331  -22.2276  -49.8536 H         1 UNK         0.3000 
    201 H201       -5.0405  -24.0245  -51.8279 H         1 UNK         0.0600 
    202 H202       -4.0349  -21.7874  -52.3325 H         1 UNK         0.0600 
    203 H203       -5.4560  -20.9892  -51.6707 H         1 UNK         0.0600 
    204 H204       -5.5921  -21.9750  -53.1190 H         1 UNK         0.0600 
    205 H205       -6.9318  -21.8982  -49.6345 H         1 UNK         0.3000 
    206 H206       -9.5060  -22.5824  -50.6123 H         1 UNK         0.0600 
    207 H207       -9.0569  -20.6166  -49.1575 H         1 UNK         0.0600 
    208 H208      -10.2988  -21.6410  -48.4525 H         1 UNK         0.0600 
    209 H209       -8.6638  -21.6786  -47.8076 H         1 UNK         0.0600 
    210 H210       -7.4036  -24.2002  -48.2541 H         1 UNK         0.3000 
    211 H211       -9.3244  -26.2668  -47.5372 H         1 UNK         0.0600 
    212 H212       -6.3041  -26.0572  -47.0579 H         1 UNK         0.0600 
    213 H213       -7.4026  -27.1780  -46.2663 H         1 UNK         0.0600 
    214 H214       -7.5519  -25.4532  -45.9699 H         1 UNK         0.0600 
    215 H215       -7.5779  -25.7525  -50.3553 H         1 UNK         0.3000 
    216 H216       -6.9656  -26.8761  -52.1347 H         1 UNK         0.0600 
    217 H217       -9.2695  -27.8533  -52.0432 H         1 UNK         0.0600 
    218 H218       -8.6482  -29.2319  -51.1358 H         1 UNK         0.0600 
    219 H219       -8.1134  -28.9464  -52.7851 H         1 UNK         0.0600 
    220 H220       -5.2011  -26.8145  -49.9779 H         1 UNK         0.3000 
    221 H221       -3.6329  -29.3468  -50.1829 H         1 UNK         0.0600 
    222 H222       -3.5742  -27.1437  -48.0449 H         1 UNK         0.0600 
    223 H223       -4.3916  -28.6904  -47.8817 H         1 UNK         0.0600 
    224 H224       -2.6475  -28.6477  -48.0291 H         1 UNK         0.0600 
    225 H225       -1.5267  -27.2981  -49.0145 H         1 UNK         0.3000 
    226 H226       -0.0202  -27.0736  -51.4417 H         1 UNK         0.0600 
    227 H227        1.0139  -27.6564  -49.2811 H         1 UNK         0.0600 
    228 H228        1.7154  -26.1672  -49.8917 H         1 UNK         0.0600 
    229 H229        0.5339  -26.1067  -48.5892 H         1 UNK         0.0600 
    230 H230       -1.6192  -25.7140  -52.5958 H         1 UNK         0.3000 
    231 H231       -1.8634  -22.8919  -52.1048 H         1 UNK         0.0600 
    232 H232       -2.9036  -22.9090  -54.3554 H         1 UNK         0.0600 
    233 H233       -3.4929  -24.2853  -53.4355 H         1 UNK         0.0600 
    234 H234       -2.2743  -24.5212  -54.6753 H         1 UNK         0.0600 
    235 H235        0.6426  -22.9583  -51.6659 H         1 UNK         0.3000 
    236 H236        2.5505  -23.2580  -53.6021 H         1 UNK         0.0600 
    237 H237        2.9797  -23.1719  -51.1575 H         1 UNK         0.0600 
    238 H238        4.0695  -22.0945  -52.0161 H         1 UNK         0.0600 
    239 H239        2.6916  -21.4324  -51.1493 H         1 UNK         0.0600 
    240 H240        0.6205  -20.3476  -53.2053 H         1 UNK         0.3000 
    241 H241        2.1964  -18.9977  -55.3430 H         1 UNK         0.0600 
    242 H242       -0.2809  -21.0837  -55.4387 H         1 UNK         0.3800 
    243 H243       -1.2609  -20.2600  -56.6249 H         1 UNK         0.3800 
    244 H244        1.3967  -16.8554  -54.5767 H         1 UNK         0.0800 
    245 H245        2.2417  -17.6845  -53.3052 H         1 UNK         0.0800 
    246 H246        1.3129  -16.6096  -51.0224 H         1 UNK         0.0800 
    247 H247        1.1577  -15.4427  -52.3131 H         1 UNK         0.0800 
@<TRIPOS>BOND
     1    1    2 1    
     2    1  127 1    
     3    1  128 1    
     4    1  129 1    
     5    2    3 2    
     6    2    4 am   BACKBONE|DICT|INTERRES
     7    4    5 1    
     8    4  130 1    
     9    5    6 1    
    10    5   65 1    
    11    5  131 1    
    12    6    7 1    
    13    6  132 1    
    14    6  133 1    
    15    7    8 1    
    16    8    9 1    
    17    8  134 1    
    18    8  135 1    
    19    9   10 ar   
    20    9   14 ar   
    21   10   11 ar   
    22   10  136 1    
    23   11   12 ar   
    24   11  126 1    
    25   12   13 ar   
    26   12  137 1    
    27   13   14 ar   
    28   13   15 1    
    29   14  138 1    
    30   15   16 1    
    31   15  139 1    
    32   15  140 1    
    33   16   17 1    
    34   17   18 1    
    35   17  141 1    
    36   17  142 1    
    37   18   19 1    
    38   18   67 1    
    39   18  143 1    
    40   19   20 am   BACKBONE|DICT|INTERRES
    41   19  144 1    
    42   20   21 2    
    43   20   22 1    
    44   22   23 1    
    45   22   24 1    
    46   22  145 1    
    47   23  146 1    
    48   23  147 1    
    49   23  148 1    
    50   24   25 am   BACKBONE|DICT|INTERRES
    51   24  149 1    
    52   25   26 2    
    53   25   27 1    
    54   27   28 1    
    55   27   29 1    
    56   27  150 1    
    57   28  151 1    
    58   28  152 1    
    59   28  153 1    
    60   29   30 am   BACKBONE|DICT|INTERRES
    61   29  154 1    
    62   30   31 2    
    63   30   32 1    
    64   32   33 1    
    65   32   34 1    
    66   32  155 1    
    67   33  156 1    
    68   33  157 1    
    69   33  158 1    
    70   34   35 am   BACKBONE|DICT|INTERRES
    71   34  159 1    
    72   35   36 2    
    73   35   37 1    
    74   37   38 1    
    75   37   39 1    
    76   37  160 1    
    77   38  161 1    
    78   38  162 1    
    79   38  163 1    
    80   39   40 am   BACKBONE|DICT|INTERRES
    81   39  164 1    
    82   40   41 2    
    83   40   42 1    
    84   42   43 1    
    85   42   44 1    
    86   42  165 1    
    87   43  166 1    
    88   43  167 1    
    89   43  168 1    
    90   44   45 am   BACKBONE|DICT|INTERRES
    91   44  169 1    
    92   45   46 2    
    93   45   47 1    
    94   47   48 1    
    95   47   49 1    
    96   47  170 1    
    97   48  171 1    
    98   48  172 1    
    99   48  173 1    
   100   49   50 am   BACKBONE|DICT|INTERRES
   101   49  174 1    
   102   50   51 2    
   103   50   52 1    
   104   52   53 1    
   105   52   54 1    
   106   52  175 1    
   107   53  176 1    
   108   53  177 1    
   109   53  178 1    
   110   54   55 am   BACKBONE|DICT|INTERRES
   111   54  179 1    
   112   55   56 2    
   113   55   57 1    
   114   57   58 1    
   115   57   59 1    
   116   57  180 1    
   117   58  181 1    
   118   58  182 1    
   119   58  183 1    
   120   59   60 am   BACKBONE|DICT|INTERRES
   121   59  184 1    
   122   60   61 2    
   123   60   62 1    
   124   62   63 1    
   125   62   64 1    
   126   62  185 1    
   127   63  186 1    
   128   63  187 1    
   129   63  188 1    
   130   64   65 am   BACKBONE|DICT|INTERRES
   131   64  189 1    
   132   65   66 2    
   133   67   68 2    
   134   67   69 am   BACKBONE|DICT|INTERRES
   135   69   70 1    
   136   69  190 1    
   137   70   71 1    
   138   70   72 1    
   139   70  191 1    
   140   71  192 1    
   141   71  193 1    
   142   71  194 1    
   143   72   73 2    
   144   72   74 am   BACKBONE|DICT|INTERRES
   145   74   75 1    
   146   74  195 1    
   147   75   76 1    
   148   75   77 1    
   149   75  196 1    
   150   76  197 1    
   151   76  198 1    
   152   76  199 1    
   153   77   78 2    
   154   77   79 am   BACKBONE|DICT|INTERRES
   155   79   80 1    
   156   79  200 1    
   157   80   81 1    
   158   80   82 1    
   159   80  201 1    
   160   81  202 1    
   161   81  203 1    
   162   81  204 1    
   163   82   83 2    
   164   82   84 am   BACKBONE|DICT|INTERRES
   165   84   85 1    
   166   84  205 1    
   167   85   86 1    
   168   85   87 1    
   169   85  206 1    
   170   86  207 1    
   171   86  208 1    
   172   86  209 1    
   173   87   88 2    
   174   87   89 am   BACKBONE|DICT|INTERRES
   175   89   90 1    
   176   89  210 1    
   177   90   91 1    
   178   90   92 1    
   179   90  211 1    
   180   91  212 1    
   181   91  213 1    
   182   91  214 1    
   183   92   93 2    
   184   92   94 am   BACKBONE|DICT|INTERRES
   185   94   95 1    
   186   94  215 1    
   187   95   96 1    
   188   95   97 1    
   189   95  216 1    
   190   96  217 1    
   191   96  218 1    
   192   96  219 1    
   193   97   98 2    
   194   97   99 am   BACKBONE|DICT|INTERRES
   195   99  100 1    
   196   99  220 1    
   197  100  101 1    
   198  100  102 1    
   199  100  221 1    
   200  101  222 1    
   201  101  223 1    
   202  101  224 1    
   203  102  103 2    
   204  102  104 am   BACKBONE|DICT|INTERRES
   205  104  105 1    
   206  104  225 1    
   207  105  106 1    
   208  105  107 1    
   209  105  226 1    
   210  106  227 1    
   211  106  228 1    
   212  106  229 1    
   213  107  108 2    
   214  107  109 am   BACKBONE|DICT|INTERRES
   215  109  110 1    
   216  109  230 1    
   217  110  111 1    
   218  110  112 1    
   219  110  231 1    
   220  111  232 1    
   221  111  233 1    
   222  111  234 1    
   223  112  113 2    
   224  112  114 am   BACKBONE|DICT|INTERRES
   225  114  115 1    
   226  114  235 1    
   227  115  116 1    
   228  115  117 1    
   229  115  236 1    
   230  116  237 1    
   231  116  238 1    
   232  116  239 1    
   233  117  118 2    
   234  117  119 am   BACKBONE|DICT|INTERRES
   235  119  120 1    
   236  119  240 1    
   237  120  121 1    
   238  120  124 1    
   239  120  241 1    
   240  121  122 am   BACKBONE|DICT|INTERRES
   241  121  123 2    
   242  122  242 1    
   243  122  243 1    
   244  124  125 1    
   245  124  244 1    
   246  124  245 1    
   247  125  126 1    
   248  126  246 1    
   249  126  247 1    
@<TRIPOS>SUBSTRUCTURE
     1 UNK         1 GROUP             0       ****    0 ROOT    
