@<TRIPOS>MOLECULE
3R540
247   249    1
SMALL
USER_CHARGES


@<TRIPOS>ATOM
      1 CA          1.4521  -11.3580  -49.4133 C.3       0 UNK        -0.1800 
      2 C           0.8974  -12.3058  -50.4764 C.2       0 UNK         0.5000 
      3 O           0.2454  -11.8466  -51.4110 O.2       0 UNK        -0.5000 
      4 N           1.1349  -13.6235  -50.3956 N.am      1 UNK        -0.5000 
      5 CA          1.8223  -14.3311  -49.3096 C.3       1 UNK         0.1400 
      6 C6          2.2774  -15.7465  -49.7512 C.3       23 UNK        -0.0398 
      7 S7          3.6004  -16.4312  -48.6954 S.3       23 UNK        -0.2404 
      8 C8          4.4708  -17.5428  -49.8439 C.3       23 UNK        -0.0205 
      9 C9          3.6821  -18.8132  -50.1323 C.ar      23 UNK        -0.0193 
     10 C10         2.7607  -18.8436  -51.1818 C.ar      23 UNK        -0.1150 
     11 C11         2.0655  -20.0143  -51.4973 C.ar      23 UNK        -0.0193 
     12 C12         2.3094  -21.1686  -50.7402 C.ar      23 UNK        -0.1150 
     13 C13         3.2305  -21.1592  -49.6848 C.ar      23 UNK        -0.0193 
     14 C14         3.9115  -19.9733  -49.3864 C.ar      23 UNK        -0.1150 
     15 C15         3.5375  -22.4646  -48.9495 C.3       23 UNK        -0.0205 
     16 S16         3.8496  -22.3267  -47.1503 S.3       23 UNK        -0.2404 
     17 C17         2.3430  -21.5370  -46.4907 C.3       23 UNK        -0.0398 
     18 CA          1.1498  -22.5090  -46.2813 C.3       11 UNK         0.1400 
     19 N           0.2775  -22.1083  -45.1682 N.am      11 UNK        -0.5000 
     20 C          -0.8066  -22.7834  -44.7505 C.2       10 UNK         0.5000 
     21 O          -1.1344  -23.8863  -45.1856 O.2       10 UNK        -0.5000 
     22 CA         -1.7190  -22.0886  -43.7216 C.3       10 UNK         0.1400 
     23 CB         -1.2166  -22.3191  -42.2893 C.3       10 UNK        -0.1800 
     24 N          -1.8626  -20.6549  -43.9775 N.am      10 UNK        -0.5000 
     25 C          -2.4447  -20.1308  -45.0665 C.2       9 UNK         0.5000 
     26 O          -3.0037  -20.8064  -45.9297 O.2       9 UNK        -0.5000 
     27 CA         -2.3194  -18.6061  -45.2545 C.3       9 UNK         0.1400 
     28 CB         -3.4083  -17.8537  -44.4767 C.3       9 UNK        -0.1800 
     29 N          -0.9951  -18.1163  -44.8625 N.am      9 UNK        -0.5000 
     30 C           0.1353  -18.4288  -45.5129 C.2       8 UNK         0.5000 
     31 O           0.1556  -19.0684  -46.5638 O.2       8 UNK        -0.5000 
     32 CA          1.4629  -18.0165  -44.8531 C.3       8 UNK         0.1400 
     33 CB          1.8925  -16.6127  -45.2855 C.3       8 UNK        -0.1800 
     34 N           1.3899  -18.0769  -43.3953 N.am      8 UNK        -0.5000 
     35 C           1.4447  -19.2162  -42.6925 C.2       7 UNK         0.5000 
     36 O           1.6044  -20.3213  -43.2087 O.2       7 UNK        -0.5000 
     37 CA          1.2499  -19.1104  -41.1674 C.3       7 UNK         0.1400 
     38 CB          2.5976  -18.8788  -40.4687 C.3       7 UNK        -0.1800 
     39 N           0.3209  -18.0461  -40.7844 N.am      7 UNK        -0.5000 
     40 C          -0.9827  -18.0214  -41.0968 C.2       6 UNK         0.5000 
     41 O          -1.5565  -18.9382  -41.6823 O.2       6 UNK        -0.5000 
     42 CA         -1.7592  -16.7341  -40.7540 C.3       6 UNK         0.1400 
     43 CB         -2.4437  -16.8671  -39.3860 C.3       6 UNK        -0.1800 
     44 N          -0.9193  -15.5311  -40.7623 N.am      6 UNK        -0.5000 
     45 C          -0.2761  -15.0599  -41.8387 C.2       5 UNK         0.5000 
     46 O          -0.3401  -15.5797  -42.9551 O.2       5 UNK        -0.5000 
     47 CA          0.6682  -13.8765  -41.5991 C.3       5 UNK         0.1400 
     48 CB          2.0073  -14.3945  -41.0330 C.3       5 UNK        -0.1800 
     49 N           0.8897  -13.1614  -42.8534 N.am      5 UNK        -0.5000 
     50 C           1.4894  -11.9689  -42.9645 C.2       4 UNK         0.5000 
     51 O           1.8864  -11.3109  -42.0016 O.2       4 UNK        -0.5000 
     52 CA          1.6858  -11.4090  -44.3843 C.3       4 UNK         0.1400 
     53 CB          2.9688  -11.9761  -45.0117 C.3       4 UNK        -0.1800 
     54 N           0.5478  -11.6704  -45.2664 N.am      4 UNK        -0.5000 
     55 C          -0.6208  -11.0124  -45.1942 C.2       3 UNK         0.5000 
     56 O          -0.8537  -10.1387  -44.3578 O.2       3 UNK        -0.5000 
     57 CA         -1.7121  -11.3550  -46.2310 C.3       3 UNK         0.1400 
     58 CB         -1.8101  -10.2526  -47.2976 C.3       3 UNK        -0.1800 
     59 N          -1.5016  -12.6393  -46.8973 N.am      3 UNK        -0.5000 
     60 C          -1.6793  -13.8308  -46.3139 C.2       2 UNK         0.5000 
     61 O          -2.1215  -13.9698  -45.1745 O.2       2 UNK        -0.5000 
     62 CA         -1.2778  -15.0748  -47.1286 C.3       2 UNK         0.1400 
     63 CB         -2.5165  -15.7537  -47.7222 C.3       2 UNK        -0.1800 
     64 N          -0.3140  -14.8341  -48.2094 N.am      2 UNK        -0.5000 
     65 C           0.9380  -14.3825  -48.0478 C.2       1 UNK         0.5000 
     66 O           1.3751  -13.9638  -46.9782 O.2       1 UNK        -0.5000 
     67 C           0.3420  -22.6584  -47.5828 C.2       11 UNK         0.5000 
     68 O           0.3884  -23.7133  -48.2131 O.2       11 UNK        -0.5000 
     69 N          -0.4170  -21.6112  -47.9293 N.am      12 UNK        -0.5000 
     70 CA         -1.2759  -21.5677  -49.1077 C.3       12 UNK         0.1400 
     71 CB         -1.8559  -20.1571  -49.2572 C.3       12 UNK        -0.1800 
     72 C          -2.3783  -22.6420  -49.1076 C.2       12 UNK         0.5000 
     73 O          -2.6273  -23.2491  -50.1461 O.2       12 UNK        -0.5000 
     74 N          -2.9806  -22.8982  -47.9384 N.am      13 UNK        -0.5000 
     75 CA         -3.9413  -23.9810  -47.7316 C.3       13 UNK         0.1400 
     76 CB         -4.5811  -23.8441  -46.3420 C.3       13 UNK        -0.1800 
     77 C          -3.3081  -25.3750  -47.9162 C.2       13 UNK         0.5000 
     78 O          -3.8795  -26.2115  -48.6166 O.2       13 UNK        -0.5000 
     79 N          -2.1280  -25.5924  -47.3161 N.am      14 UNK        -0.5000 
     80 CA         -1.3560  -26.8359  -47.4083 C.3       14 UNK         0.1400 
     81 CB         -0.1958  -26.7940  -46.4024 C.3       14 UNK        -0.1800 
     82 C          -0.8326  -27.1297  -48.8277 C.2       14 UNK         0.5000 
     83 O          -0.7693  -28.2941  -49.2234 O.2       14 UNK        -0.5000 
     84 N          -0.5001  -26.0714  -49.5775 N.am      15 UNK        -0.5000 
     85 CA         -0.0820  -26.1134  -50.9810 C.3       15 UNK         0.1400 
     86 CB          0.5994  -24.7806  -51.3292 C.3       15 UNK        -0.1800 
     87 C          -1.2261  -26.4200  -51.9734 C.2       15 UNK         0.5000 
     88 O          -0.9456  -26.6117  -53.1579 O.2       15 UNK        -0.5000 
     89 N          -2.4712  -26.4746  -51.4770 N.am      16 UNK        -0.5000 
     90 CA         -3.7357  -26.6686  -52.1910 C.3       16 UNK         0.1400 
     91 CB         -3.7163  -27.9432  -53.0633 C.3       16 UNK        -0.1800 
     92 C          -4.1811  -25.4168  -52.9736 C.2       16 UNK         0.5000 
     93 O          -3.4560  -24.4232  -53.0446 O.2       16 UNK        -0.5000 
     94 N          -5.4062  -25.4887  -53.5125 N.am      17 UNK        -0.5000 
     95 CA         -6.2125  -24.3716  -54.0149 C.3       17 UNK         0.1400 
     96 CB         -5.5165  -23.6112  -55.1679 C.3       17 UNK        -0.1800 
     97 C          -6.6836  -23.4794  -52.8455 C.2       17 UNK         0.5000 
     98 O          -6.9466  -24.0014  -51.7583 O.2       17 UNK        -0.5000 
     99 N          -6.8401  -22.1728  -53.0845 N.am      18 UNK        -0.5000 
    100 CA        -7.3067  -21.2120  -52.0878 C.3       18 UNK         0.1400 
    101 CB        -7.7385  -19.9227  -52.8045 C.3       18 UNK        -0.1800 
    102 C         -6.2263  -20.8971  -51.0386 C.2       18 UNK         0.5000 
    103 O         -5.0559  -20.7406  -51.3887 O.2       18 UNK        -0.5000 
    104 N         -6.6550  -20.7067  -49.7830 N.am      19 UNK        -0.5000 
    105 CA        -5.8143  -20.1942  -48.6936 C.3       19 UNK         0.1400 
    106 CB        -6.5488  -20.3715  -47.3573 C.3       19 UNK        -0.1800 
    107 C         -5.4059  -18.7200  -48.8987 C.2       19 UNK         0.5000 
    108 O         -4.4364  -18.2644  -48.2951 O.2       19 UNK        -0.5000 
    109 N         -6.1261  -18.0076  -49.7760 N.am      20 UNK        -0.5000 
    110 CA        -5.7993  -16.6781  -50.2810 C.3       20 UNK         0.1400 
    111 CB        -7.0691  -16.0587  -50.8909 C.3       20 UNK        -0.1800 
    112 C         -4.6304  -16.7414  -51.2872 C.2       20 UNK         0.5000 
    113 O         -4.8346  -16.5811  -52.4923 O.2       20 UNK        -0.5000 
    114 N         -3.4266  -17.0035  -50.7601 N.am      21 UNK        -0.5000 
    115 CA        -2.1260  -16.9686  -51.4397 C.3       21 UNK         0.1400 
    116 CB        -1.7427  -15.5098  -51.7655 C.3       21 UNK        -0.1800 
    117 C         -2.0286  -17.8977  -52.6691 C.2       21 UNK         0.5000 
    118 O         -1.4191  -17.5260  -53.6731 O.2       21 UNK        -0.5000 
    119 N         -2.6292  -19.0894  -52.5613 N.am      22 UNK        -0.5000 
    120 CA        -2.6824  -20.1375  -53.5964 C.3       22 UNK         0.1400 
    121 C         -3.6206  -19.7987  -54.7958 C.2       22 UNK         0.5000 
    122 N         -4.4454  -18.7583  -54.7295 N.am      22 UNK        -0.7600 
    123 O         -3.6256  -20.5058  -55.7995 O.2       22 UNK        -0.5000 
    124 C124       -1.2824  -20.6485  -54.0524 C.3       23 UNK        -0.0398 
    125 S125       -0.2350  -21.2136  -52.6641 S.3       23 UNK        -0.2404 
    126 C126        1.1224  -19.9942  -52.7034 C.3       23 UNK        -0.0205 
    127 H127        1.0152  -11.5547  -48.4359 H         1 UNK         0.0600 
    128 H128        1.2272  -10.3232  -49.6721 H         1 UNK         0.0600 
    129 H129        2.5354  -11.4490  -49.3374 H         1 UNK         0.0600 
    130 H130        0.7899  -14.2057  -51.1438 H         1 UNK         0.3000 
    131 H131        2.7206  -13.7623  -49.0615 H         1 UNK         0.0600 
    132 H132        2.6668  -15.6929  -50.7687 H         1 UNK         0.0800 
    133 H133        1.4445  -16.4514  -49.7850 H         1 UNK         0.0800 
    134 H134        5.4365  -17.8024  -49.4075 H         1 UNK         0.0800 
    135 H135        4.6960  -17.0160  -50.7724 H         1 UNK         0.0800 
    136 H136        2.6016  -17.9541  -51.7747 H         1 UNK         0.1150 
    137 H137        1.8051  -22.0903  -50.9903 H         1 UNK         0.1150 
    138 H138        4.6424  -19.9584  -48.5905 H         1 UNK         0.1150 
    139 H139        2.7447  -23.1924  -49.1140 H         1 UNK         0.0800 
    140 H140        4.4274  -22.8977  -49.4075 H         1 UNK         0.0800 
    141 H141        2.0835  -20.6788  -47.1116 H         1 UNK         0.0800 
    142 H142        2.6380  -21.1168  -45.5295 H         1 UNK         0.0800 
    143 H143        1.5438  -23.4932  -46.0192 H         1 UNK         0.0600 
    144 H144        0.5148  -21.2443  -44.6953 H         1 UNK         0.3000 
    145 H145       -2.7110  -22.5372  -43.8036 H         1 UNK         0.0600 
    146 H146       -1.8822  -21.8589  -41.5588 H         1 UNK         0.0600 
    147 H147       -0.2191  -21.9091  -42.1377 H         1 UNK         0.0600 
    148 H148       -1.1695  -23.3847  -42.0617 H         1 UNK         0.0600 
    149 H149       -1.5037  -20.0245  -43.2664 H         1 UNK         0.3000 
    150 H150       -2.4561  -18.3917  -46.3158 H         1 UNK         0.0600 
    151 H151       -4.3985  -18.1214  -44.8474 H         1 UNK         0.0600 
    152 H152       -3.2995  -16.7744  -44.5866 H         1 UNK         0.0600 
    153 H153       -3.3838  -18.0860  -43.4125 H         1 UNK         0.0600 
    154 H154       -0.9354  -17.5606  -44.0192 H         1 UNK         0.3000 
    155 H155        2.2320  -18.7119  -45.1948 H         1 UNK         0.0600 
    156 H156        1.9688  -16.5643  -46.3692 H         1 UNK         0.0600 
    157 H157        2.8686  -16.3502  -44.8780 H         1 UNK         0.0600 
    158 H158        1.1825  -15.8476  -44.9763 H         1 UNK         0.0600 
    159 H159        1.1882  -17.2090  -42.9178 H         1 UNK         0.3000 
    160 H160        0.8399  -20.0598  -40.8169 H         1 UNK         0.0600 
    161 H161        3.0458  -17.9282  -40.7612 H         1 UNK         0.0600 
    162 H162        3.3078  -19.6679  -40.7198 H         1 UNK         0.0600 
    163 H163        2.4850  -18.8780  -39.3844 H         1 UNK         0.0600 
    164 H164        0.7106  -17.2571  -40.2912 H         1 UNK         0.3000 
    165 H165       -2.5329  -16.6058  -41.5138 H         1 UNK         0.0600 
    166 H166       -3.0632  -15.9968  -39.1684 H         1 UNK         0.0600 
    167 H167       -3.0945  -17.7422  -39.3589 H         1 UNK         0.0600 
    168 H168       -1.7167  -16.9733  -38.5798 H         1 UNK         0.0600 
    169 H169       -0.8058  -15.0583  -39.8769 H         1 UNK         0.3000 
    170 H170        0.2001  -13.1975  -40.8836 H         1 UNK         0.0600 
    171 H171        2.5174  -15.0449  -41.7450 H         1 UNK         0.0600 
    172 H172        2.6845  -13.5773  -40.7860 H         1 UNK         0.0600 
    173 H173        1.8561  -14.9655  -40.1162 H         1 UNK         0.0600 
    174 H174        0.5461  -13.6373  -43.6785 H         1 UNK         0.3000 
    175 H175        1.8092  -10.3269  -44.3015 H         1 UNK         0.0600 
    176 H176        2.9477  -13.0654  -45.0605 H         1 UNK         0.0600 
    177 H177        3.1175  -11.5971  -46.0230 H         1 UNK         0.0600 
    178 H178        3.8442  -11.6947  -44.4254 H         1 UNK         0.0600 
    179 H179        0.6731  -12.4038  -45.9567 H         1 UNK         0.3000 
    180 H180       -2.6651  -11.3959  -45.6992 H         1 UNK         0.0600 
    181 H181       -2.6107  -10.4598  -48.0080 H         1 UNK         0.0600 
    182 H182       -0.8815  -10.1466  -47.8584 H         1 UNK         0.0600 
    183 H183       -2.0266   -9.2862  -46.8404 H         1 UNK         0.0600 
    184 H184       -1.1493  -12.6143  -47.8417 H         1 UNK         0.3000 
    185 H185       -0.8154  -15.7684  -46.4264 H         1 UNK         0.0600 
    186 H186       -2.9901  -15.1350  -48.4851 H         1 UNK         0.0600 
    187 H187       -2.2492  -16.7100  -48.1705 H         1 UNK         0.0600 
    188 H188       -3.2644  -15.9563  -46.9547 H         1 UNK         0.0600 
    189 H189       -0.6119  -15.0976  -49.1351 H         1 UNK         0.3000 
    190 H190       -0.3762  -20.7673  -47.3648 H         1 UNK         0.3000 
    191 H191       -0.6386  -21.7684  -49.9671 H         1 UNK         0.0600 
    192 H192       -1.0732  -19.4382  -49.4981 H         1 UNK         0.0600 
    193 H193       -2.3407  -19.8285  -48.3397 H         1 UNK         0.0600 
    194 H194       -2.5997  -20.1228  -50.0516 H         1 UNK         0.0600 
    195 H195       -2.7663  -22.3097  -47.1382 H         1 UNK         0.3000 
    196 H196       -4.7303  -23.8700  -48.4787 H         1 UNK         0.0600 
    197 H197       -5.0547  -22.8704  -46.2189 H         1 UNK         0.0600 
    198 H198       -3.8461  -23.9584  -45.5454 H         1 UNK         0.0600 
    199 H199       -5.3494  -24.6031  -46.1909 H         1 UNK         0.0600 
    200 H200       -1.7309  -24.8599  -46.7331 H         1 UNK         0.3000 
    201 H201       -2.0175  -27.6577  -47.1270 H         1 UNK         0.0600 
    202 H202       -0.5629  -26.6782  -45.3825 H         1 UNK         0.0600 
    203 H203        0.4849  -25.9672  -46.6080 H         1 UNK         0.0600 
    204 H204        0.3860  -27.7159  -46.4361 H         1 UNK         0.0600 
    205 H205       -0.5036  -25.1543  -49.1384 H         1 UNK         0.3000 
    206 H206        0.6573  -26.9091  -51.0907 H         1 UNK         0.0600 
    207 H207       -0.0843  -23.9411  -51.2009 H         1 UNK         0.0600 
    208 H208        1.4688  -24.6065  -50.6960 H         1 UNK         0.0600 
    209 H209        0.9439  -24.7679  -52.3638 H         1 UNK         0.0600 
    210 H210       -2.5789  -26.2522  -50.4956 H         1 UNK         0.3000 
    211 H211       -4.4791  -26.8190  -51.4067 H         1 UNK         0.0600 
    212 H212       -3.1127  -27.8141  -53.9619 H         1 UNK         0.0600 
    213 H213       -4.7213  -28.2134  -53.3881 H         1 UNK         0.0600 
    214 H214       -3.3194  -28.7946  -52.5104 H         1 UNK         0.0600 
    215 H215       -5.9216  -26.3477  -53.3826 H         1 UNK         0.3000 
    216 H216       -7.1159  -24.8228  -54.4273 H         1 UNK         0.0600 
    217 H217       -6.2157  -22.9522  -55.6835 H         1 UNK         0.0600 
    218 H218       -5.1238  -24.3032  -55.9128 H         1 UNK         0.0600 
    219 H219       -4.6873  -22.9966  -54.8164 H         1 UNK         0.0600 
    220 H220       -6.5695  -21.8013  -53.9830 H         1 UNK         0.3000 
    221 H221       -8.1797  -21.6334  -51.5844 H         1 UNK         0.0600 
    222 H222       -6.9000  -19.4427  -53.3108 H         1 UNK         0.0600 
    223 H223       -8.5094  -20.1231  -53.5488 H         1 UNK         0.0600 
    224 H224       -8.1518  -19.2011  -52.0992 H         1 UNK         0.0600 
    225 H225       -7.6306  -20.8539  -49.5664 H         1 UNK         0.3000 
    226 H226       -4.8979  -20.7864  -48.6600 H         1 UNK         0.0600 
    227 H227       -6.8168  -21.4145  -47.1892 H         1 UNK         0.0600 
    228 H228       -5.9161  -20.0616  -46.5240 H         1 UNK         0.0600 
    229 H229       -7.4629  -19.7779  -47.3167 H         1 UNK         0.0600 
    230 H230       -6.8999  -18.4715  -50.2253 H         1 UNK         0.3000 
    231 H231       -5.4871  -16.0485  -49.4449 H         1 UNK         0.0600 
    232 H232       -6.8695  -15.0562  -51.2714 H         1 UNK         0.0600 
    233 H233       -7.8609  -15.9708  -50.1468 H         1 UNK         0.0600 
    234 H234       -7.4531  -16.6543  -51.7201 H         1 UNK         0.0600 
    235 H235       -3.4097  -17.2363  -49.7725 H         1 UNK         0.3000 
    236 H236       -1.3957  -17.3450  -50.7225 H         1 UNK         0.0600 
    237 H237       -2.3990  -15.0847  -52.5258 H         1 UNK         0.0600 
    238 H238       -1.8041  -14.8732  -50.8835 H         1 UNK         0.0600 
    239 H239       -0.7225  -15.4472  -52.1451 H         1 UNK         0.0600 
    240 H240       -3.1662  -19.2947  -51.7303 H         1 UNK         0.3000 
    241 H241       -3.1668  -20.9864  -53.1140 H         1 UNK         0.0600 
    242 H242       -5.0445  -18.5549  -55.5130 H         1 UNK         0.3800 
    243 H243       -4.4511  -18.1461  -53.9228 H         1 UNK         0.3800 
    244 H244       -1.3991  -21.4996  -54.7251 H         1 UNK         0.0800 
    245 H245       -0.7593  -19.8856  -54.6298 H         1 UNK         0.0800 
    246 H246        1.7120  -20.1590  -53.6059 H         1 UNK         0.0800 
    247 H247        0.6877  -18.9993  -52.7964 H         1 UNK         0.0800 
@<TRIPOS>BOND
     1    1    2 1    
     2    1  127 1    
     3    1  128 1    
     4    1  129 1    
     5    2    3 2    
     6    2    4 am   BACKBONE|DICT|INTERRES
     7    4    5 1    
     8    4  130 1    
     9    5    6 1    
    10    5   65 1    
    11    5  131 1    
    12    6    7 1    
    13    6  132 1    
    14    6  133 1    
    15    7    8 1    
    16    8    9 1    
    17    8  134 1    
    18    8  135 1    
    19    9   10 ar   
    20    9   14 ar   
    21   10   11 ar   
    22   10  136 1    
    23   11   12 ar   
    24   11  126 1    
    25   12   13 ar   
    26   12  137 1    
    27   13   14 ar   
    28   13   15 1    
    29   14  138 1    
    30   15   16 1    
    31   15  139 1    
    32   15  140 1    
    33   16   17 1    
    34   17   18 1    
    35   17  141 1    
    36   17  142 1    
    37   18   19 1    
    38   18   67 1    
    39   18  143 1    
    40   19   20 am   BACKBONE|DICT|INTERRES
    41   19  144 1    
    42   20   21 2    
    43   20   22 1    
    44   22   23 1    
    45   22   24 1    
    46   22  145 1    
    47   23  146 1    
    48   23  147 1    
    49   23  148 1    
    50   24   25 am   BACKBONE|DICT|INTERRES
    51   24  149 1    
    52   25   26 2    
    53   25   27 1    
    54   27   28 1    
    55   27   29 1    
    56   27  150 1    
    57   28  151 1    
    58   28  152 1    
    59   28  153 1    
    60   29   30 am   BACKBONE|DICT|INTERRES
    61   29  154 1    
    62   30   31 2    
    63   30   32 1    
    64   32   33 1    
    65   32   34 1    
    66   32  155 1    
    67   33  156 1    
    68   33  157 1    
    69   33  158 1    
    70   34   35 am   BACKBONE|DICT|INTERRES
    71   34  159 1    
    72   35   36 2    
    73   35   37 1    
    74   37   38 1    
    75   37   39 1    
    76   37  160 1    
    77   38  161 1    
    78   38  162 1    
    79   38  163 1    
    80   39   40 am   BACKBONE|DICT|INTERRES
    81   39  164 1    
    82   40   41 2    
    83   40   42 1    
    84   42   43 1    
    85   42   44 1    
    86   42  165 1    
    87   43  166 1    
    88   43  167 1    
    89   43  168 1    
    90   44   45 am   BACKBONE|DICT|INTERRES
    91   44  169 1    
    92   45   46 2    
    93   45   47 1    
    94   47   48 1    
    95   47   49 1    
    96   47  170 1    
    97   48  171 1    
    98   48  172 1    
    99   48  173 1    
   100   49   50 am   BACKBONE|DICT|INTERRES
   101   49  174 1    
   102   50   51 2    
   103   50   52 1    
   104   52   53 1    
   105   52   54 1    
   106   52  175 1    
   107   53  176 1    
   108   53  177 1    
   109   53  178 1    
   110   54   55 am   BACKBONE|DICT|INTERRES
   111   54  179 1    
   112   55   56 2    
   113   55   57 1    
   114   57   58 1    
   115   57   59 1    
   116   57  180 1    
   117   58  181 1    
   118   58  182 1    
   119   58  183 1    
   120   59   60 am   BACKBONE|DICT|INTERRES
   121   59  184 1    
   122   60   61 2    
   123   60   62 1    
   124   62   63 1    
   125   62   64 1    
   126   62  185 1    
   127   63  186 1    
   128   63  187 1    
   129   63  188 1    
   130   64   65 am   BACKBONE|DICT|INTERRES
   131   64  189 1    
   132   65   66 2    
   133   67   68 2    
   134   67   69 am   BACKBONE|DICT|INTERRES
   135   69   70 1    
   136   69  190 1    
   137   70   71 1    
   138   70   72 1    
   139   70  191 1    
   140   71  192 1    
   141   71  193 1    
   142   71  194 1    
   143   72   73 2    
   144   72   74 am   BACKBONE|DICT|INTERRES
   145   74   75 1    
   146   74  195 1    
   147   75   76 1    
   148   75   77 1    
   149   75  196 1    
   150   76  197 1    
   151   76  198 1    
   152   76  199 1    
   153   77   78 2    
   154   77   79 am   BACKBONE|DICT|INTERRES
   155   79   80 1    
   156   79  200 1    
   157   80   81 1    
   158   80   82 1    
   159   80  201 1    
   160   81  202 1    
   161   81  203 1    
   162   81  204 1    
   163   82   83 2    
   164   82   84 am   BACKBONE|DICT|INTERRES
   165   84   85 1    
   166   84  205 1    
   167   85   86 1    
   168   85   87 1    
   169   85  206 1    
   170   86  207 1    
   171   86  208 1    
   172   86  209 1    
   173   87   88 2    
   174   87   89 am   BACKBONE|DICT|INTERRES
   175   89   90 1    
   176   89  210 1    
   177   90   91 1    
   178   90   92 1    
   179   90  211 1    
   180   91  212 1    
   181   91  213 1    
   182   91  214 1    
   183   92   93 2    
   184   92   94 am   BACKBONE|DICT|INTERRES
   185   94   95 1    
   186   94  215 1    
   187   95   96 1    
   188   95   97 1    
   189   95  216 1    
   190   96  217 1    
   191   96  218 1    
   192   96  219 1    
   193   97   98 2    
   194   97   99 am   BACKBONE|DICT|INTERRES
   195   99  100 1    
   196   99  220 1    
   197  100  101 1    
   198  100  102 1    
   199  100  221 1    
   200  101  222 1    
   201  101  223 1    
   202  101  224 1    
   203  102  103 2    
   204  102  104 am   BACKBONE|DICT|INTERRES
   205  104  105 1    
   206  104  225 1    
   207  105  106 1    
   208  105  107 1    
   209  105  226 1    
   210  106  227 1    
   211  106  228 1    
   212  106  229 1    
   213  107  108 2    
   214  107  109 am   BACKBONE|DICT|INTERRES
   215  109  110 1    
   216  109  230 1    
   217  110  111 1    
   218  110  112 1    
   219  110  231 1    
   220  111  232 1    
   221  111  233 1    
   222  111  234 1    
   223  112  113 2    
   224  112  114 am   BACKBONE|DICT|INTERRES
   225  114  115 1    
   226  114  235 1    
   227  115  116 1    
   228  115  117 1    
   229  115  236 1    
   230  116  237 1    
   231  116  238 1    
   232  116  239 1    
   233  117  118 2    
   234  117  119 am   BACKBONE|DICT|INTERRES
   235  119  120 1    
   236  119  240 1    
   237  120  121 1    
   238  120  124 1    
   239  120  241 1    
   240  121  122 am   BACKBONE|DICT|INTERRES
   241  121  123 2    
   242  122  242 1    
   243  122  243 1    
   244  124  125 1    
   245  124  244 1    
   246  124  245 1    
   247  125  126 1    
   248  126  246 1    
   249  126  247 1    
@<TRIPOS>SUBSTRUCTURE
     1 UNK         1 GROUP             0       ****    0 ROOT    
