@<TRIPOS>MOLECULE
3R540
247   249    1
SMALL
USER_CHARGES


@<TRIPOS>ATOM
      1 CA          2.1130  -15.8639  -47.7520 C.3       0 UNK        -0.1800 
      2 C           0.8177  -15.2629  -48.2769 C.2       0 UNK         0.5000 
      3 O           0.8522  -14.4198  -49.1716 O.2       0 UNK        -0.5000 
      4 N          -0.3201  -15.6950  -47.7158 N.am      1 UNK        -0.5000 
      5 CA         -1.6971  -15.3431  -48.1127 C.3       1 UNK         0.1400 
      6 C6         -2.0506  -15.7164  -49.5820 C.3       23 UNK        -0.0398 
      7 S7         -1.6340  -17.4404  -50.0198 S.3       23 UNK        -0.2404 
      8 C8         -0.4425  -17.1809  -51.3684 C.3       23 UNK        -0.0205 
      9 C9          0.5060  -18.3591  -51.5007 C.ar      23 UNK        -0.0193 
     10 C10         0.2646  -19.3727  -52.4318 C.ar      23 UNK        -0.1150 
     11 C11         1.1596  -20.4400  -52.5631 C.ar      23 UNK        -0.0193 
     12 C12         2.3007  -20.4862  -51.7566 C.ar      23 UNK        -0.1150 
     13 C13         2.5484  -19.4787  -50.8201 C.ar      23 UNK        -0.0193 
     14 C14         1.6471  -18.4193  -50.6982 C.ar      23 UNK        -0.1150 
     15 C15         3.8032  -19.5167  -49.9618 C.3       23 UNK        -0.0205 
     16 S16         3.7403  -20.8210  -48.6952 S.3       23 UNK        -0.2404 
     17 C17         2.4478  -20.2116  -47.5601 C.3       23 UNK        -0.0398 
     18 CA          1.4534  -21.3393  -47.1669 C.3       11 UNK         0.1400 
     19 N           1.3565  -21.5224  -45.7151 N.am      11 UNK        -0.5000 
     20 C           0.7595  -22.5680  -45.1248 C.2       10 UNK         0.5000 
     21 O           0.2698  -23.5130  -45.7429 O.2       10 UNK        -0.5000 
     22 CA          0.6432  -22.5300  -43.5908 C.3       10 UNK         0.1400 
     23 CB          1.9415  -23.0179  -42.9317 C.3       10 UNK        -0.1800 
     24 N           0.2942  -21.2001  -43.0881 N.am      10 UNK        -0.5000 
     25 C          -0.8620  -20.5737  -43.3519 C.2       9 UNK         0.5000 
     26 O          -1.7767  -21.0823  -43.9975 O.2       9 UNK        -0.5000 
     27 CA         -1.0063  -19.1230  -42.8599 C.3       9 UNK         0.1400 
     28 CB         -1.4079  -19.0821  -41.3784 C.3       9 UNK        -0.1800 
     29 N           0.2131  -18.3431  -43.0571 N.am      9 UNK        -0.5000 
     30 C           0.7495  -18.0383  -44.2465 C.2       8 UNK         0.5000 
     31 O           0.2445  -18.3299  -45.3318 O.2       8 UNK        -0.5000 
     32 CA          2.1110  -17.3265  -44.2141 C.3       8 UNK         0.1400 
     33 CB          1.9353  -15.8169  -43.9958 C.3       8 UNK        -0.1800 
     34 N           2.9975  -17.8784  -43.1895 N.am      8 UNK        -0.5000 
     35 C           3.5382  -19.1042  -43.2411 C.2       7 UNK         0.5000 
     36 O           3.3573  -19.8919  -44.1689 O.2       7 UNK        -0.5000 
     37 CA          4.3906  -19.5350  -42.0341 C.3       7 UNK         0.1400 
     38 CB          5.8121  -18.9633  -42.1413 C.3       7 UNK        -0.1800 
     39 N           3.7983  -19.1312  -40.7585 N.am      7 UNK        -0.5000 
     40 C           2.6504  -19.6224  -40.2711 C.2       6 UNK         0.5000 
     41 O           1.9869  -20.4935  -40.8310 O.2       6 UNK        -0.5000 
     42 CA          2.1303  -18.9985  -38.9634 C.3       6 UNK         0.1400 
     43 CB          2.7653  -19.6870  -37.7461 C.3       6 UNK        -0.1800 
     44 N           2.3500  -17.5516  -38.8754 N.am      6 UNK        -0.5000 
     45 C           1.8547  -16.6525  -39.7359 C.2       5 UNK         0.5000 
     46 O           1.2143  -16.9517  -40.7458 O.2       5 UNK        -0.5000 
     47 CA          2.1733  -15.1751  -39.4444 C.3       5 UNK         0.1400 
     48 CB          3.4598  -14.7592  -40.1751 C.3       5 UNK        -0.1800 
     49 N           1.0917  -14.2794  -39.8544 N.am      5 UNK        -0.5000 
     50 C          -0.1586  -14.2910  -39.3698 C.2       4 UNK         0.5000 
     51 O          -0.5300  -15.0384  -38.4632 O.2       4 UNK        -0.5000 
     52 CA         -1.1607  -13.2821  -39.9690 C.3       4 UNK         0.1400 
     53 CB         -1.6576  -12.3054  -38.8897 C.3       4 UNK        -0.1800 
     54 N          -0.6084  -12.5007  -41.0799 N.am      4 UNK        -0.5000 
     55 C          -0.5975  -12.8894  -42.3598 C.2       3 UNK         0.5000 
     56 O          -1.0347  -13.9708  -42.7606 O.2       3 UNK        -0.5000 
     57 CA          0.0200  -11.9000  -43.3556 C.3       3 UNK         0.1400 
     58 CB          1.5523  -12.0344  -43.4055 C.3       3 UNK        -0.1800 
     59 N          -0.5491  -12.1434  -44.6764 N.am      3 UNK        -0.5000 
     60 C          -0.6843  -11.2224  -45.6370 C.2       2 UNK         0.5000 
     61 O          -0.2765  -10.0649  -45.5245 O.2       2 UNK        -0.5000 
     62 CA         -1.3933  -11.6630  -46.9307 C.3       2 UNK         0.1400 
     63 CB         -0.9387  -10.8592  -48.1653 C.3       2 UNK        -0.1800 
     64 N          -1.2141  -13.0937  -47.1844 N.am      2 UNK        -0.5000 
     65 C          -2.1014  -13.8790  -47.8075 C.2       1 UNK         0.5000 
     66 O          -3.2218  -13.4882  -48.1395 O.2       1 UNK        -0.5000 
     67 C           0.0635  -21.1495  -47.8112 C.2       11 UNK         0.5000 
     68 O          -0.2155  -21.7608  -48.8415 O.2       11 UNK        -0.5000 
     69 N          -0.8065  -20.3647  -47.1578 N.am      12 UNK        -0.5000 
     70 CA         -2.2027  -20.1789  -47.5522 C.3       12 UNK         0.1400 
     71 CB         -2.8395  -19.0613  -46.7156 C.3       12 UNK        -0.1800 
     72 C          -3.0276  -21.4730  -47.4572 C.2       12 UNK         0.5000 
     73 O          -3.8042  -21.7569  -48.3684 O.2       12 UNK        -0.5000 
     74 N          -2.8275  -22.2526  -46.3858 N.am      13 UNK        -0.5000 
     75 CA         -3.4467  -23.5638  -46.1841 C.3       13 UNK         0.1400 
     76 CB         -3.1441  -24.0738  -44.7677 C.3       13 UNK        -0.1800 
     77 C          -3.0134  -24.5901  -47.2467 C.2       13 UNK         0.5000 
     78 O          -3.8651  -25.3015  -47.7805 O.2       13 UNK        -0.5000 
     79 N          -1.7150  -24.6044  -47.5839 N.am      14 UNK        -0.5000 
     80 CA         -1.1425  -25.4018  -48.6740 C.3       14 UNK         0.1400 
     81 CB          0.3896  -25.2969  -48.6373 C.3       14 UNK        -0.1800 
     82 C          -1.6860  -25.0032  -50.0616 C.2       14 UNK         0.5000 
     83 O          -1.8319  -25.8636  -50.9295 O.2       14 UNK        -0.5000 
     84 N          -2.0320  -23.7198  -50.2218 N.am      15 UNK        -0.5000 
     85 CA         -2.7091  -23.1444  -51.3837 C.3       15 UNK         0.1400 
     86 CB         -2.3178  -21.6616  -51.4904 C.3       15 UNK        -0.1800 
     87 C          -4.2445  -23.3188  -51.3451 C.2       15 UNK         0.5000 
     88 O          -4.9410  -22.6143  -52.0753 O.2       15 UNK        -0.5000 
     89 N          -4.7520  -24.2281  -50.4976 N.am      16 UNK        -0.5000 
     90 CA         -6.1610  -24.5950  -50.3179 C.3       16 UNK         0.1400 
     91 CB         -6.7159  -25.2744  -51.5874 C.3       16 UNK        -0.1800 
     92 C          -7.0268  -23.4175  -49.8266 C.2       16 UNK         0.5000 
     93 O          -8.1127  -23.1799  -50.3571 O.2       16 UNK        -0.5000 
     94 N          -6.5077  -22.7036  -48.8180 N.am      17 UNK        -0.5000 
     95 CA         -7.0383  -21.4693  -48.2313 C.3       17 UNK         0.1400 
     96 CB         -8.4432  -21.6754  -47.6255 C.3       17 UNK        -0.1800 
     97 C          -6.9511  -20.2935  -49.2242 C.2       17 UNK         0.5000 
     98 O          -7.9213  -19.5550  -49.4032 O.2       17 UNK        -0.5000 
     99 N          -5.7671  -20.1553  -49.8408 N.am      18 UNK        -0.5000 
    100 CA        -5.3796  -19.1299  -50.8148 C.3       18 UNK         0.1400 
    101 CB        -5.2852  -17.7517  -50.1285 C.3       18 UNK        -0.1800 
    102 C         -6.2820  -19.1168  -52.0670 C.2       18 UNK         0.5000 
    103 O         -6.7618  -18.0577  -52.4790 O.2       18 UNK        -0.5000 
    104 N         -6.5034  -20.2979  -52.6581 N.am      19 UNK        -0.5000 
    105 CA        -7.3438  -20.5146  -53.8371 C.3       19 UNK         0.1400 
    106 CB        -7.8076  -21.9820  -53.8520 C.3       19 UNK        -0.1800 
    107 C         -6.6296  -20.1028  -55.1429 C.2       19 UNK         0.5000 
    108 O         -6.4237  -20.9363  -56.0266 O.2       19 UNK        -0.5000 
    109 N         -6.2714  -18.8149  -55.2330 N.am      20 UNK        -0.5000 
    110 CA        -5.5398  -18.1629  -56.3213 C.3       20 UNK         0.1400 
    111 CB        -6.3794  -18.1467  -57.6201 C.3       20 UNK        -0.1800 
    112 C         -4.1146  -18.7380  -56.4790 C.2       20 UNK         0.5000 
    113 O         -3.3728  -18.7731  -55.4947 O.2       20 UNK        -0.5000 
    114 N         -3.7414  -19.1333  -57.7034 N.am      21 UNK        -0.5000 
    115 CA        -2.4362  -19.6949  -58.0539 C.3       21 UNK         0.1400 
    116 CB        -2.3372  -19.7853  -59.5852 C.3       21 UNK        -0.1800 
    117 C         -2.1813  -21.0744  -57.4147 C.2       21 UNK         0.5000 
    118 O         -3.1263  -21.8034  -57.1059 O.2       21 UNK        -0.5000 
    119 N         -0.8970  -21.4147  -57.2602 N.am      22 UNK        -0.5000 
    120 CA        -0.4235  -22.6567  -56.6235 C.3       22 UNK         0.1400 
    121 C         -0.6572  -23.9596  -57.4458 C.2       22 UNK         0.5000 
    122 N         -1.0314  -23.8907  -58.7175 N.am      22 UNK        -0.7600 
    123 O         -0.4964  -25.0559  -56.9167 O.2       22 UNK        -0.5000 
    124 C124        1.0630  -22.5567  -56.1872 C.3       23 UNK        -0.0398 
    125 S125        1.4577  -21.0524  -55.2313 S.3       23 UNK        -0.2404 
    126 C126        0.8942  -21.5419  -53.5754 C.3       23 UNK        -0.0205 
    127 H127        1.9486  -16.8666  -47.3587 H         1 UNK         0.0600 
    128 H128        2.5280  -15.2389  -46.9617 H         1 UNK         0.0600 
    129 H129        2.8510  -15.9348  -48.5510 H         1 UNK         0.0600 
    130 H130       -0.2618  -16.3950  -46.9879 H         1 UNK         0.3000 
    131 H131       -2.3402  -15.9440  -47.4699 H         1 UNK         0.0600 
    132 H132       -1.5650  -15.0295  -50.2765 H         1 UNK         0.0800 
    133 H133       -3.1211  -15.5938  -49.7522 H         1 UNK         0.0800 
    134 H134       -0.9842  -17.0155  -52.3008 H         1 UNK         0.0800 
    135 H135        0.1418  -16.2778  -51.1872 H         1 UNK         0.0800 
    136 H136       -0.6166  -19.3310  -53.0570 H         1 UNK         0.1150 
    137 H137        2.9986  -21.3057  -51.8565 H         1 UNK         0.1150 
    138 H138        1.8346  -17.6330  -49.9829 H         1 UNK         0.1150 
    139 H139        4.6666  -19.6941  -50.6045 H         1 UNK         0.0800 
    140 H140        3.9771  -18.5536  -49.4789 H         1 UNK         0.0800 
    141 H141        1.9393  -19.3497  -47.9947 H         1 UNK         0.0800 
    142 H142        2.9631  -19.8170  -46.6858 H         1 UNK         0.0800 
    143 H143        1.8311  -22.2891  -47.5522 H         1 UNK         0.0600 
    144 H144        1.7820  -20.8098  -45.1321 H         1 UNK         0.3000 
    145 H145       -0.1572  -23.2145  -43.3029 H         1 UNK         0.0600 
    146 H146        1.8323  -23.0838  -41.8492 H         1 UNK         0.0600 
    147 H147        2.2128  -24.0112  -43.2915 H         1 UNK         0.0600 
    148 H148        2.7779  -22.3518  -43.1435 H         1 UNK         0.0600 
    149 H149        0.9765  -20.7469  -42.4877 H         1 UNK         0.3000 
    150 H150       -1.8005  -18.6505  -43.4413 H         1 UNK         0.0600 
    151 H151       -2.3410  -19.6217  -41.2120 H         1 UNK         0.0600 
    152 H152       -1.5578  -18.0568  -41.0391 H         1 UNK         0.0600 
    153 H153       -0.6475  -19.5356  -40.7425 H         1 UNK         0.0600 
    154 H154        0.6742  -18.0003  -42.2177 H         1 UNK         0.3000 
    155 H155        2.5888  -17.4776  -45.1834 H         1 UNK         0.0600 
    156 H156        1.2815  -15.3851  -44.7543 H         1 UNK         0.0600 
    157 H157        1.4914  -15.5947  -43.0251 H         1 UNK         0.0600 
    158 H158        2.8919  -15.2978  -44.0551 H         1 UNK         0.0600 
    159 H159        3.1404  -17.3189  -42.3624 H         1 UNK         0.3000 
    160 H160        4.4595  -20.6248  -42.0472 H         1 UNK         0.0600 
    161 H161        5.8141  -17.8732  -42.1050 H         1 UNK         0.0600 
    162 H162        6.2823  -19.2616  -43.0794 H         1 UNK         0.0600 
    163 H163        6.4452  -19.3274  -41.3319 H         1 UNK         0.0600 
    164 H164        4.2786  -18.4155  -40.2336 H         1 UNK         0.3000 
    165 H165        1.0526  -19.1695  -38.9257 H         1 UNK         0.0600 
    166 H166        2.3321  -19.3211  -36.8151 H         1 UNK         0.0600 
    167 H167        2.6004  -20.7650  -37.7775 H         1 UNK         0.0600 
    168 H168        3.8424  -19.5208  -37.7044 H         1 UNK         0.0600 
    169 H169        2.8795  -17.2270  -38.0791 H         1 UNK         0.3000 
    170 H170        2.3211  -15.0525  -38.3696 H         1 UNK         0.0600 
    171 H171        3.3521  -14.8383  -41.2578 H         1 UNK         0.0600 
    172 H172        3.7315  -13.7298  -39.9404 H         1 UNK         0.0600 
    173 H173        4.3003  -15.3894  -39.8816 H         1 UNK         0.0600 
    174 H174        1.2954  -13.6438  -40.6093 H         1 UNK         0.3000 
    175 H175       -2.0189  -13.8555  -40.3262 H         1 UNK         0.0600 
    176 H176       -2.4029  -11.6189  -39.2920 H         1 UNK         0.0600 
    177 H177       -0.8409  -11.7115  -38.4775 H         1 UNK         0.0600 
    178 H178       -2.1259  -12.8388  -38.0615 H         1 UNK         0.0600 
    179 H179       -0.2224  -11.5988  -40.8380 H         1 UNK         0.3000 
    180 H180       -0.2426  -10.8907  -43.0306 H         1 UNK         0.0600 
    181 H181        1.9912  -11.2891  -44.0689 H         1 UNK         0.0600 
    182 H182        1.8581  -13.0166  -43.7629 H         1 UNK         0.0600 
    183 H183        1.9951  -11.8887  -42.4196 H         1 UNK         0.0600 
    184 H184       -0.9654  -13.0592  -44.7903 H         1 UNK         0.3000 
    185 H185       -2.4528  -11.4581  -46.7642 H         1 UNK         0.0600 
    186 H186       -1.1038   -9.7902  -48.0263 H         1 UNK         0.0600 
    187 H187        0.1226  -11.0077  -48.3679 H         1 UNK         0.0600 
    188 H188       -1.4930  -11.1550  -49.0561 H         1 UNK         0.0600 
    189 H189       -0.3089  -13.4793  -46.9555 H         1 UNK         0.3000 
    190 H190       -0.4919  -19.8569  -46.3368 H         1 UNK         0.3000 
    191 H191       -2.2099  -19.8681  -48.5972 H         1 UNK         0.0600 
    192 H192       -2.2557  -18.1450  -46.7817 H         1 UNK         0.0600 
    193 H193       -3.8467  -18.8368  -47.0682 H         1 UNK         0.0600 
    194 H194       -2.9125  -19.3324  -45.6628 H         1 UNK         0.0600 
    195 H195       -2.2261  -21.9122  -45.6400 H         1 UNK         0.3000 
    196 H196       -4.5276  -23.4347  -46.2701 H         1 UNK         0.0600 
    197 H197       -3.6316  -25.0323  -44.5861 H         1 UNK         0.0600 
    198 H198       -3.5060  -23.3761  -44.0124 H         1 UNK         0.0600 
    199 H199       -2.0754  -24.2141  -44.6077 H         1 UNK         0.0600 
    200 H200       -1.0683  -24.0208  -47.0598 H         1 UNK         0.3000 
    201 H201       -1.4160  -26.4445  -48.5005 H         1 UNK         0.0600 
    202 H202        0.7850  -25.6330  -47.6786 H         1 UNK         0.0600 
    203 H203        0.7280  -24.2733  -48.7977 H         1 UNK         0.0600 
    204 H204        0.8419  -25.9169  -49.4121 H         1 UNK         0.0600 
    205 H205       -1.8227  -23.0740  -49.4692 H         1 UNK         0.3000 
    206 H206       -2.3510  -23.6500  -52.2824 H         1 UNK         0.0600 
    207 H207       -2.6539  -21.2272  -52.4327 H         1 UNK         0.0600 
    208 H208       -2.7456  -21.0708  -50.6825 H         1 UNK         0.0600 
    209 H209       -1.2374  -21.5418  -51.4392 H         1 UNK         0.0600 
    210 H210       -4.1061  -24.7116  -49.8862 H         1 UNK         0.3000 
    211 H211       -6.1809  -25.3367  -49.5182 H         1 UNK         0.0600 
    212 H212       -6.7654  -24.5845  -52.4295 H         1 UNK         0.0600 
    213 H213       -7.7238  -25.6547  -51.4178 H         1 UNK         0.0600 
    214 H214       -6.0961  -26.1206  -51.8837 H         1 UNK         0.0600 
    215 H215       -5.5646  -22.9333  -48.5279 H         1 UNK         0.3000 
    216 H216       -6.3704  -21.2169  -47.4064 H         1 UNK         0.0600 
    217 H217       -8.7526  -20.7953  -47.0608 H         1 UNK         0.0600 
    218 H218       -8.4565  -22.5222  -46.9395 H         1 UNK         0.0600 
    219 H219       -9.1999  -21.8497  -48.3905 H         1 UNK         0.0600 
    220 H220       -5.0443  -20.8242  -49.5943 H         1 UNK         0.3000 
    221 H221       -4.3796  -19.3909  -51.1623 H         1 UNK         0.0600 
    222 H222       -6.2595  -17.3972  -49.7912 H         1 UNK         0.0600 
    223 H223       -4.6243  -17.7869  -49.2629 H         1 UNK         0.0600 
    224 H224       -4.8844  -17.0041  -50.8137 H         1 UNK         0.0600 
    225 H225       -6.0200  -21.1223  -52.3059 H         1 UNK         0.3000 
    226 H226       -8.2365  -19.8922  -53.7475 H         1 UNK         0.0600 
    227 H227       -8.3397  -22.2369  -52.9357 H         1 UNK         0.0600 
    228 H228       -8.4866  -22.1702  -54.6844 H         1 UNK         0.0600 
    229 H229       -6.9656  -22.6675  -53.9524 H         1 UNK         0.0600 
    230 H230       -6.4472  -18.2397  -54.4143 H         1 UNK         0.3000 
    231 H231       -5.4067  -17.1255  -56.0113 H         1 UNK         0.0600 
    232 H232       -6.5363  -19.1470  -58.0249 H         1 UNK         0.0600 
    233 H233       -5.8993  -17.5450  -58.3929 H         1 UNK         0.0600 
    234 H234       -7.3609  -17.7072  -57.4418 H         1 UNK         0.0600 
    235 H235       -4.4278  -19.1039  -58.4424 H         1 UNK         0.3000 
    236 H236       -1.6695  -19.0048  -57.6951 H         1 UNK         0.0600 
    237 H237       -2.4691  -18.8070  -60.0481 H         1 UNK         0.0600 
    238 H238       -1.3606  -20.1588  -59.8957 H         1 UNK         0.0600 
    239 H239       -3.0917  -20.4566  -59.9976 H         1 UNK         0.0600 
    240 H240       -0.1762  -20.7680  -57.5461 H         1 UNK         0.3000 
    241 H241       -1.0147  -22.7826  -55.7145 H         1 UNK         0.0600 
    242 H242       -1.1751  -22.9985  -59.1619 H         1 UNK         0.3800 
    243 H243       -1.1827  -24.7409  -59.2378 H         1 UNK         0.3800 
    244 H244        1.3507  -23.4294  -55.5980 H         1 UNK         0.0800 
    245 H245        1.7102  -22.5627  -57.0659 H         1 UNK         0.0800 
    246 H246        1.3953  -22.4627  -53.2725 H         1 UNK         0.0800 
    247 H247       -0.1727  -21.7648  -53.6088 H         1 UNK         0.0800 
@<TRIPOS>BOND
     1    1    2 1    
     2    1  127 1    
     3    1  128 1    
     4    1  129 1    
     5    2    3 2    
     6    2    4 am   BACKBONE|DICT|INTERRES
     7    4    5 1    
     8    4  130 1    
     9    5    6 1    
    10    5   65 1    
    11    5  131 1    
    12    6    7 1    
    13    6  132 1    
    14    6  133 1    
    15    7    8 1    
    16    8    9 1    
    17    8  134 1    
    18    8  135 1    
    19    9   10 ar   
    20    9   14 ar   
    21   10   11 ar   
    22   10  136 1    
    23   11   12 ar   
    24   11  126 1    
    25   12   13 ar   
    26   12  137 1    
    27   13   14 ar   
    28   13   15 1    
    29   14  138 1    
    30   15   16 1    
    31   15  139 1    
    32   15  140 1    
    33   16   17 1    
    34   17   18 1    
    35   17  141 1    
    36   17  142 1    
    37   18   19 1    
    38   18   67 1    
    39   18  143 1    
    40   19   20 am   BACKBONE|DICT|INTERRES
    41   19  144 1    
    42   20   21 2    
    43   20   22 1    
    44   22   23 1    
    45   22   24 1    
    46   22  145 1    
    47   23  146 1    
    48   23  147 1    
    49   23  148 1    
    50   24   25 am   BACKBONE|DICT|INTERRES
    51   24  149 1    
    52   25   26 2    
    53   25   27 1    
    54   27   28 1    
    55   27   29 1    
    56   27  150 1    
    57   28  151 1    
    58   28  152 1    
    59   28  153 1    
    60   29   30 am   BACKBONE|DICT|INTERRES
    61   29  154 1    
    62   30   31 2    
    63   30   32 1    
    64   32   33 1    
    65   32   34 1    
    66   32  155 1    
    67   33  156 1    
    68   33  157 1    
    69   33  158 1    
    70   34   35 am   BACKBONE|DICT|INTERRES
    71   34  159 1    
    72   35   36 2    
    73   35   37 1    
    74   37   38 1    
    75   37   39 1    
    76   37  160 1    
    77   38  161 1    
    78   38  162 1    
    79   38  163 1    
    80   39   40 am   BACKBONE|DICT|INTERRES
    81   39  164 1    
    82   40   41 2    
    83   40   42 1    
    84   42   43 1    
    85   42   44 1    
    86   42  165 1    
    87   43  166 1    
    88   43  167 1    
    89   43  168 1    
    90   44   45 am   BACKBONE|DICT|INTERRES
    91   44  169 1    
    92   45   46 2    
    93   45   47 1    
    94   47   48 1    
    95   47   49 1    
    96   47  170 1    
    97   48  171 1    
    98   48  172 1    
    99   48  173 1    
   100   49   50 am   BACKBONE|DICT|INTERRES
   101   49  174 1    
   102   50   51 2    
   103   50   52 1    
   104   52   53 1    
   105   52   54 1    
   106   52  175 1    
   107   53  176 1    
   108   53  177 1    
   109   53  178 1    
   110   54   55 am   BACKBONE|DICT|INTERRES
   111   54  179 1    
   112   55   56 2    
   113   55   57 1    
   114   57   58 1    
   115   57   59 1    
   116   57  180 1    
   117   58  181 1    
   118   58  182 1    
   119   58  183 1    
   120   59   60 am   BACKBONE|DICT|INTERRES
   121   59  184 1    
   122   60   61 2    
   123   60   62 1    
   124   62   63 1    
   125   62   64 1    
   126   62  185 1    
   127   63  186 1    
   128   63  187 1    
   129   63  188 1    
   130   64   65 am   BACKBONE|DICT|INTERRES
   131   64  189 1    
   132   65   66 2    
   133   67   68 2    
   134   67   69 am   BACKBONE|DICT|INTERRES
   135   69   70 1    
   136   69  190 1    
   137   70   71 1    
   138   70   72 1    
   139   70  191 1    
   140   71  192 1    
   141   71  193 1    
   142   71  194 1    
   143   72   73 2    
   144   72   74 am   BACKBONE|DICT|INTERRES
   145   74   75 1    
   146   74  195 1    
   147   75   76 1    
   148   75   77 1    
   149   75  196 1    
   150   76  197 1    
   151   76  198 1    
   152   76  199 1    
   153   77   78 2    
   154   77   79 am   BACKBONE|DICT|INTERRES
   155   79   80 1    
   156   79  200 1    
   157   80   81 1    
   158   80   82 1    
   159   80  201 1    
   160   81  202 1    
   161   81  203 1    
   162   81  204 1    
   163   82   83 2    
   164   82   84 am   BACKBONE|DICT|INTERRES
   165   84   85 1    
   166   84  205 1    
   167   85   86 1    
   168   85   87 1    
   169   85  206 1    
   170   86  207 1    
   171   86  208 1    
   172   86  209 1    
   173   87   88 2    
   174   87   89 am   BACKBONE|DICT|INTERRES
   175   89   90 1    
   176   89  210 1    
   177   90   91 1    
   178   90   92 1    
   179   90  211 1    
   180   91  212 1    
   181   91  213 1    
   182   91  214 1    
   183   92   93 2    
   184   92   94 am   BACKBONE|DICT|INTERRES
   185   94   95 1    
   186   94  215 1    
   187   95   96 1    
   188   95   97 1    
   189   95  216 1    
   190   96  217 1    
   191   96  218 1    
   192   96  219 1    
   193   97   98 2    
   194   97   99 am   BACKBONE|DICT|INTERRES
   195   99  100 1    
   196   99  220 1    
   197  100  101 1    
   198  100  102 1    
   199  100  221 1    
   200  101  222 1    
   201  101  223 1    
   202  101  224 1    
   203  102  103 2    
   204  102  104 am   BACKBONE|DICT|INTERRES
   205  104  105 1    
   206  104  225 1    
   207  105  106 1    
   208  105  107 1    
   209  105  226 1    
   210  106  227 1    
   211  106  228 1    
   212  106  229 1    
   213  107  108 2    
   214  107  109 am   BACKBONE|DICT|INTERRES
   215  109  110 1    
   216  109  230 1    
   217  110  111 1    
   218  110  112 1    
   219  110  231 1    
   220  111  232 1    
   221  111  233 1    
   222  111  234 1    
   223  112  113 2    
   224  112  114 am   BACKBONE|DICT|INTERRES
   225  114  115 1    
   226  114  235 1    
   227  115  116 1    
   228  115  117 1    
   229  115  236 1    
   230  116  237 1    
   231  116  238 1    
   232  116  239 1    
   233  117  118 2    
   234  117  119 am   BACKBONE|DICT|INTERRES
   235  119  120 1    
   236  119  240 1    
   237  120  121 1    
   238  120  124 1    
   239  120  241 1    
   240  121  122 am   BACKBONE|DICT|INTERRES
   241  121  123 2    
   242  122  242 1    
   243  122  243 1    
   244  124  125 1    
   245  124  244 1    
   246  124  245 1    
   247  125  126 1    
   248  126  246 1    
   249  126  247 1    
@<TRIPOS>SUBSTRUCTURE
     1 UNK         1 GROUP             0       ****    0 ROOT    
