@<TRIPOS>MOLECULE
3R540
247   249    1
SMALL
USER_CHARGES


@<TRIPOS>ATOM
      1 CA         -2.7528  -14.9928  -49.9854 C.3       0 UNK        -0.1800 
      2 C          -1.6528  -15.6425  -49.1503 C.2       0 UNK         0.5000 
      3 O          -0.7795  -16.2949  -49.7143 O.2       0 UNK        -0.5000 
      4 N          -1.6456  -15.5280  -47.8158 N.am      1 UNK        -0.5000 
      5 CA         -2.6248  -14.8652  -46.9429 C.3       1 UNK         0.1400 
      6 C6         -4.0359  -15.5126  -47.0008 C.3       23 UNK        -0.0398 
      7 S7         -4.8185  -15.6196  -45.3578 S.3       23 UNK        -0.2404 
      8 C8         -6.2839  -16.6320  -45.7271 C.3       23 UNK        -0.0205 
      9 C9         -5.9406  -18.1036  -45.9096 C.ar      23 UNK        -0.0193 
     10 C10        -5.7946  -18.6436  -47.1901 C.ar      23 UNK        -0.1150 
     11 C11        -5.5281  -20.0050  -47.3605 C.ar      23 UNK        -0.0193 
     12 C12        -5.3952  -20.8280  -46.2372 C.ar      23 UNK        -0.1150 
     13 C13        -5.5316  -20.2992  -44.9498 C.ar      23 UNK        -0.0193 
     14 C14        -5.8062  -18.9363  -44.7951 C.ar      23 UNK        -0.1150 
     15 C15        -5.4234  -21.1935  -43.7212 C.3       23 UNK        -0.0205 
     16 S16        -3.9047  -20.8546  -42.7742 S.3       23 UNK        -0.2404 
     17 C17        -2.8685  -22.3354  -43.0405 C.3       23 UNK        -0.0398 
     18 CA         -2.5617  -22.6920  -44.5159 C.3       11 UNK         0.1400 
     19 N          -1.9153  -21.6106  -45.2626 N.am      11 UNK        -0.5000 
     20 C          -1.8063  -21.5991  -46.5983 C.2       10 UNK         0.5000 
     21 O          -2.3047  -22.4572  -47.3247 O.2       10 UNK        -0.5000 
     22 CA         -0.9763  -20.4709  -47.2326 C.3       10 UNK         0.1400 
     23 CB         -1.8353  -19.2161  -47.4426 C.3       10 UNK        -0.1800 
     24 N           0.2271  -20.1347  -46.4692 N.am      10 UNK        -0.5000 
     25 C           1.2482  -20.9755  -46.2506 C.2       9 UNK         0.5000 
     26 O           1.2839  -22.1287  -46.6748 O.2       9 UNK        -0.5000 
     27 CA          2.4136  -20.4650  -45.3842 C.3       9 UNK         0.1400 
     28 CB          3.3342  -19.5436  -46.1975 C.3       9 UNK        -0.1800 
     29 N           1.9650  -19.7793  -44.1729 N.am      9 UNK        -0.5000 
     30 C           1.2512  -20.3546  -43.1935 C.2       8 UNK         0.5000 
     31 O           0.9345  -21.5449  -43.1804 O.2       8 UNK        -0.5000 
     32 CA          0.7429  -19.4247  -42.0751 C.3       8 UNK         0.1400 
     33 CB          1.8557  -19.1104  -41.0643 C.3       8 UNK        -0.1800 
     34 N           0.1790  -18.1772  -42.5951 N.am      8 UNK        -0.5000 
     35 C          -0.8447  -18.1197  -43.4593 C.2       7 UNK         0.5000 
     36 O          -1.4379  -19.1082  -43.8832 O.2       7 UNK        -0.5000 
     37 CA         -1.2148  -16.7377  -44.0099 C.3       7 UNK         0.1400 
     38 CB         -1.9935  -15.9054  -42.9806 C.3       7 UNK        -0.1800 
     39 N          -0.0323  -16.0046  -44.4626 N.am      7 UNK        -0.5000 
     40 C           0.7304  -16.3625  -45.5038 C.2       6 UNK         0.5000 
     41 O           0.4331  -17.2692  -46.2764 O.2       6 UNK        -0.5000 
     42 CA          2.0408  -15.5899  -45.7266 C.3       6 UNK         0.1400 
     43 CB          1.8164  -14.3884  -46.6556 C.3       6 UNK        -0.1800 
     44 N           2.6385  -15.1444  -44.4691 N.am      6 UNK        -0.5000 
     45 C           3.2175  -15.9638  -43.5800 C.2       5 UNK         0.5000 
     46 O           3.3446  -17.1762  -43.7510 O.2       5 UNK        -0.5000 
     47 CA          3.6923  -15.3233  -42.2626 C.3       5 UNK         0.1400 
     48 CB          5.0883  -14.7062  -42.4324 C.3       5 UNK        -0.1800 
     49 N           2.7645  -14.3002  -41.7754 N.am      5 UNK        -0.5000 
     50 C           1.5295  -14.5582  -41.3221 C.2       4 UNK         0.5000 
     51 O           1.0673  -15.6947  -41.2174 O.2       4 UNK        -0.5000 
     52 CA          0.6462  -13.3393  -40.9843 C.3       4 UNK         0.1400 
     53 CB          0.8875  -12.8828  -39.5379 C.3       4 UNK        -0.1800 
     54 N           0.8393  -12.2019  -41.8937 N.am      4 UNK        -0.5000 
     55 C           0.6171  -12.2428  -43.2144 C.2       3 UNK         0.5000 
     56 O           0.2341  -13.2577  -43.7990 O.2       3 UNK        -0.5000 
     57 CA          0.9365  -10.9652  -44.0170 C.3       3 UNK         0.1400 
     58 CB          2.4550  -10.7246  -44.0569 C.3       3 UNK        -0.1800 
     59 N           0.4542  -11.0633  -45.3960 N.am      3 UNK        -0.5000 
     60 C          -0.8256  -10.9564  -45.7759 C.2       2 UNK         0.5000 
     61 O          -1.7356  -10.6135  -45.0200 O.2       2 UNK        -0.5000 
     62 CA         -1.1433  -11.3281  -47.2388 C.3       2 UNK         0.1400 
     63 CB         -0.0029  -10.9888  -48.2185 C.3       2 UNK        -0.1800 
     64 N          -1.4305  -12.7590  -47.3209 N.am      2 UNK        -0.5000 
     65 C          -2.6105  -13.3221  -47.0293 C.2       1 UNK         0.5000 
     66 O          -3.6410  -12.6783  -46.8306 O.2       1 UNK        -0.5000 
     67 C          -1.7421  -23.9976  -44.5921 C.2       11 UNK         0.5000 
     68 O          -2.3265  -25.0615  -44.7988 O.2       11 UNK        -0.5000 
     69 N          -0.4124  -23.8990  -44.4394 N.am      12 UNK        -0.5000 
     70 CA          0.5129  -25.0345  -44.4735 C.3       12 UNK         0.1400 
     71 CB          1.8981  -24.5865  -43.9829 C.3       12 UNK        -0.1800 
     72 C           0.6148  -25.6945  -45.8608 C.2       12 UNK         0.5000 
     73 O           0.5792  -26.9220  -45.9542 O.2       12 UNK        -0.5000 
     74 N           0.7255  -24.8720  -46.9117 N.am      13 UNK        -0.5000 
     75 CA          0.8020  -25.3087  -48.3074 C.3       13 UNK         0.1400 
     76 CB          1.4635  -24.1991  -49.1397 C.3       13 UNK        -0.1800 
     77 C          -0.5695  -25.6696  -48.9080 C.2       13 UNK         0.5000 
     78 O          -0.6139  -26.2208  -50.0077 O.2       13 UNK        -0.5000 
     79 N          -1.6562  -25.3078  -48.2124 N.am      14 UNK        -0.5000 
     80 CA         -3.0778  -25.4261  -48.5620 C.3       14 UNK         0.1400 
     81 CB         -3.4788  -26.8885  -48.8325 C.3       14 UNK        -0.1800 
     82 C          -3.5359  -24.4947  -49.7033 C.2       14 UNK         0.5000 
     83 O          -4.6831  -24.0503  -49.6847 O.2       14 UNK        -0.5000 
     84 N          -2.6490  -24.2021  -50.6599 N.am      15 UNK        -0.5000 
     85 CA         -2.8306  -23.2036  -51.7046 C.3       15 UNK         0.1400 
     86 CB         -2.0393  -23.6375  -52.9480 C.3       15 UNK        -0.1800 
     87 C          -2.3390  -21.8312  -51.2191 C.2       15 UNK         0.5000 
     88 O          -1.2918  -21.7547  -50.5723 O.2       15 UNK        -0.5000 
     89 N          -3.0531  -20.7639  -51.6056 N.am      16 UNK        -0.5000 
     90 CA         -2.6231  -19.3728  -51.4282 C.3       16 UNK         0.1400 
     91 CB         -3.7380  -18.4294  -51.9019 C.3       16 UNK        -0.1800 
     92 C          -1.3176  -19.1143  -52.1983 C.2       16 UNK         0.5000 
     93 O          -1.1714  -19.6170  -53.3138 O.2       16 UNK        -0.5000 
     94 N          -0.3580  -18.4225  -51.5721 N.am      17 UNK        -0.5000 
     95 CA          1.0133  -18.1925  -52.0531 C.3       17 UNK         0.1400 
     96 CB          0.9917  -17.2077  -53.2404 C.3       17 UNK        -0.1800 
     97 C           1.8050  -19.4827  -52.3897 C.2       17 UNK         0.5000 
     98 O           2.8268  -19.4047  -53.0730 O.2       17 UNK        -0.5000 
     99 N           1.3013  -20.6429  -51.9361 N.am      18 UNK        -0.5000 
    100 CA         1.7135  -22.0032  -52.2857 C.3       18 UNK         0.1400 
    101 CB         3.1226  -22.3035  -51.7331 C.3       18 UNK        -0.1800 
    102 C          1.5720  -22.3347  -53.7915 C.2       18 UNK         0.5000 
    103 O          2.2725  -23.2278  -54.2720 O.2       18 UNK        -0.5000 
    104 N          0.6849  -21.6324  -54.5186 N.am      19 UNK        -0.5000 
    105 CA         0.5563  -21.7667  -55.9757 C.3       19 UNK         0.1400 
    106 CB         1.6878  -20.9828  -56.6681 C.3       19 UNK        -0.1800 
    107 C         -0.8054  -21.3360  -56.5513 C.2       19 UNK         0.5000 
    108 O         -1.1778  -21.8268  -57.6172 O.2       19 UNK        -0.5000 
    109 N         -1.5284  -20.4339  -55.8763 N.am      20 UNK        -0.5000 
    110 CA        -2.7528  -19.7923  -56.3662 C.3       20 UNK         0.1400 
    111 CB        -2.7235  -18.3037  -55.9739 C.3       20 UNK        -0.1800 
    112 C         -4.0389  -20.4967  -55.8865 C.2       20 UNK         0.5000 
    113 O         -5.0920  -19.8627  -55.8170 O.2       20 UNK        -0.5000 
    114 N         -3.9356  -21.7930  -55.5616 N.am      21 UNK        -0.5000 
    115 CA        -4.9979  -22.7682  -55.2653 C.3       21 UNK         0.1400 
    116 CB        -5.9094  -22.9568  -56.4931 C.3       21 UNK        -0.1800 
    117 C         -5.8461  -22.5274  -53.9970 C.2       21 UNK         0.5000 
    118 O         -6.4097  -23.4937  -53.4833 O.2       21 UNK        -0.5000 
    119 N         -5.9135  -21.2853  -53.4998 N.am      22 UNK        -0.5000 
    120 CA        -6.8228  -20.8369  -52.4277 C.3       22 UNK         0.1400 
    121 C         -8.3138  -20.7673  -52.8917 C.2       22 UNK         0.5000 
    122 N         -9.2584  -20.5919  -51.9783 N.am      22 UNK        -0.7600 
    123 O         -8.6289  -20.8297  -54.0784 O.2       22 UNK        -0.5000 
    124 C124       -6.6159  -21.6209  -51.0949 C.3       23 UNK        -0.0398 
    125 S125       -7.0121  -20.6635  -49.5920 S.3       23 UNK        -0.2404 
    126 C126       -5.3953  -20.5843  -48.7596 C.3       23 UNK        -0.0205 
    127 H127       -3.6954  -15.5241  -49.8592 H         1 UNK         0.0600 
    128 H128       -2.4919  -15.0316  -51.0432 H         1 UNK         0.0600 
    129 H129       -2.8970  -13.9453  -49.7269 H         1 UNK         0.0600 
    130 H130       -0.9161  -16.0313  -47.3242 H         1 UNK         0.3000 
    131 H131       -2.2285  -15.0397  -45.9465 H         1 UNK         0.0600 
    132 H132       -4.6992  -14.9855  -47.6883 H         1 UNK         0.0800 
    133 H133       -3.9552  -16.5313  -47.3804 H         1 UNK         0.0800 
    134 H134       -6.7870  -16.2404  -46.6126 H         1 UNK         0.0800 
    135 H135       -6.9950  -16.5277  -44.9063 H         1 UNK         0.0800 
    136 H136       -5.9082  -18.0100  -48.0585 H         1 UNK         0.1150 
    137 H137       -5.1935  -21.8815  -46.3688 H         1 UNK         0.1150 
    138 H138       -5.9205  -18.5240  -43.8024 H         1 UNK         0.1150 
    139 H139       -6.2810  -21.0036  -43.0744 H         1 UNK         0.0800 
    140 H140       -5.4847  -22.2482  -43.9911 H         1 UNK         0.0800 
    141 H141       -3.3652  -23.1724  -42.5464 H         1 UNK         0.0800 
    142 H142       -1.9361  -22.1750  -42.4958 H         1 UNK         0.0800 
    143 H143       -3.5114  -22.9013  -45.0093 H         1 UNK         0.0600 
    144 H144       -1.5600  -20.8221  -44.7267 H         1 UNK         0.3000 
    145 H145       -0.6482  -20.8208  -48.2125 H         1 UNK         0.0600 
    146 H146       -1.2897  -18.4618  -48.0069 H         1 UNK         0.0600 
    147 H147       -2.7377  -19.4519  -48.0041 H         1 UNK         0.0600 
    148 H148       -2.1478  -18.7742  -46.4966 H         1 UNK         0.0600 
    149 H149        0.2853  -19.1824  -46.1212 H         1 UNK         0.3000 
    150 H150        2.9982  -21.3325  -45.0713 H         1 UNK         0.0600 
    151 H151        3.7215  -20.0591  -47.0772 H         1 UNK         0.0600 
    152 H152        4.1907  -19.2187  -45.6065 H         1 UNK         0.0600 
    153 H153        2.8094  -18.6542  -46.5448 H         1 UNK         0.0600 
    154 H154        2.2197  -18.8010  -44.0812 H         1 UNK         0.3000 
    155 H155       -0.0564  -19.9499  -41.5481 H         1 UNK         0.0600 
    156 H156        2.6785  -18.5635  -41.5246 H         1 UNK         0.0600 
    157 H157        2.2670  -20.0271  -40.6401 H         1 UNK         0.0600 
    158 H158        1.4777  -18.5091  -40.2373 H         1 UNK         0.0600 
    159 H159        0.5993  -17.3114  -42.2712 H         1 UNK         0.3000 
    160 H160       -1.8664  -16.9108  -44.8670 H         1 UNK         0.0600 
    161 H161       -1.4226  -15.7464  -42.0671 H         1 UNK         0.0600 
    162 H162       -2.9213  -16.4072  -42.7029 H         1 UNK         0.0600 
    163 H163       -2.2600  -14.9278  -43.3827 H         1 UNK         0.0600 
    164 H164        0.2220  -15.1714  -43.9403 H         1 UNK         0.3000 
    165 H165        2.7450  -16.2643  -46.2176 H         1 UNK         0.0600 
    166 H166        2.7481  -13.8537  -46.8413 H         1 UNK         0.0600 
    167 H167        1.4300  -14.7120  -47.6231 H         1 UNK         0.0600 
    168 H168        1.1027  -13.6835  -46.2343 H         1 UNK         0.0600 
    169 H169        2.5210  -14.1722  -44.2284 H         1 UNK         0.3000 
    170 H170        3.7565  -16.1138  -41.5116 H         1 UNK         0.0600 
    171 H171        5.8041  -15.4519  -42.7809 H         1 UNK         0.0600 
    172 H172        5.0849  -13.8905  -43.1565 H         1 UNK         0.0600 
    173 H173        5.4634  -14.3145  -41.4868 H         1 UNK         0.0600 
    174 H174        3.0712  -13.3400  -41.8238 H         1 UNK         0.3000 
    175 H175       -0.3949  -13.6570  -41.0704 H         1 UNK         0.0600 
    176 H176        1.9054  -12.5182  -39.3942 H         1 UNK         0.0600 
    177 H177        0.2011  -12.0840  -39.2566 H         1 UNK         0.0600 
    178 H178        0.7311  -13.7049  -38.8380 H         1 UNK         0.0600 
    179 H179        1.1616  -11.3409  -41.4757 H         1 UNK         0.3000 
    180 H180        0.4521  -10.1178  -43.5276 H         1 UNK         0.0600 
    181 H181        2.9849  -11.5605  -44.5159 H         1 UNK         0.0600 
    182 H182        2.8630  -10.5872  -43.0549 H         1 UNK         0.0600 
    183 H183        2.6951   -9.8255  -44.6249 H         1 UNK         0.0600 
    184 H184        1.1326  -11.3551  -46.0824 H         1 UNK         0.3000 
    185 H185       -2.0236  -10.7569  -47.5416 H         1 UNK         0.0600 
    186 H186        0.2898   -9.9416  -48.1313 H         1 UNK         0.0600 
    187 H187        0.8855  -11.5990  -48.0527 H         1 UNK         0.0600 
    188 H188       -0.3201  -11.1485  -49.2493 H         1 UNK         0.0600 
    189 H189       -0.6441  -13.3683  -47.4860 H         1 UNK         0.3000 
    190 H190       -0.0025  -22.9898  -44.2476 H         1 UNK         0.3000 
    191 H191        0.1396  -25.7885  -43.7773 H         1 UNK         0.0600 
    192 H192        2.3112  -23.7955  -44.6096 H         1 UNK         0.0600 
    193 H193        2.6049  -25.4172  -43.9922 H         1 UNK         0.0600 
    194 H194        1.8510  -24.2117  -42.9603 H         1 UNK         0.0600 
    195 H195        0.7964  -23.8677  -46.7503 H         1 UNK         0.3000 
    196 H196        1.4320  -26.1987  -48.3644 H         1 UNK         0.0600 
    197 H197        1.6134  -24.5224  -50.1702 H         1 UNK         0.0600 
    198 H198        2.4410  -23.9312  -48.7383 H         1 UNK         0.0600 
    199 H199        0.8518  -23.2956  -49.1634 H         1 UNK         0.0600 
    200 H200       -1.4871  -24.7927  -47.3588 H         1 UNK         0.3000 
    201 H201       -3.6158  -25.1006  -47.6700 H         1 UNK         0.0600 
    202 H202       -3.1926  -27.5355  -48.0032 H         1 UNK         0.0600 
    203 H203       -3.0176  -27.2787  -49.7399 H         1 UNK         0.0600 
    204 H204       -4.5588  -26.9759  -48.9560 H         1 UNK         0.0600 
    205 H205       -1.7338  -24.6301  -50.5921 H         1 UNK         0.3000 
    206 H206       -3.8846  -23.1415  -51.9718 H         1 UNK         0.0600 
    207 H207       -2.4532  -24.5500  -53.3773 H         1 UNK         0.0600 
    208 H208       -2.0655  -22.8696  -53.7208 H         1 UNK         0.0600 
    209 H209       -0.9917  -23.8267  -52.7126 H         1 UNK         0.0600 
    210 H210       -3.8690  -20.9046  -52.1809 H         1 UNK         0.3000 
    211 H211       -2.4430  -19.1988  -50.3665 H         1 UNK         0.0600 
    212 H212       -4.0300  -18.6338  -52.9321 H         1 UNK         0.0600 
    213 H213       -3.4172  -17.3883  -51.8518 H         1 UNK         0.0600 
    214 H214       -4.6267  -18.5222  -51.2784 H         1 UNK         0.0600 
    215 H215       -0.5709  -17.9675  -50.6884 H         1 UNK         0.3000 
    216 H216        1.5468  -17.7136  -51.2309 H         1 UNK         0.0600 
    217 H217        2.0013  -16.9055  -53.5205 H         1 UNK         0.0600 
    218 H218        0.4425  -16.3006  -52.9878 H         1 UNK         0.0600 
    219 H219        0.5253  -17.6473  -54.1228 H         1 UNK         0.0600 
    220 H220        0.4539  -20.5968  -51.3831 H         1 UNK         0.3000 
    221 H221        1.0157  -22.6647  -51.7724 H         1 UNK         0.0600 
    222 H222        3.8926  -21.7354  -52.2555 H         1 UNK         0.0600 
    223 H223        3.1888  -22.0626  -50.6721 H         1 UNK         0.0600 
    224 H224        3.3687  -23.3605  -51.8391 H         1 UNK         0.0600 
    225 H225        0.1239  -20.9219  -54.0605 H         1 UNK         0.3000 
    226 H226        0.6632  -22.8221  -56.2358 H         1 UNK         0.0600 
    227 H227        2.6684  -21.3766  -56.4006 H         1 UNK         0.0600 
    228 H228        1.6039  -21.0427  -57.7540 H         1 UNK         0.0600 
    229 H229        1.6660  -19.9276  -56.3928 H         1 UNK         0.0600 
    230 H230       -1.2195  -20.1044  -54.9632 H         1 UNK         0.3000 
    231 H231       -2.7710  -19.8344  -57.4571 H         1 UNK         0.0600 
    232 H232       -1.8143  -17.8210  -56.3326 H         1 UNK         0.0600 
    233 H233       -2.7680  -18.1668  -54.8945 H         1 UNK         0.0600 
    234 H234       -3.5661  -17.7641  -56.4079 H         1 UNK         0.0600 
    235 H235       -3.0103  -22.1885  -55.6435 H         1 UNK         0.3000 
    236 H236       -4.4798  -23.7140  -55.0997 H         1 UNK         0.0600 
    237 H237       -6.4799  -22.0546  -56.7164 H         1 UNK         0.0600 
    238 H238       -5.3304  -23.2169  -57.3793 H         1 UNK         0.0600 
    239 H239       -6.6272  -23.7612  -56.3275 H         1 UNK         0.0600 
    240 H240       -5.5443  -20.5536  -54.1005 H         1 UNK         0.3000 
    241 H241       -6.5364  -19.7995  -52.2548 H         1 UNK         0.0600 
    242 H242      -10.2224  -20.5299  -52.2669 H         1 UNK         0.3800 
    243 H243       -9.0212  -20.5212  -50.9990 H         1 UNK         0.3800 
    244 H244       -5.5804  -21.9411  -51.0136 H         1 UNK         0.0800 
    245 H245       -7.2008  -22.5421  -51.0874 H         1 UNK         0.0800 
    246 H246       -4.7148  -19.9688  -49.3459 H         1 UNK         0.0800 
    247 H247       -4.9528  -21.5802  -48.7134 H         1 UNK         0.0800 
@<TRIPOS>BOND
     1    1    2 1    
     2    1  127 1    
     3    1  128 1    
     4    1  129 1    
     5    2    3 2    
     6    2    4 am   BACKBONE|DICT|INTERRES
     7    4    5 1    
     8    4  130 1    
     9    5    6 1    
    10    5   65 1    
    11    5  131 1    
    12    6    7 1    
    13    6  132 1    
    14    6  133 1    
    15    7    8 1    
    16    8    9 1    
    17    8  134 1    
    18    8  135 1    
    19    9   10 ar   
    20    9   14 ar   
    21   10   11 ar   
    22   10  136 1    
    23   11   12 ar   
    24   11  126 1    
    25   12   13 ar   
    26   12  137 1    
    27   13   14 ar   
    28   13   15 1    
    29   14  138 1    
    30   15   16 1    
    31   15  139 1    
    32   15  140 1    
    33   16   17 1    
    34   17   18 1    
    35   17  141 1    
    36   17  142 1    
    37   18   19 1    
    38   18   67 1    
    39   18  143 1    
    40   19   20 am   BACKBONE|DICT|INTERRES
    41   19  144 1    
    42   20   21 2    
    43   20   22 1    
    44   22   23 1    
    45   22   24 1    
    46   22  145 1    
    47   23  146 1    
    48   23  147 1    
    49   23  148 1    
    50   24   25 am   BACKBONE|DICT|INTERRES
    51   24  149 1    
    52   25   26 2    
    53   25   27 1    
    54   27   28 1    
    55   27   29 1    
    56   27  150 1    
    57   28  151 1    
    58   28  152 1    
    59   28  153 1    
    60   29   30 am   BACKBONE|DICT|INTERRES
    61   29  154 1    
    62   30   31 2    
    63   30   32 1    
    64   32   33 1    
    65   32   34 1    
    66   32  155 1    
    67   33  156 1    
    68   33  157 1    
    69   33  158 1    
    70   34   35 am   BACKBONE|DICT|INTERRES
    71   34  159 1    
    72   35   36 2    
    73   35   37 1    
    74   37   38 1    
    75   37   39 1    
    76   37  160 1    
    77   38  161 1    
    78   38  162 1    
    79   38  163 1    
    80   39   40 am   BACKBONE|DICT|INTERRES
    81   39  164 1    
    82   40   41 2    
    83   40   42 1    
    84   42   43 1    
    85   42   44 1    
    86   42  165 1    
    87   43  166 1    
    88   43  167 1    
    89   43  168 1    
    90   44   45 am   BACKBONE|DICT|INTERRES
    91   44  169 1    
    92   45   46 2    
    93   45   47 1    
    94   47   48 1    
    95   47   49 1    
    96   47  170 1    
    97   48  171 1    
    98   48  172 1    
    99   48  173 1    
   100   49   50 am   BACKBONE|DICT|INTERRES
   101   49  174 1    
   102   50   51 2    
   103   50   52 1    
   104   52   53 1    
   105   52   54 1    
   106   52  175 1    
   107   53  176 1    
   108   53  177 1    
   109   53  178 1    
   110   54   55 am   BACKBONE|DICT|INTERRES
   111   54  179 1    
   112   55   56 2    
   113   55   57 1    
   114   57   58 1    
   115   57   59 1    
   116   57  180 1    
   117   58  181 1    
   118   58  182 1    
   119   58  183 1    
   120   59   60 am   BACKBONE|DICT|INTERRES
   121   59  184 1    
   122   60   61 2    
   123   60   62 1    
   124   62   63 1    
   125   62   64 1    
   126   62  185 1    
   127   63  186 1    
   128   63  187 1    
   129   63  188 1    
   130   64   65 am   BACKBONE|DICT|INTERRES
   131   64  189 1    
   132   65   66 2    
   133   67   68 2    
   134   67   69 am   BACKBONE|DICT|INTERRES
   135   69   70 1    
   136   69  190 1    
   137   70   71 1    
   138   70   72 1    
   139   70  191 1    
   140   71  192 1    
   141   71  193 1    
   142   71  194 1    
   143   72   73 2    
   144   72   74 am   BACKBONE|DICT|INTERRES
   145   74   75 1    
   146   74  195 1    
   147   75   76 1    
   148   75   77 1    
   149   75  196 1    
   150   76  197 1    
   151   76  198 1    
   152   76  199 1    
   153   77   78 2    
   154   77   79 am   BACKBONE|DICT|INTERRES
   155   79   80 1    
   156   79  200 1    
   157   80   81 1    
   158   80   82 1    
   159   80  201 1    
   160   81  202 1    
   161   81  203 1    
   162   81  204 1    
   163   82   83 2    
   164   82   84 am   BACKBONE|DICT|INTERRES
   165   84   85 1    
   166   84  205 1    
   167   85   86 1    
   168   85   87 1    
   169   85  206 1    
   170   86  207 1    
   171   86  208 1    
   172   86  209 1    
   173   87   88 2    
   174   87   89 am   BACKBONE|DICT|INTERRES
   175   89   90 1    
   176   89  210 1    
   177   90   91 1    
   178   90   92 1    
   179   90  211 1    
   180   91  212 1    
   181   91  213 1    
   182   91  214 1    
   183   92   93 2    
   184   92   94 am   BACKBONE|DICT|INTERRES
   185   94   95 1    
   186   94  215 1    
   187   95   96 1    
   188   95   97 1    
   189   95  216 1    
   190   96  217 1    
   191   96  218 1    
   192   96  219 1    
   193   97   98 2    
   194   97   99 am   BACKBONE|DICT|INTERRES
   195   99  100 1    
   196   99  220 1    
   197  100  101 1    
   198  100  102 1    
   199  100  221 1    
   200  101  222 1    
   201  101  223 1    
   202  101  224 1    
   203  102  103 2    
   204  102  104 am   BACKBONE|DICT|INTERRES
   205  104  105 1    
   206  104  225 1    
   207  105  106 1    
   208  105  107 1    
   209  105  226 1    
   210  106  227 1    
   211  106  228 1    
   212  106  229 1    
   213  107  108 2    
   214  107  109 am   BACKBONE|DICT|INTERRES
   215  109  110 1    
   216  109  230 1    
   217  110  111 1    
   218  110  112 1    
   219  110  231 1    
   220  111  232 1    
   221  111  233 1    
   222  111  234 1    
   223  112  113 2    
   224  112  114 am   BACKBONE|DICT|INTERRES
   225  114  115 1    
   226  114  235 1    
   227  115  116 1    
   228  115  117 1    
   229  115  236 1    
   230  116  237 1    
   231  116  238 1    
   232  116  239 1    
   233  117  118 2    
   234  117  119 am   BACKBONE|DICT|INTERRES
   235  119  120 1    
   236  119  240 1    
   237  120  121 1    
   238  120  124 1    
   239  120  241 1    
   240  121  122 am   BACKBONE|DICT|INTERRES
   241  121  123 2    
   242  122  242 1    
   243  122  243 1    
   244  124  125 1    
   245  124  244 1    
   246  124  245 1    
   247  125  126 1    
   248  126  246 1    
   249  126  247 1    
@<TRIPOS>SUBSTRUCTURE
     1 UNK         1 GROUP             0       ****    0 ROOT    
