@<TRIPOS>MOLECULE
3R540
247   249    1
SMALL
USER_CHARGES


@<TRIPOS>ATOM
      1 CA          0.4914  -12.1630  -51.7014 C.3       0 UNK        -0.1800 
      2 C           0.7740  -13.2656  -50.6912 C.2       0 UNK         0.5000 
      3 O           1.8827  -13.8013  -50.6614 O.2       0 UNK        -0.5000 
      4 N          -0.2198  -13.6043  -49.8601 N.am      1 UNK        -0.5000 
      5 CA         -0.1443  -14.6346  -48.8207 C.3       1 UNK         0.1400 
      6 C6         -1.5565  -15.1878  -48.4849 C.3       23 UNK        -0.0398 
      7 S7         -1.6864  -16.7595  -47.5419 S.3       23 UNK        -0.2404 
      8 C8         -0.0107  -17.4963  -47.4723 C.3       23 UNK        -0.0205 
      9 C9          0.4566  -18.2225  -48.7331 C.ar      23 UNK        -0.0193 
     10 C10        -0.2394  -18.1837  -49.9477 C.ar      23 UNK        -0.1150 
     11 C11         0.2422  -18.8609  -51.0700 C.ar      23 UNK        -0.0193 
     12 C12         1.4191  -19.6081  -50.9729 C.ar      23 UNK        -0.1150 
     13 C13         2.1219  -19.6631  -49.7662 C.ar      23 UNK        -0.0193 
     14 C14         1.6422  -18.9557  -48.6617 C.ar      23 UNK        -0.1150 
     15 C15         3.4091  -20.4675  -49.6598 C.3       23 UNK        -0.0205 
     16 S16         3.0998  -22.2221  -49.2779 S.3       23 UNK        -0.2404 
     17 C17         2.6455  -22.1602  -47.5094 C.3       23 UNK        -0.0398 
     18 CA          1.4739  -23.1023  -47.1481 C.3       11 UNK         0.1400 
     19 N           1.3978  -23.3356  -45.7054 N.am      11 UNK        -0.5000 
     20 C           0.7316  -24.3461  -45.1310 C.2       10 UNK         0.5000 
     21 O           0.1401  -25.2225  -45.7609 O.2       10 UNK        -0.5000 
     22 CA          0.6852  -24.3489  -43.5917 C.3       10 UNK         0.1400 
     23 CB          1.9514  -24.9960  -43.0115 C.3       10 UNK        -0.1800 
     24 N           0.5271  -23.0032  -43.0357 N.am      10 UNK        -0.5000 
     25 C          -0.5760  -22.2567  -43.1828 C.2       9 UNK         0.5000 
     26 O          -1.5887  -22.6488  -43.7609 O.2       9 UNK        -0.5000 
     27 CA         -0.5294  -20.8203  -42.6299 C.3       9 UNK         0.1400 
     28 CB         -0.9984  -20.7915  -41.1683 C.3       9 UNK        -0.1800 
     29 N           0.7836  -20.1765  -42.7273 N.am      9 UNK        -0.5000 
     30 C           1.4505  -19.9461  -43.8677 C.2       8 UNK         0.5000 
     31 O           1.0869  -20.3668  -44.9679 O.2       8 UNK        -0.5000 
     32 CA          2.7265  -19.0965  -43.7467 C.3       8 UNK         0.1400 
     33 CB          3.2252  -18.5573  -45.0991 C.3       8 UNK        -0.1800 
     34 N           2.5038  -17.9814  -42.8277 N.am      8 UNK        -0.5000 
     35 C           3.4252  -17.4831  -41.9923 C.2       7 UNK         0.5000 
     36 O           4.5691  -17.9310  -41.9022 O.2       7 UNK        -0.5000 
     37 CA          3.0278  -16.2814  -41.1086 C.3       7 UNK         0.1400 
     38 CB          3.6793  -14.9928  -41.6294 C.3       7 UNK        -0.1800 
     39 N           1.5861  -16.0584  -41.0042 N.am      7 UNK        -0.5000 
     40 C           0.7271  -16.8546  -40.3553 C.2       6 UNK         0.5000 
     41 O           1.0624  -17.8667  -39.7395 O.2       6 UNK        -0.5000 
     42 CA         -0.7635  -16.4744  -40.4416 C.3       6 UNK         0.1400 
     43 CB         -1.1599  -15.5881  -39.2518 C.3       6 UNK        -0.1800 
     44 N          -1.1464  -15.7971  -41.6840 N.am      6 UNK        -0.5000 
     45 C          -0.9830  -16.2638  -42.9276 C.2       5 UNK         0.5000 
     46 O          -0.3924  -17.3108  -43.1868 O.2       5 UNK        -0.5000 
     47 CA         -1.5494  -15.4258  -44.0859 C.3       5 UNK         0.1400 
     48 CB         -3.0375  -15.7435  -44.3216 C.3       5 UNK        -0.1800 
     49 N          -1.3155  -13.9788  -44.0016 N.am      5 UNK        -0.5000 
     50 C          -1.7942  -13.0901  -43.1201 C.2       4 UNK         0.5000 
     51 O          -2.5100  -13.3941  -42.1635 O.2       4 UNK        -0.5000 
     52 CA         -1.3972  -11.6160  -43.3522 C.3       4 UNK         0.1400 
     53 CB         -1.7511  -10.7065  -42.1564 C.3       4 UNK        -0.1800 
     54 N           0.0087  -11.4288  -43.7328 N.am      4 UNK        -0.5000 
     55 C           1.0937  -11.7825  -43.0295 C.2       3 UNK         0.5000 
     56 O           1.0640  -12.4390  -41.9866 O.2       3 UNK        -0.5000 
     57 CA          2.4437  -11.3556  -43.6313 C.3       3 UNK         0.1400 
     58 CB          3.5387  -11.1771  -42.5654 C.3       3 UNK        -0.1800 
     59 N           2.8672  -12.3693  -44.5895 N.am      3 UNK        -0.5000 
     60 C           2.5758  -12.3580  -45.8950 C.2       2 UNK         0.5000 
     61 O           2.0486  -11.3985  -46.4635 O.2       2 UNK        -0.5000 
     62 CA          2.9274  -13.6310  -46.7001 C.3       2 UNK         0.1400 
     63 CB          3.1599  -14.8804  -45.8177 C.3       2 UNK        -0.1800 
     64 N           1.9407  -13.9524  -47.7364 N.am      2 UNK        -0.5000 
     65 C           0.6172  -14.1016  -47.5855 C.2       1 UNK         0.5000 
     66 O           0.0121  -13.8598  -46.5397 O.2       1 UNK        -0.5000 
     67 C           0.1160  -22.6158  -47.6953 C.2       11 UNK         0.5000 
     68 O          -0.3150  -23.0977  -48.7421 O.2       11 UNK        -0.5000 
     69 N          -0.5713  -21.7411  -46.9416 N.am      12 UNK        -0.5000 
     70 CA         -1.9369  -21.2941  -47.2300 C.3       12 UNK         0.1400 
     71 CB         -2.3958  -20.2597  -46.1892 C.3       12 UNK        -0.1800 
     72 C          -2.9330  -22.4661  -47.2770 C.2       12 UNK         0.5000 
     73 O          -3.7161  -22.5547  -48.2223 O.2       12 UNK        -0.5000 
     74 N          -2.8610  -23.3551  -46.2756 N.am      13 UNK        -0.5000 
     75 CA         -3.6688  -24.5695  -46.1687 C.3       13 UNK         0.1400 
     76 CB         -3.4432  -25.2227  -44.7972 C.3       13 UNK        -0.1800 
     77 C          -3.3958  -25.5703  -47.3046 C.2       13 UNK         0.5000 
     78 O          -4.3473  -26.0847  -47.8932 O.2       13 UNK        -0.5000 
     79 N          -2.1128  -25.7922  -47.6289 N.am      14 UNK        -0.5000 
     80 CA         -1.6709  -26.6325  -48.7478 C.3       14 UNK         0.1400 
     81 CB         -0.1414  -26.7687  -48.7162 C.3       14 UNK        -0.1800 
     82 C          -2.1416  -26.1062  -50.1183 C.2       14 UNK         0.5000 
     83 O          -2.4745  -26.9005  -50.9978 O.2       14 UNK        -0.5000 
     84 N          -2.2108  -24.7765  -50.2492 N.am      15 UNK        -0.5000 
     85 CA         -2.7532  -24.0519  -51.3959 C.3       15 UNK         0.1400 
     86 CB         -2.0339  -22.6978  -51.4936 C.3       15 UNK        -0.1800 
     87 C          -4.2899  -23.8865  -51.3537 C.2       15 UNK         0.5000 
     88 O          -4.8206  -23.0902  -52.1274 O.2       15 UNK        -0.5000 
     89 N          -4.9832  -24.6290  -50.4758 N.am      16 UNK        -0.5000 
     90 CA         -6.4419  -24.6926  -50.3258 C.3       16 UNK         0.1400 
     91 CB         -7.0858  -25.3382  -51.5706 C.3       16 UNK        -0.1800 
     92 C          -7.0602  -23.3267  -49.9666 C.2       16 UNK         0.5000 
     93 O          -7.9840  -22.8639  -50.6381 O.2       16 UNK        -0.5000 
     94 N          -6.5034  -22.7058  -48.9174 N.am      17 UNK        -0.5000 
     95 CA         -6.7532  -21.3368  -48.4573 C.3       17 UNK         0.1400 
     96 CB         -8.2248  -21.1230  -48.0433 C.3       17 UNK        -0.1800 
     97 C          -6.2411  -20.3173  -49.4918 C.2       17 UNK         0.5000 
     98 O          -6.9827  -19.4336  -49.9234 O.2       17 UNK        -0.5000 
     99 N          -4.9763  -20.5046  -49.8964 N.am      18 UNK        -0.5000 
    100 CA        -4.1810  -19.7348  -50.8633 C.3       18 UNK         0.1400 
    101 CB        -4.0639  -18.2607  -50.4317 C.3       18 UNK        -0.1800 
    102 C         -4.6315  -19.8473  -52.3363 C.2       18 UNK         0.5000 
    103 O         -3.7828  -19.7942  -53.2281 O.2       18 UNK        -0.5000 
    104 N         -5.9390  -19.9966  -52.5702 N.am      19 UNK        -0.5000 
    105 CA        -6.6250  -19.9163  -53.8597 C.3       19 UNK         0.1400 
    106 CB        -8.1163  -20.2084  -53.6347 C.3       19 UNK        -0.1800 
    107 C         -6.0774  -20.8032  -54.9948 C.2       19 UNK         0.5000 
    108 O         -6.1490  -20.3887  -56.1526 O.2       19 UNK        -0.5000 
    109 N         -5.5455  -21.9907  -54.6747 N.am      20 UNK        -0.5000 
    110 CA        -5.0496  -22.9417  -55.6736 C.3       20 UNK         0.1400 
    111 CB        -5.0066  -24.3557  -55.0736 C.3       20 UNK        -0.1800 
    112 C         -3.6743  -22.5674  -56.2575 C.2       20 UNK         0.5000 
    113 O         -3.3348  -23.0713  -57.3294 O.2       20 UNK        -0.5000 
    114 N         -2.9070  -21.7195  -55.5578 N.am      21 UNK        -0.5000 
    115 CA        -1.5512  -21.3270  -55.9527 C.3       21 UNK         0.1400 
    116 CB        -0.5472  -21.8602  -54.9194 C.3       21 UNK        -0.1800 
    117 C         -1.4078  -19.8082  -56.1431 C.2       21 UNK         0.5000 
    118 O         -0.6998  -19.3882  -57.0594 O.2       21 UNK        -0.5000 
    119 N         -2.0813  -19.0132  -55.3034 N.am      22 UNK        -0.5000 
    120 CA        -2.0942  -17.5414  -55.3677 C.3       22 UNK         0.1400 
    121 C         -3.3403  -16.9706  -56.1075 C.2       22 UNK         0.5000 
    122 N         -4.2854  -17.7833  -56.5646 N.am      22 UNK        -0.7600 
    123 O         -3.4457  -15.7607  -56.2893 O.2       22 UNK        -0.5000 
    124 C124       -1.9450  -16.9105  -53.9580 C.3       23 UNK        -0.0398 
    125 S125       -0.3024  -17.1847  -53.2056 S.3       23 UNK        -0.2404 
    126 C126       -0.5268  -18.7885  -52.3769 C.3       23 UNK        -0.0205 
    127 H127       -0.5253  -11.7797  -51.6106 H         1 UNK         0.0600 
    128 H128        1.1825  -11.3331  -51.5540 H         1 UNK         0.0600 
    129 H129        0.6225  -12.5417  -52.7151 H         1 UNK         0.0600 
    130 H130       -1.0937  -13.1003  -49.9123 H         1 UNK         0.3000 
    131 H131        0.4401  -15.4569  -49.2353 H         1 UNK         0.0600 
    132 H132       -2.1452  -14.4338  -47.9594 H         1 UNK         0.0800 
    133 H133       -2.0932  -15.3644  -49.4181 H         1 UNK         0.0800 
    134 H134        0.7308  -16.7569  -47.1803 H         1 UNK         0.0800 
    135 H135       -0.0040  -18.2167  -46.6554 H         1 UNK         0.0800 
    136 H136       -1.1525  -17.6179  -50.0434 H         1 UNK         0.1150 
    137 H137        1.7902  -20.1452  -51.8345 H         1 UNK         0.1150 
    138 H138        2.1920  -18.9782  -47.7339 H         1 UNK         0.1150 
    139 H139        3.9529  -20.4065  -50.6037 H         1 UNK         0.0800 
    140 H140        4.0691  -20.0388  -48.9039 H         1 UNK         0.0800 
    141 H141        2.4248  -21.1416  -47.1983 H         1 UNK         0.0800 
    142 H142        3.5352  -22.4513  -46.9495 H         1 UNK         0.0800 
    143 H143        1.6791  -24.0692  -47.6131 H         1 UNK         0.0600 
    144 H144        1.7831  -22.6137  -45.1137 H         1 UNK         0.3000 
    145 H145       -0.1752  -24.9480  -43.2857 H         1 UNK         0.0600 
    146 H146        1.8938  -25.0697  -41.9254 H         1 UNK         0.0600 
    147 H147        2.0841  -26.0073  -43.3982 H         1 UNK         0.0600 
    148 H148        2.8479  -24.4279  -43.2630 H         1 UNK         0.0600 
    149 H149        1.3156  -22.6094  -42.5439 H         1 UNK         0.3000 
    150 H150       -1.2254  -20.2212  -43.2203 H         1 UNK         0.0600 
    151 H151       -1.9874  -21.2402  -41.0656 H         1 UNK         0.0600 
    152 H152       -1.0669  -19.7694  -40.7974 H         1 UNK         0.0600 
    153 H153       -0.3178  -21.3400  -40.5160 H         1 UNK         0.0600 
    154 H154        1.1533  -19.7834  -41.8734 H         1 UNK         0.3000 
    155 H155        3.4912  -19.7615  -43.3406 H         1 UNK         0.0600 
    156 H156        4.1271  -17.9572  -44.9782 H         1 UNK         0.0600 
    157 H157        2.4701  -17.9343  -45.5785 H         1 UNK         0.0600 
    158 H158        3.4716  -19.3733  -45.7785 H         1 UNK         0.0600 
    159 H159        1.5646  -17.5923  -42.8339 H         1 UNK         0.3000 
    160 H160        3.4139  -16.4773  -40.1062 H         1 UNK         0.0600 
    161 H161        3.2900  -14.7162  -42.6090 H         1 UNK         0.0600 
    162 H162        4.7606  -15.1038  -41.7210 H         1 UNK         0.0600 
    163 H163        3.4953  -14.1641  -40.9458 H         1 UNK         0.0600 
    164 H164        1.2163  -15.2438  -41.4744 H         1 UNK         0.3000 
    165 H165       -1.3401  -17.3990  -40.3861 H         1 UNK         0.0600 
    166 H166       -0.6449  -14.6268  -39.2798 H         1 UNK         0.0600 
    167 H167       -2.2325  -15.3930  -39.2455 H         1 UNK         0.0600 
    168 H168       -0.9116  -16.0683  -38.3043 H         1 UNK         0.0600 
    169 H169       -1.6448  -14.9148  -41.5918 H         1 UNK         0.3000 
    170 H170       -1.0018  -15.7474  -44.9703 H         1 UNK         0.0600 
    171 H171       -3.1827  -16.8111  -44.4922 H         1 UNK         0.0600 
    172 H172       -3.6569  -15.4613  -43.4701 H         1 UNK         0.0600 
    173 H173       -3.4148  -15.2219  -45.2012 H         1 UNK         0.0600 
    174 H174       -0.7315  -13.6270  -44.7562 H         1 UNK         0.3000 
    175 H175       -1.9898  -11.2796  -44.2041 H         1 UNK         0.0600 
    176 H176       -1.4945   -9.6673  -42.3615 H         1 UNK         0.0600 
    177 H177       -2.8200  -10.7382  -41.9419 H         1 UNK         0.0600 
    178 H178       -1.2263  -11.0089  -41.2494 H         1 UNK         0.0600 
    179 H179        0.1581  -10.9623  -44.6179 H         1 UNK         0.3000 
    180 H180        2.3115  -10.3915  -44.1274 H         1 UNK         0.0600 
    181 H181        3.7649  -12.1085  -42.0487 H         1 UNK         0.0600 
    182 H182        3.2332  -10.4498  -41.8124 H         1 UNK         0.0600 
    183 H183        4.4637  -10.8128  -43.0124 H         1 UNK         0.0600 
    184 H184        3.2853  -13.2002  -44.1993 H         1 UNK         0.3000 
    185 H185        3.8594  -13.4118  -47.2226 H         1 UNK         0.0600 
    186 H186        3.3822  -15.7516  -46.4338 H         1 UNK         0.0600 
    187 H187        4.0098  -14.7490  -45.1473 H         1 UNK         0.0600 
    188 H188        2.2847  -15.1210  -45.2118 H         1 UNK         0.0600 
    189 H189        2.3087  -14.0745  -48.6744 H         1 UNK         0.3000 
    190 H190       -0.1248  -21.3583  -46.1135 H         1 UNK         0.3000 
    191 H191       -1.9208  -20.8128  -48.2102 H         1 UNK         0.0600 
    192 H192       -1.6388  -19.5025  -46.0050 H         1 UNK         0.0600 
    193 H193       -3.2948  -19.7452  -46.5306 H         1 UNK         0.0600 
    194 H194       -2.6314  -20.7184  -45.2295 H         1 UNK         0.0600 
    195 H195       -2.2235  -23.1691  -45.5061 H         1 UNK         0.3000 
    196 H196       -4.7182  -24.2744  -46.2333 H         1 UNK         0.0600 
    197 H197       -4.0464  -26.1249  -44.6892 H         1 UNK         0.0600 
    198 H198       -3.7222  -24.5462  -43.9891 H         1 UNK         0.0600 
    199 H199       -2.4002  -25.5042  -44.6507 H         1 UNK         0.0600 
    200 H200       -1.3828  -25.3625  -47.0691 H         1 UNK         0.3000 
    201 H201       -2.1043  -27.6249  -48.6085 H         1 UNK         0.0600 
    202 H202        0.1964  -27.2078  -47.7774 H         1 UNK         0.0600 
    203 H203        0.3503  -25.8025  -48.8306 H         1 UNK         0.0600 
    204 H204        0.2103  -27.4137  -49.5222 H         1 UNK         0.0600 
    205 H205       -1.8556  -24.2011  -49.4918 H         1 UNK         0.3000 
    206 H206       -2.5284  -24.6107  -52.3063 H         1 UNK         0.0600 
    207 H207       -0.9669  -22.8338  -51.6709 H         1 UNK         0.0600 
    208 H208       -2.4240  -22.0932  -52.3118 H         1 UNK         0.0600 
    209 H209       -2.1408  -22.1282  -50.5715 H         1 UNK         0.0600 
    210 H210       -4.4626  -25.2160  -49.8352 H         1 UNK         0.3000 
    211 H211       -6.6349  -25.3514  -49.4780 H         1 UNK         0.0600 
    212 H212       -6.9883  -24.7038  -52.4516 H         1 UNK         0.0600 
    213 H213       -8.1505  -25.5121  -51.4115 H         1 UNK         0.0600 
    214 H214       -6.6290  -26.3014  -51.7976 H         1 UNK         0.0600 
    215 H215       -5.6812  -23.1375  -48.5106 H         1 UNK         0.3000 
    216 H216       -6.1433  -21.1990  -47.5632 H         1 UNK         0.0600 
    217 H217       -8.5445  -21.8752  -47.3224 H         1 UNK         0.0600 
    218 H218       -8.9038  -21.1634  -48.8950 H         1 UNK         0.0600 
    219 H219       -8.3547  -20.1471  -47.5744 H         1 UNK         0.0600 
    220 H220       -4.4934  -21.2999  -49.4880 H         1 UNK         0.3000 
    221 H221       -3.1780  -20.1541  -50.8151 H         1 UNK         0.0600 
    222 H222       -5.0208  -17.7413  -50.4843 H         1 UNK         0.0600 
    223 H223       -3.6946  -18.1801  -49.4095 H         1 UNK         0.0600 
    224 H224       -3.3689  -17.7166  -51.0698 H         1 UNK         0.0600 
    225 H225       -6.5381  -20.0154  -51.7522 H         1 UNK         0.3000 
    226 H226       -6.5308  -18.8822  -54.1965 H         1 UNK         0.0600 
    227 H227       -8.5562  -19.4994  -52.9330 H         1 UNK         0.0600 
    228 H228       -8.6783  -20.1341  -54.5667 H         1 UNK         0.0600 
    229 H229       -8.2692  -21.2123  -53.2354 H         1 UNK         0.0600 
    230 H230       -5.4609  -22.2629  -53.6968 H         1 UNK         0.3000 
    231 H231       -5.7590  -22.9627  -56.5039 H         1 UNK         0.0600 
    232 H232       -5.9628  -24.6281  -54.6279 H         1 UNK         0.0600 
    233 H233       -4.2351  -24.4476  -54.3101 H         1 UNK         0.0600 
    234 H234       -4.7860  -25.0959  -55.8436 H         1 UNK         0.0600 
    235 H235       -3.2779  -21.3238  -54.7023 H         1 UNK         0.3000 
    236 H236       -1.2880  -21.7740  -56.9135 H         1 UNK         0.0600 
    237 H237       -0.5270  -22.9501  -54.9229 H         1 UNK         0.0600 
    238 H238        0.4647  -21.5148  -55.1349 H         1 UNK         0.0600 
    239 H239       -0.7996  -21.5406  -53.9109 H         1 UNK         0.0600 
    240 H240       -2.6613  -19.4153  -54.5707 H         1 UNK         0.3000 
    241 H241       -1.2405  -17.2022  -55.9571 H         1 UNK         0.0600 
    242 H242       -5.0787  -17.3942  -57.0489 H         1 UNK         0.3800 
    243 H243       -4.2246  -18.7808  -56.4341 H         1 UNK         0.3800 
    244 H244       -2.0728  -15.8279  -54.0110 H         1 UNK         0.0800 
    245 H245       -2.7304  -17.2648  -53.2911 H         1 UNK         0.0800 
    246 H246       -1.5789  -18.9709  -52.1749 H         1 UNK         0.0800 
    247 H247       -0.1983  -19.5731  -53.0554 H         1 UNK         0.0800 
@<TRIPOS>BOND
     1    1    2 1    
     2    1  127 1    
     3    1  128 1    
     4    1  129 1    
     5    2    3 2    
     6    2    4 am   BACKBONE|DICT|INTERRES
     7    4    5 1    
     8    4  130 1    
     9    5    6 1    
    10    5   65 1    
    11    5  131 1    
    12    6    7 1    
    13    6  132 1    
    14    6  133 1    
    15    7    8 1    
    16    8    9 1    
    17    8  134 1    
    18    8  135 1    
    19    9   10 ar   
    20    9   14 ar   
    21   10   11 ar   
    22   10  136 1    
    23   11   12 ar   
    24   11  126 1    
    25   12   13 ar   
    26   12  137 1    
    27   13   14 ar   
    28   13   15 1    
    29   14  138 1    
    30   15   16 1    
    31   15  139 1    
    32   15  140 1    
    33   16   17 1    
    34   17   18 1    
    35   17  141 1    
    36   17  142 1    
    37   18   19 1    
    38   18   67 1    
    39   18  143 1    
    40   19   20 am   BACKBONE|DICT|INTERRES
    41   19  144 1    
    42   20   21 2    
    43   20   22 1    
    44   22   23 1    
    45   22   24 1    
    46   22  145 1    
    47   23  146 1    
    48   23  147 1    
    49   23  148 1    
    50   24   25 am   BACKBONE|DICT|INTERRES
    51   24  149 1    
    52   25   26 2    
    53   25   27 1    
    54   27   28 1    
    55   27   29 1    
    56   27  150 1    
    57   28  151 1    
    58   28  152 1    
    59   28  153 1    
    60   29   30 am   BACKBONE|DICT|INTERRES
    61   29  154 1    
    62   30   31 2    
    63   30   32 1    
    64   32   33 1    
    65   32   34 1    
    66   32  155 1    
    67   33  156 1    
    68   33  157 1    
    69   33  158 1    
    70   34   35 am   BACKBONE|DICT|INTERRES
    71   34  159 1    
    72   35   36 2    
    73   35   37 1    
    74   37   38 1    
    75   37   39 1    
    76   37  160 1    
    77   38  161 1    
    78   38  162 1    
    79   38  163 1    
    80   39   40 am   BACKBONE|DICT|INTERRES
    81   39  164 1    
    82   40   41 2    
    83   40   42 1    
    84   42   43 1    
    85   42   44 1    
    86   42  165 1    
    87   43  166 1    
    88   43  167 1    
    89   43  168 1    
    90   44   45 am   BACKBONE|DICT|INTERRES
    91   44  169 1    
    92   45   46 2    
    93   45   47 1    
    94   47   48 1    
    95   47   49 1    
    96   47  170 1    
    97   48  171 1    
    98   48  172 1    
    99   48  173 1    
   100   49   50 am   BACKBONE|DICT|INTERRES
   101   49  174 1    
   102   50   51 2    
   103   50   52 1    
   104   52   53 1    
   105   52   54 1    
   106   52  175 1    
   107   53  176 1    
   108   53  177 1    
   109   53  178 1    
   110   54   55 am   BACKBONE|DICT|INTERRES
   111   54  179 1    
   112   55   56 2    
   113   55   57 1    
   114   57   58 1    
   115   57   59 1    
   116   57  180 1    
   117   58  181 1    
   118   58  182 1    
   119   58  183 1    
   120   59   60 am   BACKBONE|DICT|INTERRES
   121   59  184 1    
   122   60   61 2    
   123   60   62 1    
   124   62   63 1    
   125   62   64 1    
   126   62  185 1    
   127   63  186 1    
   128   63  187 1    
   129   63  188 1    
   130   64   65 am   BACKBONE|DICT|INTERRES
   131   64  189 1    
   132   65   66 2    
   133   67   68 2    
   134   67   69 am   BACKBONE|DICT|INTERRES
   135   69   70 1    
   136   69  190 1    
   137   70   71 1    
   138   70   72 1    
   139   70  191 1    
   140   71  192 1    
   141   71  193 1    
   142   71  194 1    
   143   72   73 2    
   144   72   74 am   BACKBONE|DICT|INTERRES
   145   74   75 1    
   146   74  195 1    
   147   75   76 1    
   148   75   77 1    
   149   75  196 1    
   150   76  197 1    
   151   76  198 1    
   152   76  199 1    
   153   77   78 2    
   154   77   79 am   BACKBONE|DICT|INTERRES
   155   79   80 1    
   156   79  200 1    
   157   80   81 1    
   158   80   82 1    
   159   80  201 1    
   160   81  202 1    
   161   81  203 1    
   162   81  204 1    
   163   82   83 2    
   164   82   84 am   BACKBONE|DICT|INTERRES
   165   84   85 1    
   166   84  205 1    
   167   85   86 1    
   168   85   87 1    
   169   85  206 1    
   170   86  207 1    
   171   86  208 1    
   172   86  209 1    
   173   87   88 2    
   174   87   89 am   BACKBONE|DICT|INTERRES
   175   89   90 1    
   176   89  210 1    
   177   90   91 1    
   178   90   92 1    
   179   90  211 1    
   180   91  212 1    
   181   91  213 1    
   182   91  214 1    
   183   92   93 2    
   184   92   94 am   BACKBONE|DICT|INTERRES
   185   94   95 1    
   186   94  215 1    
   187   95   96 1    
   188   95   97 1    
   189   95  216 1    
   190   96  217 1    
   191   96  218 1    
   192   96  219 1    
   193   97   98 2    
   194   97   99 am   BACKBONE|DICT|INTERRES
   195   99  100 1    
   196   99  220 1    
   197  100  101 1    
   198  100  102 1    
   199  100  221 1    
   200  101  222 1    
   201  101  223 1    
   202  101  224 1    
   203  102  103 2    
   204  102  104 am   BACKBONE|DICT|INTERRES
   205  104  105 1    
   206  104  225 1    
   207  105  106 1    
   208  105  107 1    
   209  105  226 1    
   210  106  227 1    
   211  106  228 1    
   212  106  229 1    
   213  107  108 2    
   214  107  109 am   BACKBONE|DICT|INTERRES
   215  109  110 1    
   216  109  230 1    
   217  110  111 1    
   218  110  112 1    
   219  110  231 1    
   220  111  232 1    
   221  111  233 1    
   222  111  234 1    
   223  112  113 2    
   224  112  114 am   BACKBONE|DICT|INTERRES
   225  114  115 1    
   226  114  235 1    
   227  115  116 1    
   228  115  117 1    
   229  115  236 1    
   230  116  237 1    
   231  116  238 1    
   232  116  239 1    
   233  117  118 2    
   234  117  119 am   BACKBONE|DICT|INTERRES
   235  119  120 1    
   236  119  240 1    
   237  120  121 1    
   238  120  124 1    
   239  120  241 1    
   240  121  122 am   BACKBONE|DICT|INTERRES
   241  121  123 2    
   242  122  242 1    
   243  122  243 1    
   244  124  125 1    
   245  124  244 1    
   246  124  245 1    
   247  125  126 1    
   248  126  246 1    
   249  126  247 1    
@<TRIPOS>SUBSTRUCTURE
     1 UNK         1 GROUP             0       ****    0 ROOT    
