@<TRIPOS>MOLECULE
3R540
247   249    1
SMALL
USER_CHARGES


@<TRIPOS>ATOM
      1 CA          3.4660  -11.9132  -48.8746 C.3       0 UNK        -0.1800 
      2 C           2.2900  -12.7937  -48.4755 C.2       0 UNK         0.5000 
      3 O           2.3746  -13.5000  -47.4713 O.2       0 UNK        -0.5000 
      4 N           1.2085  -12.7457  -49.2646 N.am      1 UNK        -0.5000 
      5 CA         -0.0386  -13.5173  -49.1599 C.3       1 UNK         0.1400 
      6 C6         -1.0343  -13.1011  -50.2730 C.3       23 UNK        -0.0398 
      7 S7         -0.3639  -13.3380  -51.9544 S.3       23 UNK        -0.2404 
      8 C8         -1.4917  -14.5894  -52.6382 C.3       23 UNK        -0.0205 
      9 C9         -1.1557  -15.9911  -52.1548 C.ar      23 UNK        -0.0193 
     10 C10        -0.2582  -16.7777  -52.8809 C.ar      23 UNK        -0.1150 
     11 C11         0.0278  -18.0860  -52.4830 C.ar      23 UNK        -0.0193 
     12 C12        -0.5760  -18.5993  -51.3315 C.ar      23 UNK        -0.1150 
     13 C13        -1.4598  -17.8149  -50.5841 C.ar      23 UNK        -0.0193 
     14 C14        -1.7550  -16.5153  -51.0057 C.ar      23 UNK        -0.1150 
     15 C15        -2.1038  -18.3808  -49.3301 C.3       23 UNK        -0.0205 
     16 S16        -0.9875  -18.2801  -47.8962 S.3       23 UNK        -0.2404 
     17 C17        -1.9210  -19.2989  -46.7078 C.3       23 UNK        -0.0398 
     18 CA         -1.3852  -20.7517  -46.6330 C.3       11 UNK         0.1400 
     19 N          -0.1685  -20.8689  -45.8221 N.am      11 UNK        -0.5000 
     20 C           0.5373  -21.9969  -45.6486 C.2       10 UNK         0.5000 
     21 O           0.2748  -23.0629  -46.2054 O.2       10 UNK        -0.5000 
     22 CA          1.6925  -21.9481  -44.6327 C.3       10 UNK         0.1400 
     23 CB          2.9306  -21.2656  -45.2325 C.3       10 UNK        -0.1800 
     24 N           1.3098  -21.2915  -43.3811 N.am      10 UNK        -0.5000 
     25 C           0.3615  -21.7480  -42.5493 C.2       9 UNK         0.5000 
     26 O          -0.2549  -22.7973  -42.7272 O.2       9 UNK        -0.5000 
     27 CA          0.0023  -20.8681  -41.3397 C.3       9 UNK         0.1400 
     28 CB          1.0167  -21.0614  -40.2031 C.3       9 UNK        -0.1800 
     29 N          -0.0975  -19.4504  -41.6849 N.am      9 UNK        -0.5000 
     30 C          -0.9908  -18.9376  -42.5438 C.2       8 UNK         0.5000 
     31 O          -1.8681  -19.6001  -43.0979 O.2       8 UNK        -0.5000 
     32 CA         -0.8386  -17.4466  -42.8926 C.3       8 UNK         0.1400 
     33 CB         -1.4275  -16.5535  -41.7914 C.3       8 UNK        -0.1800 
     34 N           0.5547  -17.0747  -43.1329 N.am      8 UNK        -0.5000 
     35 C           1.3158  -17.5684  -44.1191 C.2       7 UNK         0.5000 
     36 O           0.9062  -18.3579  -44.9673 O.2       7 UNK        -0.5000 
     37 CA          2.7920  -17.1413  -44.1313 C.3       7 UNK         0.1400 
     38 CB          2.9609  -15.7602  -44.7830 C.3       7 UNK        -0.1800 
     39 N           3.3633  -17.1322  -42.7844 N.am      7 UNK        -0.5000 
     40 C           3.6038  -18.2356  -42.0617 C.2       6 UNK         0.5000 
     41 O           3.4023  -19.3783  -42.4722 O.2       6 UNK        -0.5000 
     42 CA          4.1194  -18.0237  -40.6265 C.3       6 UNK         0.1400 
     43 CB          5.6378  -17.7929  -40.6243 C.3       6 UNK        -0.1800 
     44 N           3.4572  -16.9071  -39.9501 N.am      6 UNK        -0.5000 
     45 C           2.1623  -16.8938  -39.6035 C.2       5 UNK         0.5000 
     46 O           1.3952  -17.8372  -39.7894 O.2       5 UNK        -0.5000 
     47 CA          1.6205  -15.5852  -38.9979 C.3       5 UNK         0.1400 
     48 CB          1.8691  -15.5475  -37.4828 C.3       5 UNK        -0.1800 
     49 N           2.1790  -14.3772  -39.6147 N.am      5 UNK        -0.5000 
     50 C           2.0782  -14.0713  -40.9142 C.2       4 UNK         0.5000 
     51 O           1.5332  -14.7996  -41.7487 O.2       4 UNK        -0.5000 
     52 CA          2.7285  -12.7585  -41.3660 C.3       4 UNK         0.1400 
     53 CB          4.2573  -12.9028  -41.4503 C.3       4 UNK        -0.1800 
     54 N           2.2068  -12.4319  -42.6858 N.am      4 UNK        -0.5000 
     55 C           1.8845  -11.2167  -43.1334 C.2       3 UNK         0.5000 
     56 O           2.0659  -10.1817  -42.4905 O.2       3 UNK        -0.5000 
     57 CA          1.2579  -11.1370  -44.5398 C.3       3 UNK         0.1400 
     58 CB          2.2601  -10.5389  -45.5378 C.3       3 UNK        -0.1800 
     59 N           0.7843  -12.4245  -45.0618 N.am      3 UNK        -0.5000 
     60 C          -0.3364  -13.0468  -44.6645 C.2       2 UNK         0.5000 
     61 O          -1.0475  -12.6374  -43.7458 O.2       2 UNK        -0.5000 
     62 CA         -0.7257  -14.3302  -45.4364 C.3       2 UNK         0.1400 
     63 CB         -2.2150  -14.7025  -45.2888 C.3       2 UNK        -0.1800 
     64 N          -0.3414  -14.2988  -46.8528 N.am      2 UNK        -0.5000 
     65 C          -0.6971  -13.3849  -47.7686 C.2       1 UNK         0.5000 
     66 O          -1.4712  -12.4514  -47.5474 O.2       1 UNK        -0.5000 
     67 C          -2.4909  -21.7110  -46.1518 C.2       11 UNK         0.5000 
     68 O          -3.0823  -22.4012  -46.9818 O.2       11 UNK        -0.5000 
     69 N          -2.7293  -21.7615  -44.8338 N.am      12 UNK        -0.5000 
     70 CA         -3.7041  -22.6522  -44.2044 C.3       12 UNK         0.1400 
     71 CB         -3.8592  -22.2852  -42.7208 C.3       12 UNK        -0.1800 
     72 C          -3.3498  -24.1413  -44.3699 C.2       12 UNK         0.5000 
     73 O          -4.2219  -24.9307  -44.7330 O.2       12 UNK        -0.5000 
     74 N          -2.0780  -24.4925  -44.1331 N.am      13 UNK        -0.5000 
     75 CA         -1.5487  -25.8526  -44.2568 C.3       13 UNK         0.1400 
     76 CB         -0.1203  -25.9017  -43.6936 C.3       13 UNK        -0.1800 
     77 C          -1.5784  -26.3842  -45.7006 C.2       13 UNK         0.5000 
     78 O          -1.9265  -27.5463  -45.9133 O.2       13 UNK        -0.5000 
     79 N          -1.2355  -25.5215  -46.6660 N.am      14 UNK        -0.5000 
     80 CA         -1.2652  -25.8286  -48.0966 C.3       14 UNK         0.1400 
     81 CB         -0.3391  -24.8462  -48.8325 C.3       14 UNK        -0.1800 
     82 C          -2.6778  -25.7665  -48.7074 C.2       14 UNK         0.5000 
     83 O          -2.8429  -26.1755  -49.8568 O.2       14 UNK        -0.5000 
     84 N          -3.6471  -25.1947  -47.9748 N.am      15 UNK        -0.5000 
     85 CA         -5.0009  -24.8333  -48.4178 C.3       15 UNK         0.1400 
     86 CB         -5.8516  -26.0971  -48.6583 C.3       15 UNK        -0.1800 
     87 C          -4.9695  -23.8855  -49.6375 C.2       15 UNK         0.5000 
     88 O          -5.7323  -24.0627  -50.5886 O.2       15 UNK        -0.5000 
     89 N          -4.0118  -22.9456  -49.6125 N.am      16 UNK        -0.5000 
     90 CA         -3.6112  -22.0337  -50.6903 C.3       16 UNK         0.1400 
     91 CB         -4.6725  -20.9327  -50.8848 C.3       16 UNK        -0.1800 
     92 C          -3.2454  -22.7492  -52.0107 C.2       16 UNK         0.5000 
     93 O          -3.4369  -22.1839  -53.0842 O.2       16 UNK        -0.5000 
     94 N          -2.7540  -23.9944  -51.9133 N.am      17 UNK        -0.5000 
     95 CA         -2.4691  -24.9219  -53.0151 C.3       17 UNK         0.1400 
     96 CB         -1.3568  -24.3729  -53.9334 C.3       17 UNK        -0.1800 
     97 C          -3.7323  -25.3486  -53.7983 C.2       17 UNK         0.5000 
     98 O          -3.6182  -25.7750  -54.9485 O.2       17 UNK        -0.5000 
     99 N          -4.9081  -25.2351  -53.1588 N.am      18 UNK        -0.5000 
    100 CA        -6.2447  -25.5362  -53.6788 C.3       18 UNK         0.1400 
    101 CB        -6.4043  -27.0496  -53.9349 C.3       18 UNK        -0.1800 
    102 C         -6.6420  -24.6676  -54.8925 C.2       18 UNK         0.5000 
    103 O         -7.3588  -25.1394  -55.7778 O.2       18 UNK        -0.5000 
    104 N         -6.1827  -23.4106  -54.9122 N.am      19 UNK        -0.5000 
    105 CA        -6.4694  -22.4289  -55.9521 C.3       19 UNK         0.1400 
    106 CB        -5.3863  -22.5090  -57.0411 C.3       19 UNK        -0.1800 
    107 C         -6.5268  -21.0281  -55.3304 C.2       19 UNK         0.5000 
    108 O         -5.9094  -20.7883  -54.2904 O.2       19 UNK        -0.5000 
    109 N         -7.2535  -20.1158  -55.9874 N.am      20 UNK        -0.5000 
    110 CA        -7.3437  -18.7059  -55.6093 C.3       20 UNK         0.1400 
    111 CB        -8.4303  -18.0202  -56.4524 C.3       20 UNK        -0.1800 
    112 C         -5.9812  -18.0155  -55.7909 C.2       20 UNK         0.5000 
    113 O         -5.4585  -17.9993  -56.9087 O.2       20 UNK        -0.5000 
    114 N         -5.4143  -17.5131  -54.6831 N.am      21 UNK        -0.5000 
    115 CA        -4.0935  -16.8735  -54.5876 C.3       21 UNK         0.1400 
    116 CB        -4.1385  -15.4818  -55.2545 C.3       21 UNK        -0.1800 
    117 C         -2.9480  -17.7636  -55.1257 C.2       21 UNK         0.5000 
    118 O         -2.0214  -17.2532  -55.7555 O.2       21 UNK        -0.5000 
    119 N         -3.0866  -19.0808  -54.9113 N.am      22 UNK        -0.5000 
    120 CA        -2.2728  -20.1776  -55.4614 C.3       22 UNK         0.1400 
    121 C         -2.1592  -20.2488  -57.0166 C.2       22 UNK         0.5000 
    122 N         -3.0336  -19.5976  -57.7767 N.am      22 UNK        -0.7600 
    123 O         -1.3017  -20.9473  -57.5505 O.2       22 UNK        -0.5000 
    124 C124       -0.9506  -20.4430  -54.6819 C.3       23 UNK        -0.0398 
    125 S125        0.4217  -19.2732  -54.9777 S.3       23 UNK        -0.2404 
    126 C126        1.0074  -18.9309  -53.2856 C.3       23 UNK        -0.0205 
    127 H127        3.7045  -11.2117  -48.0761 H         1 UNK         0.0600 
    128 H128        3.2563  -11.3399  -49.7779 H         1 UNK         0.0600 
    129 H129        4.3460  -12.5288  -49.0603 H         1 UNK         0.0600 
    130 H130        1.2375  -12.1307  -50.0653 H         1 UNK         0.3000 
    131 H131        0.2139  -14.5689  -49.3125 H         1 UNK         0.0600 
    132 H132       -1.9724  -13.6478  -50.1726 H         1 UNK         0.0800 
    133 H133       -1.2971  -12.0462  -50.1740 H         1 UNK         0.0800 
    134 H134       -2.5272  -14.3364  -52.4054 H         1 UNK         0.0800 
    135 H135       -1.4093  -14.5545  -53.7249 H         1 UNK         0.0800 
    136 H136        0.2051  -16.3794  -53.7729 H         1 UNK         0.1150 
    137 H137       -0.3518  -19.6060  -51.0080 H         1 UNK         0.1150 
    138 H138       -2.4529  -15.9159  -50.4393 H         1 UNK         0.1150 
    139 H139       -2.3774  -19.4208  -49.5027 H         1 UNK         0.0800 
    140 H140       -3.0312  -17.8516  -49.1051 H         1 UNK         0.0800 
    141 H141       -2.9743  -19.2740  -46.9951 H         1 UNK         0.0800 
    142 H142       -1.8744  -18.8213  -45.7287 H         1 UNK         0.0800 
    143 H143       -1.1242  -21.0736  -47.6436 H         1 UNK         0.0600 
    144 H144        0.1525  -20.0165  -45.3680 H         1 UNK         0.3000 
    145 H145        1.9630  -22.9785  -44.3930 H         1 UNK         0.0600 
    146 H146        3.7710  -21.2951  -44.5389 H         1 UNK         0.0600 
    147 H147        3.2463  -21.7677  -46.1477 H         1 UNK         0.0600 
    148 H148        2.7392  -20.2223  -45.4812 H         1 UNK         0.0600 
    149 H149        1.8090  -20.4415  -43.1407 H         1 UNK         0.3000 
    150 H150       -0.9759  -21.1893  -40.9764 H         1 UNK         0.0600 
    151 H151        1.0998  -22.1136  -39.9282 H         1 UNK         0.0600 
    152 H152        0.7148  -20.5152  -39.3094 H         1 UNK         0.0600 
    153 H153        2.0111  -20.7157  -40.4862 H         1 UNK         0.0600 
    154 H154        0.5602  -18.8260  -41.2269 H         1 UNK         0.3000 
    155 H155       -1.3950  -17.2618  -43.8133 H         1 UNK         0.0600 
    156 H156       -2.4854  -16.7698  -41.6390 H         1 UNK         0.0600 
    157 H157       -1.3433  -15.4980  -42.0516 H         1 UNK         0.0600 
    158 H158       -0.9208  -16.7024  -40.8380 H         1 UNK         0.0600 
    159 H159        0.9618  -16.3923  -42.4976 H         1 UNK         0.3000 
    160 H160        3.3453  -17.8668  -44.7313 H         1 UNK         0.0600 
    161 H161        2.4255  -14.9828  -44.2404 H         1 UNK         0.0600 
    162 H162        2.5800  -15.7655  -45.8050 H         1 UNK         0.0600 
    163 H163        4.0109  -15.4715  -44.8315 H         1 UNK         0.0600 
    164 H164        3.4997  -16.2308  -42.3529 H         1 UNK         0.3000 
    165 H165        3.9121  -18.9346  -40.0609 H         1 UNK         0.0600 
    166 H166        6.0238  -17.7205  -39.6073 H         1 UNK         0.0600 
    167 H167        6.1583  -18.6194  -41.1101 H         1 UNK         0.0600 
    168 H168        5.9090  -16.8780  -41.1526 H         1 UNK         0.0600 
    169 H169        4.0152  -16.0876  -39.7618 H         1 UNK         0.3000 
    170 H170        0.5417  -15.5700  -39.1649 H         1 UNK         0.0600 
    171 H171        1.4469  -16.4278  -36.9960 H         1 UNK         0.0600 
    172 H172        2.9341  -15.5220  -37.2489 H         1 UNK         0.0600 
    173 H173        1.4039  -14.6727  -37.0282 H         1 UNK         0.0600 
    174 H174        2.6505  -13.7341  -38.9949 H         1 UNK         0.3000 
    175 H175        2.4653  -11.9787  -40.6484 H         1 UNK         0.0600 
    176 H176        4.5498  -13.6922  -42.1441 H         1 UNK         0.0600 
    177 H177        4.7200  -11.9752  -41.7879 H         1 UNK         0.0600 
    178 H178        4.6866  -13.1421  -40.4769 H         1 UNK         0.0600 
    179 H179        1.9386  -13.2344  -43.2383 H         1 UNK         0.3000 
    180 H180        0.4032  -10.4605  -44.4736 H         1 UNK         0.0600 
    181 H181        3.1315  -11.1830  -45.6620 H         1 UNK         0.0600 
    182 H182        2.6169   -9.5645  -45.2017 H         1 UNK         0.0600 
    183 H183        1.8014  -10.3941  -46.5159 H         1 UNK         0.0600 
    184 H184        1.3137  -12.8253  -45.8299 H         1 UNK         0.3000 
    185 H185       -0.1437  -15.1322  -44.9860 H         1 UNK         0.0600 
    186 H186       -2.4838  -14.8442  -44.2417 H         1 UNK         0.0600 
    187 H187       -2.8672  -13.9270  -45.6912 H         1 UNK         0.0600 
    188 H188       -2.4396  -15.6341  -45.8086 H         1 UNK         0.0600 
    189 H189        0.3489  -14.9848  -47.1267 H         1 UNK         0.3000 
    190 H190       -2.2278  -21.1285  -44.2163 H         1 UNK         0.3000 
    191 H191       -4.6664  -22.4863  -44.6932 H         1 UNK         0.0600 
    192 H192       -2.9213  -22.3967  -42.1767 H         1 UNK         0.0600 
    193 H193       -4.1917  -21.2537  -42.6035 H         1 UNK         0.0600 
    194 H194       -4.5989  -22.9231  -42.2356 H         1 UNK         0.0600 
    195 H195       -1.4274  -23.7847  -43.7990 H         1 UNK         0.3000 
    196 H196       -2.1749  -26.5095  -43.6497 H         1 UNK         0.0600 
    197 H197        0.2971  -26.9065  -43.7691 H         1 UNK         0.0600 
    198 H198       -0.1027  -25.6208  -42.6405 H         1 UNK         0.0600 
    199 H199        0.5465  -25.2259  -44.2307 H         1 UNK         0.0600 
    200 H200       -0.9043  -24.5952  -46.4075 H         1 UNK         0.3000 
    201 H201       -0.8827  -26.8397  -48.2506 H         1 UNK         0.0600 
    202 H202       -0.2869  -25.0746  -49.8979 H         1 UNK         0.0600 
    203 H203        0.6773  -24.8947  -48.4413 H         1 UNK         0.0600 
    204 H204       -0.6864  -23.8167  -48.7333 H         1 UNK         0.0600 
    205 H205       -3.3957  -24.8631  -47.0528 H         1 UNK         0.3000 
    206 H206       -5.4553  -24.2721  -47.6000 H         1 UNK         0.0600 
    207 H207       -5.8545  -26.7415  -47.7791 H         1 UNK         0.0600 
    208 H208       -6.8883  -25.8346  -48.8718 H         1 UNK         0.0600 
    209 H209       -5.4825  -26.6816  -49.5017 H         1 UNK         0.0600 
    210 H210       -3.4889  -22.8566  -48.7435 H         1 UNK         0.3000 
    211 H211       -2.6911  -21.5570  -50.3530 H         1 UNK         0.0600 
    212 H212       -4.8965  -20.4290  -49.9446 H         1 UNK         0.0600 
    213 H213       -4.3259  -20.1718  -51.5855 H         1 UNK         0.0600 
    214 H214       -5.6043  -21.3390  -51.2800 H         1 UNK         0.0600 
    215 H215       -2.6912  -24.4120  -50.9925 H         1 UNK         0.3000 
    216 H216       -2.0870  -25.8300  -52.5469 H         1 UNK         0.0600 
    217 H217       -0.9950  -25.1469  -54.6109 H         1 UNK         0.0600 
    218 H218       -1.7131  -23.5471  -54.5490 H         1 UNK         0.0600 
    219 H219       -0.5017  -24.0213  -53.3563 H         1 UNK         0.0600 
    220 H220       -4.9051  -24.8481  -52.2200 H         1 UNK         0.3000 
    221 H221       -6.9403  -25.2673  -52.8827 H         1 UNK         0.0600 
    222 H222       -5.7851  -27.3881  -54.7660 H         1 UNK         0.0600 
    223 H223       -6.1298  -27.6290  -53.0534 H         1 UNK         0.0600 
    224 H224       -7.4383  -27.2989  -54.1755 H         1 UNK         0.0600 
    225 H225       -5.6196  -23.0621  -54.1444 H         1 UNK         0.3000 
    226 H226       -7.4451  -22.6352  -56.3972 H         1 UNK         0.0600 
    227 H227       -5.4081  -23.4749  -57.5458 H         1 UNK         0.0600 
    228 H228       -5.5294  -21.7404  -57.8016 H         1 UNK         0.0600 
    229 H229       -4.3888  -22.3774  -56.6221 H         1 UNK         0.0600 
    230 H230       -7.7042  -20.3758  -56.8525 H         1 UNK         0.3000 
    231 H231       -7.6408  -18.6498  -54.5598 H         1 UNK         0.0600 
    232 H232       -8.5233  -16.9670  -56.1845 H         1 UNK         0.0600 
    233 H233       -9.4042  -18.4831  -56.2930 H         1 UNK         0.0600 
    234 H234       -8.2057  -18.0688  -57.5188 H         1 UNK         0.0600 
    235 H235       -5.9089  -17.6165  -53.8079 H         1 UNK         0.3000 
    236 H236       -3.8900  -16.7284  -53.5256 H         1 UNK         0.0600 
    237 H237       -4.9186  -14.8602  -54.8152 H         1 UNK         0.0600 
    238 H238       -3.1960  -14.9502  -55.1326 H         1 UNK         0.0600 
    239 H239       -4.3309  -15.5538  -56.3253 H         1 UNK         0.0600 
    240 H240       -3.9101  -19.3890  -54.4102 H         1 UNK         0.3000 
    241 H241       -2.8918  -21.0493  -55.2585 H         1 UNK         0.0600 
    242 H242       -2.9578  -19.6634  -58.7789 H         1 UNK         0.3800 
    243 H243       -3.7614  -19.0209  -57.3683 H         1 UNK         0.3800 
    244 H244       -1.1717  -20.4799  -53.6149 H         1 UNK         0.0800 
    245 H245       -0.5788  -21.4380  -54.9287 H         1 UNK         0.0800 
    246 H246        1.2177  -19.8749  -52.7804 H         1 UNK         0.0800 
    247 H247        1.9580  -18.3995  -53.3465 H         1 UNK         0.0800 
@<TRIPOS>BOND
     1    1    2 1    
     2    1  127 1    
     3    1  128 1    
     4    1  129 1    
     5    2    3 2    
     6    2    4 am   BACKBONE|DICT|INTERRES
     7    4    5 1    
     8    4  130 1    
     9    5    6 1    
    10    5   65 1    
    11    5  131 1    
    12    6    7 1    
    13    6  132 1    
    14    6  133 1    
    15    7    8 1    
    16    8    9 1    
    17    8  134 1    
    18    8  135 1    
    19    9   10 ar   
    20    9   14 ar   
    21   10   11 ar   
    22   10  136 1    
    23   11   12 ar   
    24   11  126 1    
    25   12   13 ar   
    26   12  137 1    
    27   13   14 ar   
    28   13   15 1    
    29   14  138 1    
    30   15   16 1    
    31   15  139 1    
    32   15  140 1    
    33   16   17 1    
    34   17   18 1    
    35   17  141 1    
    36   17  142 1    
    37   18   19 1    
    38   18   67 1    
    39   18  143 1    
    40   19   20 am   BACKBONE|DICT|INTERRES
    41   19  144 1    
    42   20   21 2    
    43   20   22 1    
    44   22   23 1    
    45   22   24 1    
    46   22  145 1    
    47   23  146 1    
    48   23  147 1    
    49   23  148 1    
    50   24   25 am   BACKBONE|DICT|INTERRES
    51   24  149 1    
    52   25   26 2    
    53   25   27 1    
    54   27   28 1    
    55   27   29 1    
    56   27  150 1    
    57   28  151 1    
    58   28  152 1    
    59   28  153 1    
    60   29   30 am   BACKBONE|DICT|INTERRES
    61   29  154 1    
    62   30   31 2    
    63   30   32 1    
    64   32   33 1    
    65   32   34 1    
    66   32  155 1    
    67   33  156 1    
    68   33  157 1    
    69   33  158 1    
    70   34   35 am   BACKBONE|DICT|INTERRES
    71   34  159 1    
    72   35   36 2    
    73   35   37 1    
    74   37   38 1    
    75   37   39 1    
    76   37  160 1    
    77   38  161 1    
    78   38  162 1    
    79   38  163 1    
    80   39   40 am   BACKBONE|DICT|INTERRES
    81   39  164 1    
    82   40   41 2    
    83   40   42 1    
    84   42   43 1    
    85   42   44 1    
    86   42  165 1    
    87   43  166 1    
    88   43  167 1    
    89   43  168 1    
    90   44   45 am   BACKBONE|DICT|INTERRES
    91   44  169 1    
    92   45   46 2    
    93   45   47 1    
    94   47   48 1    
    95   47   49 1    
    96   47  170 1    
    97   48  171 1    
    98   48  172 1    
    99   48  173 1    
   100   49   50 am   BACKBONE|DICT|INTERRES
   101   49  174 1    
   102   50   51 2    
   103   50   52 1    
   104   52   53 1    
   105   52   54 1    
   106   52  175 1    
   107   53  176 1    
   108   53  177 1    
   109   53  178 1    
   110   54   55 am   BACKBONE|DICT|INTERRES
   111   54  179 1    
   112   55   56 2    
   113   55   57 1    
   114   57   58 1    
   115   57   59 1    
   116   57  180 1    
   117   58  181 1    
   118   58  182 1    
   119   58  183 1    
   120   59   60 am   BACKBONE|DICT|INTERRES
   121   59  184 1    
   122   60   61 2    
   123   60   62 1    
   124   62   63 1    
   125   62   64 1    
   126   62  185 1    
   127   63  186 1    
   128   63  187 1    
   129   63  188 1    
   130   64   65 am   BACKBONE|DICT|INTERRES
   131   64  189 1    
   132   65   66 2    
   133   67   68 2    
   134   67   69 am   BACKBONE|DICT|INTERRES
   135   69   70 1    
   136   69  190 1    
   137   70   71 1    
   138   70   72 1    
   139   70  191 1    
   140   71  192 1    
   141   71  193 1    
   142   71  194 1    
   143   72   73 2    
   144   72   74 am   BACKBONE|DICT|INTERRES
   145   74   75 1    
   146   74  195 1    
   147   75   76 1    
   148   75   77 1    
   149   75  196 1    
   150   76  197 1    
   151   76  198 1    
   152   76  199 1    
   153   77   78 2    
   154   77   79 am   BACKBONE|DICT|INTERRES
   155   79   80 1    
   156   79  200 1    
   157   80   81 1    
   158   80   82 1    
   159   80  201 1    
   160   81  202 1    
   161   81  203 1    
   162   81  204 1    
   163   82   83 2    
   164   82   84 am   BACKBONE|DICT|INTERRES
   165   84   85 1    
   166   84  205 1    
   167   85   86 1    
   168   85   87 1    
   169   85  206 1    
   170   86  207 1    
   171   86  208 1    
   172   86  209 1    
   173   87   88 2    
   174   87   89 am   BACKBONE|DICT|INTERRES
   175   89   90 1    
   176   89  210 1    
   177   90   91 1    
   178   90   92 1    
   179   90  211 1    
   180   91  212 1    
   181   91  213 1    
   182   91  214 1    
   183   92   93 2    
   184   92   94 am   BACKBONE|DICT|INTERRES
   185   94   95 1    
   186   94  215 1    
   187   95   96 1    
   188   95   97 1    
   189   95  216 1    
   190   96  217 1    
   191   96  218 1    
   192   96  219 1    
   193   97   98 2    
   194   97   99 am   BACKBONE|DICT|INTERRES
   195   99  100 1    
   196   99  220 1    
   197  100  101 1    
   198  100  102 1    
   199  100  221 1    
   200  101  222 1    
   201  101  223 1    
   202  101  224 1    
   203  102  103 2    
   204  102  104 am   BACKBONE|DICT|INTERRES
   205  104  105 1    
   206  104  225 1    
   207  105  106 1    
   208  105  107 1    
   209  105  226 1    
   210  106  227 1    
   211  106  228 1    
   212  106  229 1    
   213  107  108 2    
   214  107  109 am   BACKBONE|DICT|INTERRES
   215  109  110 1    
   216  109  230 1    
   217  110  111 1    
   218  110  112 1    
   219  110  231 1    
   220  111  232 1    
   221  111  233 1    
   222  111  234 1    
   223  112  113 2    
   224  112  114 am   BACKBONE|DICT|INTERRES
   225  114  115 1    
   226  114  235 1    
   227  115  116 1    
   228  115  117 1    
   229  115  236 1    
   230  116  237 1    
   231  116  238 1    
   232  116  239 1    
   233  117  118 2    
   234  117  119 am   BACKBONE|DICT|INTERRES
   235  119  120 1    
   236  119  240 1    
   237  120  121 1    
   238  120  124 1    
   239  120  241 1    
   240  121  122 am   BACKBONE|DICT|INTERRES
   241  121  123 2    
   242  122  242 1    
   243  122  243 1    
   244  124  125 1    
   245  124  244 1    
   246  124  245 1    
   247  125  126 1    
   248  126  246 1    
   249  126  247 1    
@<TRIPOS>SUBSTRUCTURE
     1 UNK         1 GROUP             0       ****    0 ROOT    
