@<TRIPOS>MOLECULE
3R540
247   249    1
SMALL
USER_CHARGES


@<TRIPOS>ATOM
      1 CA          5.4911  -17.2803  -46.1547 C.3       0 UNK        -0.1800 
      2 C           4.5227  -16.2072  -46.6280 C.2       0 UNK         0.5000 
      3 O           3.6887  -15.7459  -45.8512 O.2       0 UNK        -0.5000 
      4 N           4.6267  -15.7921  -47.8965 N.am      1 UNK        -0.5000 
      5 CA          3.7294  -14.8371  -48.5612 C.3       1 UNK         0.1400 
      6 C6          3.7011  -15.0699  -50.0952 C.3       23 UNK        -0.0398 
      7 S7          2.1223  -14.5885  -50.8831 S.3       23 UNK        -0.2404 
      8 C8          0.9362  -15.8094  -50.2265 C.3       23 UNK        -0.0205 
      9 C9          1.3958  -17.2446  -50.4355 C.ar      23 UNK        -0.0193 
     10 C10         1.3011  -17.8295  -51.6980 C.ar      23 UNK        -0.1150 
     11 C11         1.7256  -19.1440  -51.9073 C.ar      23 UNK        -0.0193 
     12 C12         2.2646  -19.8690  -50.8392 C.ar      23 UNK        -0.1150 
     13 C13         2.3710  -19.2955  -49.5630 C.ar      23 UNK        -0.0193 
     14 C14         1.9298  -17.9821  -49.3752 C.ar      23 UNK        -0.1150 
     15 C15         2.9989  -20.0276  -48.3736 C.3       23 UNK        -0.0205 
     16 S16         3.0023  -21.8496  -48.4808 S.3       23 UNK        -0.2404 
     17 C17         1.2319  -22.2300  -48.2606 C.3       23 UNK        -0.0398 
     18 CA          0.9806  -23.2078  -47.0839 C.3       11 UNK         0.1400 
     19 N           1.4188  -22.6483  -45.8048 N.am      11 UNK        -0.5000 
     20 C           2.0817  -23.3052  -44.8444 C.2       10 UNK         0.5000 
     21 O           2.4034  -24.4906  -44.9312 O.2       10 UNK        -0.5000 
     22 CA          2.4213  -22.5208  -43.5579 C.3       10 UNK         0.1400 
     23 CB          3.8328  -21.9226  -43.6571 C.3       10 UNK        -0.1800 
     24 N           1.4731  -21.4442  -43.2662 N.am      10 UNK        -0.5000 
     25 C           0.1746  -21.6195  -42.9841 C.2       9 UNK         0.5000 
     26 O          -0.3344  -22.7240  -42.7937 O.2       9 UNK        -0.5000 
     27 CA         -0.7192  -20.3620  -42.9383 C.3       9 UNK         0.1400 
     28 CB         -1.0226  -19.9753  -41.4838 C.3       9 UNK        -0.1800 
     29 N          -0.2006  -19.1821  -43.6432 N.am      9 UNK        -0.5000 
     30 C           0.2060  -19.1155  -44.9209 C.2       8 UNK         0.5000 
     31 O           0.2118  -20.0838  -45.6788 O.2       8 UNK        -0.5000 
     32 CA          0.7005  -17.7590  -45.4618 C.3       8 UNK         0.1400 
     33 CB         -0.2101  -17.2754  -46.5974 C.3       8 UNK        -0.1800 
     34 N           0.7965  -16.6939  -44.4664 N.am      8 UNK        -0.5000 
     35 C           1.6481  -16.6541  -43.4334 C.2       7 UNK         0.5000 
     36 O           2.4518  -17.5488  -43.1675 O.2       7 UNK        -0.5000 
     37 CA          1.5369  -15.4248  -42.5153 C.3       7 UNK         0.1400 
     38 CB          2.4593  -14.2990  -43.0005 C.3       7 UNK        -0.1800 
     39 N           0.1639  -14.9197  -42.4180 N.am      7 UNK        -0.5000 
     40 C          -0.8223  -15.5458  -41.7610 C.2       6 UNK         0.5000 
     41 O          -0.6751  -16.6259  -41.1894 O.2       6 UNK        -0.5000 
     42 CA         -2.1920  -14.8441  -41.7240 C.3       6 UNK         0.1400 
     43 CB         -2.0724  -13.3248  -41.5026 C.3       6 UNK        -0.1800 
     44 N          -2.9623  -15.0843  -42.9398 N.am      6 UNK        -0.5000 
     45 C          -3.5864  -16.2193  -43.2746 C.2       5 UNK         0.5000 
     46 O          -3.5635  -17.2407  -42.5890 O.2       5 UNK        -0.5000 
     47 CA         -4.3909  -16.2165  -44.5928 C.3       5 UNK         0.1400 
     48 CB         -5.7719  -15.5601  -44.4037 C.3       5 UNK        -0.1800 
     49 N          -3.6772  -15.6529  -45.7472 N.am      5 UNK        -0.5000 
     50 C          -3.2721  -14.3919  -45.9415 C.2       4 UNK         0.5000 
     51 O          -3.5105  -13.4637  -45.1635 O.2       4 UNK        -0.5000 
     52 CA         -2.4464  -14.1235  -47.2131 C.3       4 UNK         0.1400 
     53 CB         -3.3668  -13.7724  -48.3913 C.3       4 UNK        -0.1800 
     54 N          -1.4940  -13.0304  -47.0039 N.am      4 UNK        -0.5000 
     55 C          -0.4581  -13.0779  -46.1571 C.2       3 UNK         0.5000 
     56 O          -0.1155  -14.0896  -45.5383 O.2       3 UNK        -0.5000 
     57 CA          0.3111  -11.7709  -45.9358 C.3       3 UNK         0.1400 
     58 CB         -0.0609  -11.1485  -44.5773 C.3       3 UNK        -0.1800 
     59 N           1.7336  -12.0766  -45.9869 N.am      3 UNK        -0.5000 
     60 C           2.7313  -11.1964  -46.1375 C.2       2 UNK         0.5000 
     61 O           2.5677   -9.9780  -46.2097 O.2       2 UNK        -0.5000 
     62 CA          4.1528  -11.7809  -46.2550 C.3       2 UNK         0.1400 
     63 CB          4.8353  -11.8457  -44.8807 C.3       2 UNK        -0.1800 
     64 N           4.1333  -13.1177  -46.8499 N.am      2 UNK        -0.5000 
     65 C           3.9875  -13.3639  -48.1574 C.2       1 UNK         0.5000 
     66 O           4.0348  -12.4792  -49.0136 O.2       1 UNK        -0.5000 
     67 C          -0.5010  -23.6194  -46.9677 C.2       11 UNK         0.5000 
     68 O          -1.3456  -23.1400  -47.7260 O.2       11 UNK        -0.5000 
     69 N          -0.8077  -24.4804  -45.9890 N.am      12 UNK        -0.5000 
     70 CA         -2.1576  -24.9862  -45.7372 C.3       12 UNK         0.1400 
     71 CB         -2.2208  -25.5831  -44.3236 C.3       12 UNK        -0.1800 
     72 C          -2.6073  -26.0231  -46.7833 C.2       12 UNK         0.5000 
     73 O          -3.7767  -26.0312  -47.1668 O.2       12 UNK        -0.5000 
     74 N          -1.6760  -26.8760  -47.2295 N.am      13 UNK        -0.5000 
     75 CA         -1.9202  -27.9222  -48.2206 C.3       13 UNK         0.1400 
     76 CB         -0.7725  -28.9428  -48.1697 C.3       13 UNK        -0.1800 
     77 C          -2.0577  -27.3229  -49.6300 C.2       13 UNK         0.5000 
     78 O          -1.1348  -26.6435  -50.0848 O.2       13 UNK        -0.5000 
     79 N          -3.2018  -27.5810  -50.2813 N.am      14 UNK        -0.5000 
     80 CA         -3.6168  -27.1918  -51.6412 C.3       14 UNK         0.1400 
     81 CB         -2.6888  -27.8114  -52.7028 C.3       14 UNK        -0.1800 
     82 C          -3.7777  -25.6760  -51.8779 C.2       14 UNK         0.5000 
     83 O          -4.7508  -25.2558  -52.5036 O.2       14 UNK        -0.5000 
     84 N          -2.8257  -24.8834  -51.3814 N.am      15 UNK        -0.5000 
     85 CA         -2.7978  -23.4268  -51.4451 C.3       15 UNK         0.1400 
     86 CB         -1.3764  -22.9617  -51.1153 C.3       15 UNK        -0.1800 
     87 C          -3.8203  -22.7614  -50.5107 C.2       15 UNK         0.5000 
     88 O          -4.3083  -21.6761  -50.8350 O.2       15 UNK        -0.5000 
     89 N          -4.1150  -23.4203  -49.3788 N.am      16 UNK        -0.5000 
     90 CA         -5.0394  -23.0120  -48.3145 C.3       16 UNK         0.1400 
     91 CB         -6.4990  -23.1878  -48.7738 C.3       16 UNK        -0.1800 
     92 C          -4.7516  -21.5960  -47.7805 C.2       16 UNK         0.5000 
     93 O          -5.6730  -20.7978  -47.6168 O.2       16 UNK        -0.5000 
     94 N          -3.4629  -21.2890  -47.5788 N.am      17 UNK        -0.5000 
     95 CA         -2.9322  -19.9887  -47.1581 C.3       17 UNK         0.1400 
     96 CB         -3.3631  -19.6824  -45.7116 C.3       17 UNK        -0.1800 
     97 C          -3.2644  -18.8450  -48.1426 C.2       17 UNK         0.5000 
     98 O          -3.4468  -17.7005  -47.7229 O.2       17 UNK        -0.5000 
     99 N          -3.3334  -19.1981  -49.4341 N.am      18 UNK        -0.5000 
    100 CA        -3.6965  -18.3698  -50.5856 C.3       18 UNK         0.1400 
    101 CB        -2.8177  -17.1073  -50.6995 C.3       18 UNK        -0.1800 
    102 C         -5.2074  -18.1023  -50.7218 C.2       18 UNK         0.5000 
    103 O         -5.5964  -17.2065  -51.4721 O.2       18 UNK        -0.5000 
    104 N         -6.0403  -18.9138  -50.0540 N.am      19 UNK        -0.5000 
    105 CA        -7.4884  -18.9463  -50.2692 C.3       19 UNK         0.1400 
    106 CB        -8.1933  -19.3573  -48.9675 C.3       19 UNK        -0.1800 
    107 C         -7.8923  -19.8917  -51.4199 C.2       19 UNK         0.5000 
    108 O         -9.0067  -19.7574  -51.9278 O.2       19 UNK        -0.5000 
    109 N         -7.0103  -20.8277  -51.8032 N.am      20 UNK        -0.5000 
    110 CA        -7.2386  -21.8146  -52.8578 C.3       20 UNK         0.1400 
    111 CB        -7.3006  -23.2247  -52.2453 C.3       20 UNK        -0.1800 
    112 C         -6.1847  -21.6392  -53.9645 C.2       20 UNK         0.5000 
    113 O         -6.1906  -20.5917  -54.6121 O.2       20 UNK        -0.5000 
    114 N         -5.3209  -22.6415  -54.1978 N.am      21 UNK        -0.5000 
    115 CA        -4.4308  -22.7258  -55.3669 C.3       21 UNK         0.1400 
    116 CB        -3.6991  -24.0774  -55.3660 C.3       21 UNK        -0.1800 
    117 C         -3.4234  -21.5685  -55.5353 C.2       21 UNK         0.5000 
    118 O         -3.0342  -21.2789  -56.6676 O.2       21 UNK        -0.5000 
    119 N         -3.0385  -20.9205  -54.4292 N.am      22 UNK        -0.5000 
    120 CA        -2.2118  -19.7006  -54.4277 C.3       22 UNK         0.1400 
    121 C         -3.0427  -18.3820  -54.4808 C.2       22 UNK         0.5000 
    122 N         -4.3687  -18.4119  -54.5181 N.am      22 UNK        -0.7600 
    123 O         -2.4680  -17.2976  -54.5011 O.2       22 UNK        -0.5000 
    124 C124       -1.2105  -19.6914  -53.2443 C.3       23 UNK        -0.0398 
    125 S125        0.1748  -20.8562  -53.4708 S.3       23 UNK        -0.2404 
    126 C126        1.6259  -19.7663  -53.2952 C.3       23 UNK        -0.0205 
    127 H127        4.9376  -18.1431  -45.7835 H         1 UNK         0.0600 
    128 H128        6.1087  -16.8956  -45.3433 H         1 UNK         0.0600 
    129 H129        6.1484  -17.6162  -46.9570 H         1 UNK         0.0600 
    130 H130        5.3659  -16.1675  -48.4736 H         1 UNK         0.3000 
    131 H131        2.7307  -15.0565  -48.1817 H         1 UNK         0.0600 
    132 H132        4.5174  -14.5394  -50.5882 H         1 UNK         0.0800 
    133 H133        3.8745  -16.1212  -50.3264 H         1 UNK         0.0800 
    134 H134        0.7483  -15.6102  -49.1722 H         1 UNK         0.0800 
    135 H135       -0.0206  -15.6608  -50.7284 H         1 UNK         0.0800 
    136 H136        0.9039  -17.2512  -52.5204 H         1 UNK         0.1150 
    137 H137        2.6089  -20.8772  -51.0170 H         1 UNK         0.1150 
    138 H138        2.0247  -17.5228  -48.4021 H         1 UNK         0.1150 
    139 H139        4.0315  -19.6904  -48.2768 H         1 UNK         0.0800 
    140 H140        2.4946  -19.7403  -47.4498 H         1 UNK         0.0800 
    141 H141        0.8862  -22.6642  -49.1982 H         1 UNK         0.0800 
    142 H142        0.6650  -21.3072  -48.1244 H         1 UNK         0.0800 
    143 H143        1.5388  -24.1214  -47.2984 H         1 UNK         0.0600 
    144 H144        1.1211  -21.6905  -45.6341 H         1 UNK         0.3000 
    145 H145        2.4011  -23.2252  -42.7239 H         1 UNK         0.0600 
    146 H146        4.1168  -21.4235  -42.7304 H         1 UNK         0.0600 
    147 H147        4.5741  -22.7000  -43.8473 H         1 UNK         0.0600 
    148 H148        3.9048  -21.1951  -44.4669 H         1 UNK         0.0600 
    149 H149        1.8058  -20.4990  -43.3928 H         1 UNK         0.3000 
    150 H150       -1.6603  -20.6351  -43.4136 H         1 UNK         0.0600 
    151 H151       -1.4137  -20.8245  -40.9218 H         1 UNK         0.0600 
    152 H152       -1.7726  -19.1854  -41.4361 H         1 UNK         0.0600 
    153 H153       -0.1290  -19.6209  -40.9685 H         1 UNK         0.0600 
    154 H154       -0.1596  -18.3322  -43.0975 H         1 UNK         0.3000 
    155 H155        1.7003  -17.9220  -45.8681 H         1 UNK         0.0600 
    156 H156        0.1759  -16.3592  -47.0413 H         1 UNK         0.0600 
    157 H157       -1.2172  -17.0739  -46.2347 H         1 UNK         0.0600 
    158 H158       -0.2861  -18.0163  -47.3939 H         1 UNK         0.0600 
    159 H159        0.2309  -15.8689  -44.6385 H         1 UNK         0.3000 
    160 H160        1.8641  -15.7243  -41.5173 H         1 UNK         0.0600 
    161 H161        2.1884  -13.9673  -44.0017 H         1 UNK         0.0600 
    162 H162        3.4957  -14.6369  -43.0391 H         1 UNK         0.0600 
    163 H163        2.4201  -13.4361  -42.3356 H         1 UNK         0.0600 
    164 H164       -0.0398  -14.0615  -42.9085 H         1 UNK         0.3000 
    165 H165       -2.7450  -15.2592  -40.8787 H         1 UNK         0.0600 
    166 H166       -1.6512  -12.8144  -42.3692 H         1 UNK         0.0600 
    167 H167       -1.4395  -13.1004  -40.6429 H         1 UNK         0.0600 
    168 H168       -3.0499  -12.8836  -41.3070 H         1 UNK         0.0600 
    169 H169       -3.0506  -14.3074  -43.5904 H         1 UNK         0.3000 
    170 H170       -4.5755  -17.2589  -44.8471 H         1 UNK         0.0600 
    171 H171       -6.3376  -16.0686  -43.6222 H         1 UNK         0.0600 
    172 H172       -5.6942  -14.5116  -44.1157 H         1 UNK         0.0600 
    173 H173       -6.3614  -15.6142  -45.3190 H         1 UNK         0.0600 
    174 H174       -3.4708  -16.3354  -46.4758 H         1 UNK         0.3000 
    175 H175       -1.8862  -15.0247  -47.4681 H         1 UNK         0.0600 
    176 H176       -3.9315  -12.8585  -48.2028 H         1 UNK         0.0600 
    177 H177       -2.7963  -13.6339  -49.3099 H         1 UNK         0.0600 
    178 H178       -4.0876  -14.5705  -48.5747 H         1 UNK         0.0600 
    179 H179       -1.7269  -12.1510  -47.4408 H         1 UNK         0.3000 
    180 H180        0.0686  -11.0704  -46.7375 H         1 UNK         0.0600 
    181 H181        0.2441  -11.7870  -43.7476 H         1 UNK         0.0600 
    182 H182       -1.1382  -10.9966  -44.4983 H         1 UNK         0.0600 
    183 H183        0.4134  -10.1768  -44.4411 H         1 UNK         0.0600 
    184 H184        1.9467  -13.0644  -45.9494 H         1 UNK         0.3000 
    185 H185        4.7383  -11.1148  -46.8924 H         1 UNK         0.0600 
    186 H186        4.8837  -10.8569  -44.4229 H         1 UNK         0.0600 
    187 H187        4.3000  -12.4991  -44.1929 H         1 UNK         0.0600 
    188 H188        5.8574  -12.2148  -44.9661 H         1 UNK         0.0600 
    189 H189        4.0803  -13.9121  -46.2181 H         1 UNK         0.3000 
    190 H190       -0.0713  -24.8029  -45.3764 H         1 UNK         0.3000 
    191 H191       -2.8549  -24.1465  -45.7787 H         1 UNK         0.0600 
    192 H192       -1.9836  -24.8329  -43.5691 H         1 UNK         0.0600 
    193 H193       -3.2207  -25.9591  -44.1027 H         1 UNK         0.0600 
    194 H194       -1.5230  -26.4125  -44.2028 H         1 UNK         0.0600 
    195 H195       -0.7279  -26.7761  -46.8995 H         1 UNK         0.3000 
    196 H196       -2.8446  -28.4413  -47.9579 H         1 UNK         0.0600 
    197 H197       -0.9312  -29.7440  -48.8927 H         1 UNK         0.0600 
    198 H198       -0.6986  -29.4044  -47.1848 H         1 UNK         0.0600 
    199 H199        0.1895  -28.4815  -48.3972 H         1 UNK         0.0600 
    200 H200       -3.8999  -28.1122  -49.7791 H         1 UNK         0.3000 
    201 H201       -4.6069  -27.6286  -51.7813 H         1 UNK         0.0600 
    202 H202       -2.6422  -28.8956  -52.6009 H         1 UNK         0.0600 
    203 H203       -1.6720  -27.4238  -52.6330 H         1 UNK         0.0600 
    204 H204       -3.0502  -27.5948  -53.7090 H         1 UNK         0.0600 
    205 H205       -2.0535  -25.3408  -50.8999 H         1 UNK         0.3000 
    206 H206       -3.0339  -23.1114  -52.4608 H         1 UNK         0.0600 
    207 H207       -0.6887  -23.2196  -51.9202 H         1 UNK         0.0600 
    208 H208       -1.3227  -21.8836  -50.9629 H         1 UNK         0.0600 
    209 H209       -1.0075  -23.4432  -50.2127 H         1 UNK         0.0600 
    210 H210       -3.6307  -24.2910  -49.2126 H         1 UNK         0.3000 
    211 H211       -4.8748  -23.6884  -47.4766 H         1 UNK         0.0600 
    212 H212       -6.7679  -22.4603  -49.5376 H         1 UNK         0.0600 
    213 H213       -7.1887  -23.0515  -47.9402 H         1 UNK         0.0600 
    214 H214       -6.6706  -24.1852  -49.1784 H         1 UNK         0.0600 
    215 H215       -2.7618  -22.0109  -47.7442 H         1 UNK         0.3000 
    216 H216       -1.8487  -20.0942  -47.1762 H         1 UNK         0.0600 
    217 H217       -2.8078  -18.8377  -45.3049 H         1 UNK         0.0600 
    218 H218       -3.1821  -20.5383  -45.0640 H         1 UNK         0.0600 
    219 H219       -4.4252  -19.4456  -45.6504 H         1 UNK         0.0600 
    220 H220       -3.2332  -20.1826  -49.6458 H         1 UNK         0.3000 
    221 H221       -3.4741  -18.9858  -51.4535 H         1 UNK         0.0600 
    222 H222       -3.0405  -16.3814  -49.9188 H         1 UNK         0.0600 
    223 H223       -1.7606  -17.3629  -50.6334 H         1 UNK         0.0600 
    224 H224       -2.9706  -16.6096  -51.6578 H         1 UNK         0.0600 
    225 H225       -5.6621  -19.6026  -49.4140 H         1 UNK         0.3000 
    226 H226       -7.8372  -17.9442  -50.5274 H         1 UNK         0.0600 
    227 H227       -7.8684  -18.7428  -48.1276 H         1 UNK         0.0600 
    228 H228       -9.2736  -19.2401  -49.0590 H         1 UNK         0.0600 
    229 H229       -8.0029  -20.4006  -48.7160 H         1 UNK         0.0600 
    230 H230       -6.0990  -20.8635  -51.3587 H         1 UNK         0.3000 
    231 H231       -8.1993  -21.6373  -53.3447 H         1 UNK         0.0600 
    232 H232       -6.3971  -23.4646  -51.6895 H         1 UNK         0.0600 
    233 H233       -7.4382  -23.9887  -53.0115 H         1 UNK         0.0600 
    234 H234       -8.1407  -23.3097  -51.5560 H         1 UNK         0.0600 
    235 H235       -5.3615  -23.4683  -53.6115 H         1 UNK         0.3000 
    236 H236       -5.0760  -22.7045  -56.2476 H         1 UNK         0.0600 
    237 H237       -4.4019  -24.9092  -55.3159 H         1 UNK         0.0600 
    238 H238       -3.1149  -24.2037  -56.2784 H         1 UNK         0.0600 
    239 H239       -3.0100  -24.1672  -54.5270 H         1 UNK         0.0600 
    240 H240       -3.4385  -21.1975  -53.5460 H         1 UNK         0.3000 
    241 H241       -1.6163  -19.6784  -55.3423 H         1 UNK         0.0600 
    242 H242       -4.8715  -17.5395  -54.5425 H         1 UNK         0.3800 
    243 H243       -4.8930  -19.2824  -54.5565 H         1 UNK         0.3800 
    244 H244       -0.8033  -18.6924  -53.1038 H         1 UNK         0.0800 
    245 H245       -1.7054  -19.9446  -52.3094 H         1 UNK         0.0800 
    246 H246        1.5888  -18.9909  -54.0620 H         1 UNK         0.0800 
    247 H247        2.5271  -20.3471  -53.4962 H         1 UNK         0.0800 
@<TRIPOS>BOND
     1    1    2 1    
     2    1  127 1    
     3    1  128 1    
     4    1  129 1    
     5    2    3 2    
     6    2    4 am   BACKBONE|DICT|INTERRES
     7    4    5 1    
     8    4  130 1    
     9    5    6 1    
    10    5   65 1    
    11    5  131 1    
    12    6    7 1    
    13    6  132 1    
    14    6  133 1    
    15    7    8 1    
    16    8    9 1    
    17    8  134 1    
    18    8  135 1    
    19    9   10 ar   
    20    9   14 ar   
    21   10   11 ar   
    22   10  136 1    
    23   11   12 ar   
    24   11  126 1    
    25   12   13 ar   
    26   12  137 1    
    27   13   14 ar   
    28   13   15 1    
    29   14  138 1    
    30   15   16 1    
    31   15  139 1    
    32   15  140 1    
    33   16   17 1    
    34   17   18 1    
    35   17  141 1    
    36   17  142 1    
    37   18   19 1    
    38   18   67 1    
    39   18  143 1    
    40   19   20 am   BACKBONE|DICT|INTERRES
    41   19  144 1    
    42   20   21 2    
    43   20   22 1    
    44   22   23 1    
    45   22   24 1    
    46   22  145 1    
    47   23  146 1    
    48   23  147 1    
    49   23  148 1    
    50   24   25 am   BACKBONE|DICT|INTERRES
    51   24  149 1    
    52   25   26 2    
    53   25   27 1    
    54   27   28 1    
    55   27   29 1    
    56   27  150 1    
    57   28  151 1    
    58   28  152 1    
    59   28  153 1    
    60   29   30 am   BACKBONE|DICT|INTERRES
    61   29  154 1    
    62   30   31 2    
    63   30   32 1    
    64   32   33 1    
    65   32   34 1    
    66   32  155 1    
    67   33  156 1    
    68   33  157 1    
    69   33  158 1    
    70   34   35 am   BACKBONE|DICT|INTERRES
    71   34  159 1    
    72   35   36 2    
    73   35   37 1    
    74   37   38 1    
    75   37   39 1    
    76   37  160 1    
    77   38  161 1    
    78   38  162 1    
    79   38  163 1    
    80   39   40 am   BACKBONE|DICT|INTERRES
    81   39  164 1    
    82   40   41 2    
    83   40   42 1    
    84   42   43 1    
    85   42   44 1    
    86   42  165 1    
    87   43  166 1    
    88   43  167 1    
    89   43  168 1    
    90   44   45 am   BACKBONE|DICT|INTERRES
    91   44  169 1    
    92   45   46 2    
    93   45   47 1    
    94   47   48 1    
    95   47   49 1    
    96   47  170 1    
    97   48  171 1    
    98   48  172 1    
    99   48  173 1    
   100   49   50 am   BACKBONE|DICT|INTERRES
   101   49  174 1    
   102   50   51 2    
   103   50   52 1    
   104   52   53 1    
   105   52   54 1    
   106   52  175 1    
   107   53  176 1    
   108   53  177 1    
   109   53  178 1    
   110   54   55 am   BACKBONE|DICT|INTERRES
   111   54  179 1    
   112   55   56 2    
   113   55   57 1    
   114   57   58 1    
   115   57   59 1    
   116   57  180 1    
   117   58  181 1    
   118   58  182 1    
   119   58  183 1    
   120   59   60 am   BACKBONE|DICT|INTERRES
   121   59  184 1    
   122   60   61 2    
   123   60   62 1    
   124   62   63 1    
   125   62   64 1    
   126   62  185 1    
   127   63  186 1    
   128   63  187 1    
   129   63  188 1    
   130   64   65 am   BACKBONE|DICT|INTERRES
   131   64  189 1    
   132   65   66 2    
   133   67   68 2    
   134   67   69 am   BACKBONE|DICT|INTERRES
   135   69   70 1    
   136   69  190 1    
   137   70   71 1    
   138   70   72 1    
   139   70  191 1    
   140   71  192 1    
   141   71  193 1    
   142   71  194 1    
   143   72   73 2    
   144   72   74 am   BACKBONE|DICT|INTERRES
   145   74   75 1    
   146   74  195 1    
   147   75   76 1    
   148   75   77 1    
   149   75  196 1    
   150   76  197 1    
   151   76  198 1    
   152   76  199 1    
   153   77   78 2    
   154   77   79 am   BACKBONE|DICT|INTERRES
   155   79   80 1    
   156   79  200 1    
   157   80   81 1    
   158   80   82 1    
   159   80  201 1    
   160   81  202 1    
   161   81  203 1    
   162   81  204 1    
   163   82   83 2    
   164   82   84 am   BACKBONE|DICT|INTERRES
   165   84   85 1    
   166   84  205 1    
   167   85   86 1    
   168   85   87 1    
   169   85  206 1    
   170   86  207 1    
   171   86  208 1    
   172   86  209 1    
   173   87   88 2    
   174   87   89 am   BACKBONE|DICT|INTERRES
   175   89   90 1    
   176   89  210 1    
   177   90   91 1    
   178   90   92 1    
   179   90  211 1    
   180   91  212 1    
   181   91  213 1    
   182   91  214 1    
   183   92   93 2    
   184   92   94 am   BACKBONE|DICT|INTERRES
   185   94   95 1    
   186   94  215 1    
   187   95   96 1    
   188   95   97 1    
   189   95  216 1    
   190   96  217 1    
   191   96  218 1    
   192   96  219 1    
   193   97   98 2    
   194   97   99 am   BACKBONE|DICT|INTERRES
   195   99  100 1    
   196   99  220 1    
   197  100  101 1    
   198  100  102 1    
   199  100  221 1    
   200  101  222 1    
   201  101  223 1    
   202  101  224 1    
   203  102  103 2    
   204  102  104 am   BACKBONE|DICT|INTERRES
   205  104  105 1    
   206  104  225 1    
   207  105  106 1    
   208  105  107 1    
   209  105  226 1    
   210  106  227 1    
   211  106  228 1    
   212  106  229 1    
   213  107  108 2    
   214  107  109 am   BACKBONE|DICT|INTERRES
   215  109  110 1    
   216  109  230 1    
   217  110  111 1    
   218  110  112 1    
   219  110  231 1    
   220  111  232 1    
   221  111  233 1    
   222  111  234 1    
   223  112  113 2    
   224  112  114 am   BACKBONE|DICT|INTERRES
   225  114  115 1    
   226  114  235 1    
   227  115  116 1    
   228  115  117 1    
   229  115  236 1    
   230  116  237 1    
   231  116  238 1    
   232  116  239 1    
   233  117  118 2    
   234  117  119 am   BACKBONE|DICT|INTERRES
   235  119  120 1    
   236  119  240 1    
   237  120  121 1    
   238  120  124 1    
   239  120  241 1    
   240  121  122 am   BACKBONE|DICT|INTERRES
   241  121  123 2    
   242  122  242 1    
   243  122  243 1    
   244  124  125 1    
   245  124  244 1    
   246  124  245 1    
   247  125  126 1    
   248  126  246 1    
   249  126  247 1    
@<TRIPOS>SUBSTRUCTURE
     1 UNK         1 GROUP             0       ****    0 ROOT    
