@<TRIPOS>MOLECULE
3R540
247   249    1
SMALL
USER_CHARGES


@<TRIPOS>ATOM
      1 CA         -0.2735  -10.1420  -44.5093 C.3       0 UNK        -0.1800 
      2 C           0.2512  -11.0525  -45.6094 C.2       0 UNK         0.5000 
      3 O           0.7954  -12.1144  -45.3129 O.2       0 UNK        -0.5000 
      4 N           0.1065  -10.6354  -46.8755 N.am      1 UNK        -0.5000 
      5 CA          0.5096  -11.3796  -48.0821 C.3       1 UNK         0.1400 
      6 C6         -0.3420  -12.6558  -48.3277 C.3       23 UNK        -0.0398 
      7 S7         -2.1289  -12.2823  -48.4073 S.3       23 UNK        -0.2404 
      8 C8         -2.5410  -12.6931  -50.1363 C.3       23 UNK        -0.0205 
      9 C9         -2.5973  -14.1933  -50.4077 C.ar      23 UNK        -0.0193 
     10 C10        -1.9872  -14.7219  -51.5502 C.ar      23 UNK        -0.1150 
     11 C11        -2.0692  -16.0895  -51.8351 C.ar      23 UNK        -0.0193 
     12 C12        -2.7426  -16.9351  -50.9515 C.ar      23 UNK        -0.1150 
     13 C13        -3.3487  -16.4228  -49.8028 C.ar      23 UNK        -0.0193 
     14 C14        -3.2888  -15.0515  -49.5454 C.ar      23 UNK        -0.1150 
     15 C15        -4.0509  -17.3534  -48.8315 C.3       23 UNK        -0.0205 
     16 S16        -2.9606  -17.7534  -47.4388 S.3       23 UNK        -0.2404 
     17 C17        -3.8891  -19.0893  -46.6210 C.3       23 UNK        -0.0398 
     18 CA         -3.4175  -20.4984  -47.0547 C.3       11 UNK         0.1400 
     19 N          -1.9952  -20.7418  -46.7773 N.am      11 UNK        -0.5000 
     20 C          -1.2991  -21.8037  -47.2094 C.2       10 UNK         0.5000 
     21 O          -1.7673  -22.6562  -47.9614 O.2       10 UNK        -0.5000 
     22 CA          0.1540  -21.9481  -46.7268 C.3       10 UNK         0.1400 
     23 CB          1.1199  -21.2105  -47.6664 C.3       10 UNK        -0.1800 
     24 N           0.3219  -21.4609  -45.3591 N.am      10 UNK        -0.5000 
     25 C           0.0732  -22.1938  -44.2650 C.2       9 UNK         0.5000 
     26 O          -0.2560  -23.3790  -44.3004 O.2       9 UNK        -0.5000 
     27 CA          0.2048  -21.4959  -42.8959 C.3       9 UNK         0.1400 
     28 CB          1.6145  -21.7083  -42.3246 C.3       9 UNK        -0.1800 
     29 N          -0.0859  -20.0620  -42.9306 N.am      9 UNK        -0.5000 
     30 C          -1.2767  -19.5292  -43.2378 C.2       8 UNK         0.5000 
     31 O          -2.2824  -20.1958  -43.4845 O.2       8 UNK        -0.5000 
     32 CA         -1.3331  -17.9938  -43.3605 C.3       8 UNK         0.1400 
     33 CB         -1.4991  -17.3412  -41.9806 C.3       8 UNK        -0.1800 
     34 N          -0.1676  -17.4154  -44.0365 N.am      8 UNK        -0.5000 
     35 C           0.2585  -17.7557  -45.2621 C.2       7 UNK         0.5000 
     36 O          -0.2560  -18.6368  -45.9439 O.2       7 UNK        -0.5000 
     37 CA          1.5141  -17.0464  -45.7832 C.3       7 UNK         0.1400 
     38 CB          1.1946  -15.5908  -46.1666 C.3       7 UNK        -0.1800 
     39 N           2.5835  -17.1322  -44.7867 N.am      7 UNK        -0.5000 
     40 C           3.2644  -18.2647  -44.5403 C.2       6 UNK         0.5000 
     41 O           3.1723  -19.2757  -45.2365 O.2       6 UNK        -0.5000 
     42 CA          4.1589  -18.3119  -43.2864 C.3       6 UNK         0.1400 
     43 CB          5.6423  -18.1213  -43.6338 C.3       6 UNK        -0.1800 
     44 N           3.7618  -17.3401  -42.2690 N.am      6 UNK        -0.5000 
     45 C           2.7023  -17.4977  -41.4629 C.2       5 UNK         0.5000 
     46 O           1.9733  -18.4894  -41.4826 O.2       5 UNK        -0.5000 
     47 CA          2.3694  -16.3309  -40.5134 C.3       5 UNK         0.1400 
     48 CB          3.1357  -16.4754  -39.1907 C.3       5 UNK        -0.1800 
     49 N           2.6503  -15.0164  -41.0952 N.am      5 UNK        -0.5000 
     50 C           2.0705  -14.5352  -42.2029 C.2       4 UNK         0.5000 
     51 O           1.2105  -15.1525  -42.8316 O.2       4 UNK        -0.5000 
     52 CA          2.5418  -13.1613  -42.7196 C.3       4 UNK         0.1400 
     53 CB          3.3625  -12.3492  -41.6925 C.3       4 UNK        -0.1800 
     54 N           3.2754  -13.2666  -43.9878 N.am      4 UNK        -0.5000 
     55 C           4.4005  -13.9634  -44.2153 C.2       3 UNK         0.5000 
     56 O           4.9170  -14.7030  -43.3761 O.2       3 UNK        -0.5000 
     57 CA          5.0913  -13.8056  -45.5870 C.3       3 UNK         0.1400 
     58 CB          5.1574  -15.1289  -46.3662 C.3       3 UNK        -0.1800 
     59 N           4.5001  -12.7749  -46.4443 N.am      3 UNK        -0.5000 
     60 C           4.8428  -11.4818  -46.4151 C.2       2 UNK         0.5000 
     61 O           5.6079  -11.0011  -45.5783 O.2       2 UNK        -0.5000 
     62 CA          4.2572  -10.5655  -47.5073 C.3       2 UNK         0.1400 
     63 CB          4.9785  -10.7704  -48.8536 C.3       2 UNK        -0.1800 
     64 N           2.8000  -10.6417  -47.6579 N.am      2 UNK        -0.5000 
     65 C           2.0341  -11.6502  -48.1020 C.2       1 UNK         0.5000 
     66 O           2.4772  -12.7380  -48.4758 O.2       1 UNK        -0.5000 
     67 C          -4.3187  -21.5760  -46.4191 C.2       11 UNK         0.5000 
     68 O          -5.3362  -21.9389  -47.0110 O.2       11 UNK        -0.5000 
     69 N          -3.9139  -22.0733  -45.2421 N.am      12 UNK        -0.5000 
     70 CA         -4.5093  -23.2107  -44.5445 C.3       12 UNK         0.1400 
     71 CB         -3.8421  -23.3385  -43.1658 C.3       12 UNK        -0.1800 
     72 C          -4.3725  -24.5290  -45.3329 C.2       12 UNK         0.5000 
     73 O          -3.5305  -24.6419  -46.2274 O.2       12 UNK        -0.5000 
     74 N          -5.1818  -25.5255  -44.9498 N.am      13 UNK        -0.5000 
     75 CA         -5.3338  -26.8376  -45.5959 C.3       13 UNK         0.1400 
     76 CB         -6.4234  -27.6232  -44.8486 C.3       13 UNK        -0.1800 
     77 C          -4.0527  -27.6912  -45.7352 C.2       13 UNK         0.5000 
     78 O          -4.0744  -28.6893  -46.4564 O.2       13 UNK        -0.5000 
     79 N          -2.9604  -27.2852  -45.0738 N.am      14 UNK        -0.5000 
     80 CA         -1.6162  -27.8424  -45.2276 C.3       14 UNK         0.1400 
     81 CB         -0.6917  -27.2032  -44.1807 C.3       14 UNK        -0.1800 
     82 C          -1.0305  -27.6646  -46.6456 C.2       14 UNK         0.5000 
     83 O          -0.2013  -28.4805  -47.0516 O.2       14 UNK        -0.5000 
     84 N          -1.4755  -26.6319  -47.3763 N.am      15 UNK        -0.5000 
     85 CA         -1.1247  -26.4066  -48.7818 C.3       15 UNK         0.1400 
     86 CB          0.1195  -25.5099  -48.8855 C.3       15 UNK        -0.1800 
     87 C          -2.2960  -25.8471  -49.6086 C.2       15 UNK         0.5000 
     88 O          -2.3262  -26.0803  -50.8173 O.2       15 UNK        -0.5000 
     89 N          -3.2436  -25.1515  -48.9606 N.am      16 UNK        -0.5000 
     90 CA         -4.4609  -24.5645  -49.5269 C.3       16 UNK         0.1400 
     91 CB         -5.4356  -25.6684  -49.9869 C.3       16 UNK        -0.1800 
     92 C          -4.1817  -23.5145  -50.6215 C.2       16 UNK         0.5000 
     93 O          -4.8897  -23.4733  -51.6304 O.2       16 UNK        -0.5000 
     94 N          -3.1652  -22.6651  -50.4027 N.am      17 UNK        -0.5000 
     95 CA         -2.6704  -21.6468  -51.3406 C.3       17 UNK         0.1400 
     96 CB         -1.4817  -20.9013  -50.7171 C.3       17 UNK        -0.1800 
     97 C          -3.7290  -20.6373  -51.8209 C.2       17 UNK         0.5000 
     98 O          -3.5819  -20.0881  -52.9131 O.2       17 UNK        -0.5000 
     99 N          -4.7950  -20.4519  -51.0298 N.am      18 UNK        -0.5000 
    100 CA        -5.9816  -19.6614  -51.3652 C.3       18 UNK         0.1400 
    101 CB        -6.9270  -19.6550  -50.1525 C.3       18 UNK        -0.1800 
    102 C         -6.7331  -20.1637  -52.6162 C.2       18 UNK         0.5000 
    103 O         -7.4320  -19.3729  -53.2493 O.2       18 UNK        -0.5000 
    104 N         -6.5746  -21.4530  -52.9441 N.am      19 UNK        -0.5000 
    105 CA        -7.0910  -22.0829  -54.1556 C.3       19 UNK         0.1400 
    106 CB        -8.0303  -23.2341  -53.7624 C.3       19 UNK        -0.1800 
    107 C         -5.9429  -22.6030  -55.0364 C.2       19 UNK         0.5000 
    108 O         -5.9997  -22.4460  -56.2561 O.2       19 UNK        -0.5000 
    109 N         -4.9240  -23.2143  -54.4159 N.am      20 UNK        -0.5000 
    110 CA        -3.8379  -23.9161  -55.1012 C.3       20 UNK         0.1400 
    111 CB        -3.1267  -24.8388  -54.0989 C.3       20 UNK        -0.1800 
    112 C         -2.8189  -22.9979  -55.8009 C.2       20 UNK         0.5000 
    113 O         -2.1956  -23.4400  -56.7673 O.2       20 UNK        -0.5000 
    114 N         -2.6518  -21.7623  -55.3102 N.am      21 UNK        -0.5000 
    115 CA        -1.7002  -20.7873  -55.8478 C.3       21 UNK         0.1400 
    116 CB        -0.6499  -20.4442  -54.7778 C.3       21 UNK        -0.1800 
    117 C         -2.4257  -19.5283  -56.3405 C.2       21 UNK         0.5000 
    118 O         -2.2209  -19.1203  -57.4844 O.2       21 UNK        -0.5000 
    119 N         -3.2689  -18.9510  -55.4785 N.am      22 UNK        -0.5000 
    120 CA        -4.0413  -17.7245  -55.7357 C.3       22 UNK         0.1400 
    121 C         -5.5428  -17.9930  -56.0479 C.2       22 UNK         0.5000 
    122 N         -5.9579  -19.2243  -56.3154 N.am      22 UNK        -0.7600 
    123 O         -6.3459  -17.0647  -56.0856 O.2       22 UNK        -0.5000 
    124 C124       -3.8434  -16.6950  -54.5921 C.3       23 UNK        -0.0398 
    125 S125       -2.1593  -15.9855  -54.6124 S.3       23 UNK        -0.2404 
    126 C126       -1.4238  -16.6600  -53.0900 C.3       23 UNK        -0.0205 
    127 H127        0.5379   -9.8597  -43.8385 H         1 UNK         0.0600 
    128 H128       -0.7159   -9.2310  -44.9129 H         1 UNK         0.0600 
    129 H129       -1.0342  -10.6611  -43.9264 H         1 UNK         0.0600 
    130 H130       -0.3543   -9.7530  -47.0491 H         1 UNK         0.3000 
    131 H131        0.3283  -10.7080  -48.9226 H         1 UNK         0.0600 
    132 H132       -0.0371  -13.1531  -49.2500 H         1 UNK         0.0800 
    133 H133       -0.1845  -13.3779  -47.5272 H         1 UNK         0.0800 
    134 H134       -3.5181  -12.2682  -50.3692 H         1 UNK         0.0800 
    135 H135       -1.8268  -12.2013  -50.7986 H         1 UNK         0.0800 
    136 H136       -1.4623  -14.0684  -52.2329 H         1 UNK         0.1150 
    137 H137       -2.7904  -17.9943  -51.1548 H         1 UNK         0.1150 
    138 H138       -3.7670  -14.6560  -48.6604 H         1 UNK         0.1150 
    139 H139       -4.9717  -16.8966  -48.4659 H         1 UNK         0.0800 
    140 H140       -4.3307  -18.2753  -49.3377 H         1 UNK         0.0800 
    141 H141       -4.9526  -18.9548  -46.8280 H         1 UNK         0.0800 
    142 H142       -3.7735  -18.9662  -45.5431 H         1 UNK         0.0800 
    143 H143       -3.5516  -20.5748  -48.1351 H         1 UNK         0.0600 
    144 H144       -1.5028  -20.0205  -46.2567 H         1 UNK         0.3000 
    145 H145        0.4124  -23.0080  -46.7539 H         1 UNK         0.0600 
    146 H146        2.1495  -21.2938  -47.3178 H         1 UNK         0.0600 
    147 H147        1.0810  -21.6339  -48.6704 H         1 UNK         0.0600 
    148 H148        0.8807  -20.1505  -47.7500 H         1 UNK         0.0600 
    149 H149        0.5382  -20.4768  -45.2580 H         1 UNK         0.3000 
    150 H150       -0.5133  -21.9642  -42.2196 H         1 UNK         0.0600 
    151 H151        1.8572  -22.7700  -42.2641 H         1 UNK         0.0600 
    152 H152        1.6987  -21.2983  -41.3180 H         1 UNK         0.0600 
    153 H153        2.3736  -21.2316  -42.9460 H         1 UNK         0.0600 
    154 H154        0.6754  -19.4383  -42.6808 H         1 UNK         0.3000 
    155 H155       -2.2090  -17.7444  -43.9621 H         1 UNK         0.0600 
    156 H156       -1.6001  -16.2589  -42.0652 H         1 UNK         0.0600 
    157 H157       -0.6471  -17.5478  -41.3330 H         1 UNK         0.0600 
    158 H158       -2.3921  -17.7142  -41.4776 H         1 UNK         0.0600 
    159 H159        0.3182  -16.6676  -43.5477 H         1 UNK         0.3000 
    160 H160        1.8391  -17.5598  -46.6910 H         1 UNK         0.0600 
    161 H161        0.8591  -14.9957  -45.3192 H         1 UNK         0.0600 
    162 H162        0.3939  -15.5692  -46.9064 H         1 UNK         0.0600 
    163 H163        2.0451  -15.0808  -46.6120 H         1 UNK         0.0600 
    164 H164        2.6580  -16.3665  -44.1315 H         1 UNK         0.3000 
    165 H165        4.0538  -19.3136  -42.8641 H         1 UNK         0.0600 
    166 H166        5.8610  -17.1012  -43.9411 H         1 UNK         0.0600 
    167 H167        6.2744  -18.3479  -42.7752 H         1 UNK         0.0600 
    168 H168        5.9466  -18.7849  -44.4443 H         1 UNK         0.0600 
    169 H169        4.2781  -16.4679  -42.2456 H         1 UNK         0.3000 
    170 H170        1.3006  -16.3769  -40.2957 H         1 UNK         0.0600 
    171 H171        2.9290  -17.4393  -38.7235 H         1 UNK         0.0600 
    172 H172        4.2141  -16.4072  -39.3402 H         1 UNK         0.0600 
    173 H173        2.8450  -15.7020  -38.4794 H         1 UNK         0.0600 
    174 H174        3.3673  -14.4639  -40.6481 H         1 UNK         0.3000 
    175 H175        1.6335  -12.5946  -42.9230 H         1 UNK         0.0600 
    176 H176        3.5796  -11.3519  -42.0756 H         1 UNK         0.0600 
    177 H177        2.8102  -12.2192  -40.7609 H         1 UNK         0.0600 
    178 H178        4.3159  -12.8214  -41.4536 H         1 UNK         0.0600 
    179 H179        2.8657  -12.7507  -44.7569 H         1 UNK         0.3000 
    180 H180        6.1235  -13.5212  -45.3714 H         1 UNK         0.0600 
    181 H181        4.1736  -15.5420  -46.5716 H         1 UNK         0.0600 
    182 H182        5.7184  -15.8807  -45.8143 H         1 UNK         0.0600 
    183 H183        5.6658  -14.9953  -47.3212 H         1 UNK         0.0600 
    184 H184        3.8394  -13.0730  -47.1569 H         1 UNK         0.3000 
    185 H185        4.4596   -9.5412  -47.1900 H         1 UNK         0.0600 
    186 H186        4.6153  -10.0699  -49.6055 H         1 UNK         0.0600 
    187 H187        6.0513  -10.6052  -48.7473 H         1 UNK         0.0600 
    188 H188        4.8440  -11.7798  -49.2428 H         1 UNK         0.0600 
    189 H189        2.3065   -9.8209  -47.3353 H         1 UNK         0.3000 
    190 H190       -3.0824  -21.6761  -44.8211 H         1 UNK         0.3000 
    191 H191       -5.5719  -23.0012  -44.4072 H         1 UNK         0.0600 
    192 H192       -3.9445  -22.4174  -42.5914 H         1 UNK         0.0600 
    193 H193       -4.2946  -24.1374  -42.5774 H         1 UNK         0.0600 
    194 H194       -2.7778  -23.5586  -43.2544 H         1 UNK         0.0600 
    195 H195       -5.8120  -25.3520  -44.1800 H         1 UNK         0.3000 
    196 H196       -5.6887  -26.6505  -46.6112 H         1 UNK         0.0600 
    197 H197       -6.6065  -28.5900  -45.3197 H         1 UNK         0.0600 
    198 H198       -7.3704  -27.0832  -44.8472 H         1 UNK         0.0600 
    199 H199       -6.1410  -27.8118  -43.8121 H         1 UNK         0.0600 
    200 H200       -3.0357  -26.4445  -44.5209 H         1 UNK         0.3000 
    201 H201       -1.6737  -28.9142  -45.0273 H         1 UNK         0.0600 
    202 H202       -1.0519  -27.3882  -43.1686 H         1 UNK         0.0600 
    203 H203       -0.6163  -26.1239  -44.3191 H         1 UNK         0.0600 
    204 H204        0.3168  -27.6135  -44.2464 H         1 UNK         0.0600 
    205 H205       -2.1525  -26.0025  -46.9601 H         1 UNK         0.3000 
    206 H206       -0.8804  -27.3671  -49.2407 H         1 UNK         0.0600 
    207 H207       -0.0500  -24.5371  -48.4306 H         1 UNK         0.0600 
    208 H208        0.9779  -25.9659  -48.3923 H         1 UNK         0.0600 
    209 H209        0.3940  -25.3404  -49.9274 H         1 UNK         0.0600 
    210 H210       -3.1120  -24.9328  -47.9760 H         1 UNK         0.3000 
    211 H211       -4.9417  -24.0261  -48.7101 H         1 UNK         0.0600 
    212 H212       -5.0501  -26.2162  -50.8473 H         1 UNK         0.0600 
    213 H213       -6.3981  -25.2443  -50.2752 H         1 UNK         0.0600 
    214 H214       -5.6238  -26.3861  -49.1887 H         1 UNK         0.0600 
    215 H215       -2.6418  -22.7650  -49.5329 H         1 UNK         0.3000 
    216 H216       -2.3085  -22.1736  -52.2246 H         1 UNK         0.0600 
    217 H217       -1.7753  -20.3437  -49.8274 H         1 UNK         0.0600 
    218 H218       -1.0530  -20.1858  -51.4196 H         1 UNK         0.0600 
    219 H219       -0.6876  -21.5930  -50.4368 H         1 UNK         0.0600 
    220 H220       -4.8372  -20.9798  -50.1713 H         1 UNK         0.3000 
    221 H221       -5.6568  -18.6380  -51.5638 H         1 UNK         0.0600 
    222 H222       -6.4430  -19.2555  -49.2622 H         1 UNK         0.0600 
    223 H223       -7.8050  -19.0374  -50.3463 H         1 UNK         0.0600 
    224 H224       -7.2796  -20.6597  -49.9153 H         1 UNK         0.0600 
    225 H225       -5.9874  -22.0339  -52.3546 H         1 UNK         0.3000 
    226 H226       -7.6612  -21.3669  -54.7510 H         1 UNK         0.0600 
    227 H227       -8.8822  -22.8662  -53.1904 H         1 UNK         0.0600 
    228 H228       -8.4243  -23.7373  -54.6463 H         1 UNK         0.0600 
    229 H229       -7.5193  -23.9833  -53.1558 H         1 UNK         0.0600 
    230 H230       -4.9533  -23.3250  -53.4045 H         1 UNK         0.3000 
    231 H231       -4.2853  -24.5470  -55.8723 H         1 UNK         0.0600 
    232 H232       -2.6421  -24.2754  -53.3017 H         1 UNK         0.0600 
    233 H233       -2.3569  -25.4336  -54.5919 H         1 UNK         0.0600 
    234 H234       -3.8260  -25.5347  -53.6347 H         1 UNK         0.0600 
    235 H235       -3.2238  -21.4585  -54.5330 H         1 UNK         0.3000 
    236 H236       -1.1658  -21.1994  -56.7062 H         1 UNK         0.0600 
    237 H237        0.0633  -19.7092  -55.1529 H         1 UNK         0.0600 
    238 H238       -1.1026  -20.0302  -53.8782 H         1 UNK         0.0600 
    239 H239       -0.0836  -21.3291  -54.4874 H         1 UNK         0.0600 
    240 H240       -3.3836  -19.3514  -54.5499 H         1 UNK         0.3000 
    241 H241       -3.6712  -17.2544  -56.6485 H         1 UNK         0.0600 
    242 H242       -6.9311  -19.3771  -56.5244 H         1 UNK         0.3800 
    243 H243       -5.3132  -19.9980  -56.3361 H         1 UNK         0.3800 
    244 H244       -4.5328  -15.8554  -54.6928 H         1 UNK         0.0800 
    245 H245       -4.0610  -17.1497  -53.6246 H         1 UNK         0.0800 
    246 H246       -1.4995  -17.7480  -53.1106 H         1 UNK         0.0800 
    247 H247       -0.3588  -16.4252  -53.0778 H         1 UNK         0.0800 
@<TRIPOS>BOND
     1    1    2 1    
     2    1  127 1    
     3    1  128 1    
     4    1  129 1    
     5    2    3 2    
     6    2    4 am   BACKBONE|DICT|INTERRES
     7    4    5 1    
     8    4  130 1    
     9    5    6 1    
    10    5   65 1    
    11    5  131 1    
    12    6    7 1    
    13    6  132 1    
    14    6  133 1    
    15    7    8 1    
    16    8    9 1    
    17    8  134 1    
    18    8  135 1    
    19    9   10 ar   
    20    9   14 ar   
    21   10   11 ar   
    22   10  136 1    
    23   11   12 ar   
    24   11  126 1    
    25   12   13 ar   
    26   12  137 1    
    27   13   14 ar   
    28   13   15 1    
    29   14  138 1    
    30   15   16 1    
    31   15  139 1    
    32   15  140 1    
    33   16   17 1    
    34   17   18 1    
    35   17  141 1    
    36   17  142 1    
    37   18   19 1    
    38   18   67 1    
    39   18  143 1    
    40   19   20 am   BACKBONE|DICT|INTERRES
    41   19  144 1    
    42   20   21 2    
    43   20   22 1    
    44   22   23 1    
    45   22   24 1    
    46   22  145 1    
    47   23  146 1    
    48   23  147 1    
    49   23  148 1    
    50   24   25 am   BACKBONE|DICT|INTERRES
    51   24  149 1    
    52   25   26 2    
    53   25   27 1    
    54   27   28 1    
    55   27   29 1    
    56   27  150 1    
    57   28  151 1    
    58   28  152 1    
    59   28  153 1    
    60   29   30 am   BACKBONE|DICT|INTERRES
    61   29  154 1    
    62   30   31 2    
    63   30   32 1    
    64   32   33 1    
    65   32   34 1    
    66   32  155 1    
    67   33  156 1    
    68   33  157 1    
    69   33  158 1    
    70   34   35 am   BACKBONE|DICT|INTERRES
    71   34  159 1    
    72   35   36 2    
    73   35   37 1    
    74   37   38 1    
    75   37   39 1    
    76   37  160 1    
    77   38  161 1    
    78   38  162 1    
    79   38  163 1    
    80   39   40 am   BACKBONE|DICT|INTERRES
    81   39  164 1    
    82   40   41 2    
    83   40   42 1    
    84   42   43 1    
    85   42   44 1    
    86   42  165 1    
    87   43  166 1    
    88   43  167 1    
    89   43  168 1    
    90   44   45 am   BACKBONE|DICT|INTERRES
    91   44  169 1    
    92   45   46 2    
    93   45   47 1    
    94   47   48 1    
    95   47   49 1    
    96   47  170 1    
    97   48  171 1    
    98   48  172 1    
    99   48  173 1    
   100   49   50 am   BACKBONE|DICT|INTERRES
   101   49  174 1    
   102   50   51 2    
   103   50   52 1    
   104   52   53 1    
   105   52   54 1    
   106   52  175 1    
   107   53  176 1    
   108   53  177 1    
   109   53  178 1    
   110   54   55 am   BACKBONE|DICT|INTERRES
   111   54  179 1    
   112   55   56 2    
   113   55   57 1    
   114   57   58 1    
   115   57   59 1    
   116   57  180 1    
   117   58  181 1    
   118   58  182 1    
   119   58  183 1    
   120   59   60 am   BACKBONE|DICT|INTERRES
   121   59  184 1    
   122   60   61 2    
   123   60   62 1    
   124   62   63 1    
   125   62   64 1    
   126   62  185 1    
   127   63  186 1    
   128   63  187 1    
   129   63  188 1    
   130   64   65 am   BACKBONE|DICT|INTERRES
   131   64  189 1    
   132   65   66 2    
   133   67   68 2    
   134   67   69 am   BACKBONE|DICT|INTERRES
   135   69   70 1    
   136   69  190 1    
   137   70   71 1    
   138   70   72 1    
   139   70  191 1    
   140   71  192 1    
   141   71  193 1    
   142   71  194 1    
   143   72   73 2    
   144   72   74 am   BACKBONE|DICT|INTERRES
   145   74   75 1    
   146   74  195 1    
   147   75   76 1    
   148   75   77 1    
   149   75  196 1    
   150   76  197 1    
   151   76  198 1    
   152   76  199 1    
   153   77   78 2    
   154   77   79 am   BACKBONE|DICT|INTERRES
   155   79   80 1    
   156   79  200 1    
   157   80   81 1    
   158   80   82 1    
   159   80  201 1    
   160   81  202 1    
   161   81  203 1    
   162   81  204 1    
   163   82   83 2    
   164   82   84 am   BACKBONE|DICT|INTERRES
   165   84   85 1    
   166   84  205 1    
   167   85   86 1    
   168   85   87 1    
   169   85  206 1    
   170   86  207 1    
   171   86  208 1    
   172   86  209 1    
   173   87   88 2    
   174   87   89 am   BACKBONE|DICT|INTERRES
   175   89   90 1    
   176   89  210 1    
   177   90   91 1    
   178   90   92 1    
   179   90  211 1    
   180   91  212 1    
   181   91  213 1    
   182   91  214 1    
   183   92   93 2    
   184   92   94 am   BACKBONE|DICT|INTERRES
   185   94   95 1    
   186   94  215 1    
   187   95   96 1    
   188   95   97 1    
   189   95  216 1    
   190   96  217 1    
   191   96  218 1    
   192   96  219 1    
   193   97   98 2    
   194   97   99 am   BACKBONE|DICT|INTERRES
   195   99  100 1    
   196   99  220 1    
   197  100  101 1    
   198  100  102 1    
   199  100  221 1    
   200  101  222 1    
   201  101  223 1    
   202  101  224 1    
   203  102  103 2    
   204  102  104 am   BACKBONE|DICT|INTERRES
   205  104  105 1    
   206  104  225 1    
   207  105  106 1    
   208  105  107 1    
   209  105  226 1    
   210  106  227 1    
   211  106  228 1    
   212  106  229 1    
   213  107  108 2    
   214  107  109 am   BACKBONE|DICT|INTERRES
   215  109  110 1    
   216  109  230 1    
   217  110  111 1    
   218  110  112 1    
   219  110  231 1    
   220  111  232 1    
   221  111  233 1    
   222  111  234 1    
   223  112  113 2    
   224  112  114 am   BACKBONE|DICT|INTERRES
   225  114  115 1    
   226  114  235 1    
   227  115  116 1    
   228  115  117 1    
   229  115  236 1    
   230  116  237 1    
   231  116  238 1    
   232  116  239 1    
   233  117  118 2    
   234  117  119 am   BACKBONE|DICT|INTERRES
   235  119  120 1    
   236  119  240 1    
   237  120  121 1    
   238  120  124 1    
   239  120  241 1    
   240  121  122 am   BACKBONE|DICT|INTERRES
   241  121  123 2    
   242  122  242 1    
   243  122  243 1    
   244  124  125 1    
   245  124  244 1    
   246  124  245 1    
   247  125  126 1    
   248  126  246 1    
   249  126  247 1    
@<TRIPOS>SUBSTRUCTURE
     1 UNK         1 GROUP             0       ****    0 ROOT    
