@<TRIPOS>MOLECULE
3R540
247   249    1
SMALL
USER_CHARGES


@<TRIPOS>ATOM
      1 CA          1.8926  -15.0986  -47.3626 C.3       0 UNK        -0.1800 
      2 C           1.1051  -14.2988  -46.3385 C.2       0 UNK         0.5000 
      3 O           1.6616  -13.8890  -45.3231 O.2       0 UNK        -0.5000 
      4 N          -0.1840  -14.0463  -46.6054 N.am      1 UNK        -0.5000 
      5 CA         -1.0889  -13.2997  -45.7143 C.3       1 UNK         0.1400 
      6 C6         -2.5811  -13.5163  -46.0721 C.3       23 UNK        -0.0398 
      7 S7         -3.1266  -15.2070  -45.6471 S.3       23 UNK        -0.2404 
      8 C8         -4.3388  -15.5772  -46.9645 C.3       23 UNK        -0.0205 
      9 C9         -3.7596  -15.8622  -48.3517 C.ar      23 UNK        -0.0193 
     10 C10        -4.6189  -15.8297  -49.4551 C.ar      23 UNK        -0.1150 
     11 C11        -4.1448  -16.0923  -50.7442 C.ar      23 UNK        -0.0193 
     12 C12        -2.7928  -16.3932  -50.9279 C.ar      23 UNK        -0.1150 
     13 C13        -1.9218  -16.4420  -49.8370 C.ar      23 UNK        -0.0193 
     14 C14        -2.4107  -16.1770  -48.5556 C.ar      23 UNK        -0.1150 
     15 C15        -0.4486  -16.7504  -50.0529 C.3       23 UNK        -0.0205 
     16 S16        -0.0806  -18.5233  -49.8883 S.3       23 UNK        -0.2404 
     17 C17         0.0939  -18.7170  -48.0795 C.3       23 UNK        -0.0398 
     18 CA         -0.3871  -20.0995  -47.5879 C.3       11 UNK         0.1400 
     19 N           0.2329  -20.4784  -46.3185 N.am      11 UNK        -0.5000 
     20 C           0.2837  -21.7380  -45.8659 C.2       10 UNK         0.5000 
     21 O          -0.2074  -22.6964  -46.4631 O.2       10 UNK        -0.5000 
     22 CA          0.9718  -21.9609  -44.5082 C.3       10 UNK         0.1400 
     23 CB          2.4986  -21.8657  -44.6468 C.3       10 UNK        -0.1800 
     24 N           0.5106  -21.0280  -43.4807 N.am      10 UNK        -0.5000 
     25 C          -0.7493  -20.9704  -43.0256 C.2       9 UNK         0.5000 
     26 O          -1.6548  -21.7070  -43.4171 O.2       9 UNK        -0.5000 
     27 CA         -1.0620  -19.8818  -41.9844 C.3       9 UNK         0.1400 
     28 CB         -0.5694  -20.3032  -40.5920 C.3       9 UNK        -0.1800 
     29 N          -0.4980  -18.5772  -42.3308 N.am      9 UNK        -0.5000 
     30 C          -0.7930  -17.8911  -43.4444 C.2       8 UNK         0.5000 
     31 O          -1.5653  -18.2887  -44.3126 O.2       8 UNK        -0.5000 
     32 CA         -0.0506  -16.5658  -43.6593 C.3       8 UNK         0.1400 
     33 CB         -0.5348  -15.4923  -42.6722 C.3       8 UNK        -0.1800 
     34 N           1.3960  -16.7268  -43.5485 N.am      8 UNK        -0.5000 
     35 C           2.1444  -17.5418  -44.3051 C.2       7 UNK         0.5000 
     36 O           1.7063  -18.2248  -45.2314 O.2       7 UNK        -0.5000 
     37 CA          3.6283  -17.6508  -43.9213 C.3       7 UNK         0.1400 
     38 CB          4.4350  -16.4822  -44.5090 C.3       7 UNK        -0.1800 
     39 N           3.8073  -17.6984  -42.4696 N.am      7 UNK        -0.5000 
     40 C           3.4196  -18.7194  -41.6910 C.2       6 UNK         0.5000 
     41 O           2.9060  -19.7534  -42.1192 O.2       6 UNK        -0.5000 
     42 CA          3.5991  -18.5304  -40.1736 C.3       6 UNK         0.1400 
     43 CB          5.0553  -18.7905  -39.7597 C.3       6 UNK        -0.1800 
     44 N           3.1961  -17.1959  -39.7267 N.am      6 UNK        -0.5000 
     45 C           1.9335  -16.7461  -39.7447 C.2       5 UNK         0.5000 
     46 O           0.9725  -17.4284  -40.0984 O.2       5 UNK        -0.5000 
     47 CA          1.7071  -15.2781  -39.3332 C.3       5 UNK         0.1400 
     48 CB          1.4768  -15.1764  -37.8182 C.3       5 UNK        -0.1800 
     49 N           2.7904  -14.3678  -39.7199 N.am      5 UNK        -0.5000 
     50 C           3.2125  -14.1591  -40.9743 C.2       4 UNK         0.5000 
     51 O           2.7841  -14.7768  -41.9502 O.2       4 UNK        -0.5000 
     52 CA          4.3495  -13.1350  -41.1457 C.3       4 UNK         0.1400 
     53 CB          5.7026  -13.7965  -40.8383 C.3       4 UNK        -0.1800 
     54 N           4.4093  -12.5662  -42.4929 N.am      4 UNK        -0.5000 
     55 C           3.4878  -11.7688  -43.0504 C.2       3 UNK         0.5000 
     56 O           2.4752  -11.3830  -42.4605 O.2       3 UNK        -0.5000 
     57 CA          3.7767  -11.2768  -44.4845 C.3       3 UNK         0.1400 
     58 CB          4.6908  -12.2259  -45.2882 C.3       3 UNK        -0.1800 
     59 N           2.5288  -11.1000  -45.2241 N.am      3 UNK        -0.5000 
     60 C           2.0010   -9.9279  -45.6043 C.2       2 UNK         0.5000 
     61 O           2.5117   -8.8373  -45.3433 O.2       2 UNK        -0.5000 
     62 CA          0.7044   -9.9587  -46.4455 C.3       2 UNK         0.1400 
     63 CB          0.9841   -9.4820  -47.8804 C.3       2 UNK        -0.1800 
     64 N           0.0970  -11.2883  -46.5129 N.am      2 UNK        -0.5000 
     65 C          -0.7330  -11.7994  -45.5939 C.2       1 UNK         0.5000 
     66 O          -1.1864  -11.1462  -44.6536 O.2       1 UNK        -0.5000 
     67 C          -1.9249  -20.2272  -47.5456 C.2       11 UNK         0.5000 
     68 O          -2.5077  -20.6806  -48.5272 O.2       11 UNK        -0.5000 
     69 N          -2.5562  -19.9034  -46.4064 N.am      12 UNK        -0.5000 
     70 CA         -3.9925  -20.0918  -46.1831 C.3       12 UNK         0.1400 
     71 CB         -4.4218  -19.3935  -44.8848 C.3       12 UNK        -0.1800 
     72 C          -4.4104  -21.5743  -46.1613 C.2       12 UNK         0.5000 
     73 O          -5.4930  -21.9001  -46.6465 O.2       12 UNK        -0.5000 
     74 N          -3.5462  -22.4547  -45.6358 N.am      13 UNK        -0.5000 
     75 CA         -3.7336  -23.9069  -45.6827 C.3       13 UNK         0.1400 
     76 CB         -2.7467  -24.5879  -44.7228 C.3       13 UNK        -0.1800 
     77 C          -3.5897  -24.4711  -47.1100 C.2       13 UNK         0.5000 
     78 O          -4.3154  -25.3960  -47.4755 O.2       13 UNK        -0.5000 
     79 N          -2.6730  -23.8898  -47.8947 N.am      14 UNK        -0.5000 
     80 CA         -2.4269  -24.2333  -49.2957 C.3       14 UNK         0.1400 
     81 CB         -1.0193  -23.7517  -49.6770 C.3       14 UNK        -0.1800 
     82 C          -3.4758  -23.6602  -50.2716 C.2       14 UNK         0.5000 
     83 O          -3.5265  -24.1049  -51.4193 O.2       14 UNK        -0.5000 
     84 N          -4.2824  -22.6870  -49.8239 N.am      15 UNK        -0.5000 
     85 CA         -5.2824  -21.9582  -50.6076 C.3       15 UNK         0.1400 
     86 CB         -5.6311  -20.6388  -49.8948 C.3       15 UNK        -0.1800 
     87 C          -6.5368  -22.7965  -50.9346 C.2       15 UNK         0.5000 
     88 O          -7.6519  -22.4341  -50.5541 O.2       15 UNK        -0.5000 
     89 N          -6.3278  -23.9063  -51.6433 N.am      16 UNK        -0.5000 
     90 CA         -7.3526  -24.8114  -52.1535 C.3       16 UNK         0.1400 
     91 CB         -7.5995  -25.9332  -51.1272 C.3       16 UNK        -0.1800 
     92 C          -6.9459  -25.3413  -53.5416 C.2       16 UNK         0.5000 
     93 O          -7.3163  -26.4621  -53.8963 O.2       16 UNK        -0.5000 
     94 N          -6.1839  -24.5262  -54.2901 N.am      17 UNK        -0.5000 
     95 CA         -5.5187  -24.8151  -55.5651 C.3       17 UNK         0.1400 
     96 CB         -6.5402  -25.2096  -56.6524 C.3       17 UNK        -0.1800 
     97 C          -4.3812  -25.8539  -55.4404 C.2       17 UNK         0.5000 
     98 O          -4.2197  -26.4980  -54.4006 O.2       17 UNK        -0.5000 
     99 N          -3.5944  -25.9819  -56.5184 N.am      18 UNK        -0.5000 
    100 CA        -2.4570  -26.8887  -56.7357 C.3       18 UNK         0.1400 
    101 CB        -2.8886  -28.3659  -56.6558 C.3       18 UNK        -0.1800 
    102 C         -1.2307  -26.6120  -55.8424 C.2       18 UNK         0.5000 
    103 O         -0.1293  -26.4399  -56.3658 O.2       18 UNK        -0.5000 
    104 N         -1.4356  -26.5602  -54.5212 N.am      19 UNK        -0.5000 
    105 CA        -0.4198  -26.2263  -53.5199 C.3       19 UNK         0.1400 
    106 CB        -0.9124  -26.6839  -52.1386 C.3       19 UNK        -0.1800 
    107 C         -0.0702  -24.7248  -53.5090 C.2       19 UNK         0.5000 
    108 O          1.0356  -24.3580  -53.1105 O.2       19 UNK        -0.5000 
    109 N         -1.0101  -23.8939  -53.9665 N.am      20 UNK        -0.5000 
    110 CA        -0.8758  -22.4633  -54.1971 C.3       20 UNK         0.1400 
    111 CB        -1.2514  -21.6907  -52.9190 C.3       20 UNK        -0.1800 
    112 C         -1.8018  -22.0910  -55.3638 C.2       20 UNK         0.5000 
    113 O         -2.6670  -22.8863  -55.7401 O.2       20 UNK        -0.5000 
    114 N         -1.6244  -20.8800  -55.9054 N.am      21 UNK        -0.5000 
    115 CA        -2.5047  -20.3089  -56.9311 C.3       21 UNK         0.1400 
    116 CB        -1.7922  -19.1213  -57.5969 C.3       21 UNK        -0.1800 
    117 C         -3.8726  -19.8713  -56.3659 C.2       21 UNK         0.5000 
    118 O         -4.8447  -19.7871  -57.1174 O.2       21 UNK        -0.5000 
    119 N         -3.9123  -19.5930  -55.0572 N.am      22 UNK        -0.5000 
    120 CA        -5.1137  -19.2580  -54.2851 C.3       22 UNK         0.1400 
    121 C         -6.0818  -20.4685  -54.1349 C.2       22 UNK         0.5000 
    122 N         -7.3846  -20.2281  -54.0961 N.am      22 UNK        -0.7600 
    123 O         -5.6636  -21.6184  -54.0168 O.2       22 UNK        -0.5000 
    124 C124       -4.7081  -18.6652  -52.9110 C.3       23 UNK        -0.0398 
    125 S125       -5.9922  -17.5883  -52.1852 S.3       23 UNK        -0.2404 
    126 C126       -5.0902  -16.0252  -51.9364 C.3       23 UNK        -0.0205 
    127 H127        1.6232  -16.1527  -47.3073 H         1 UNK         0.0600 
    128 H128        2.9625  -15.0116  -47.1727 H         1 UNK         0.0600 
    129 H129        1.7024  -14.7327  -48.3710 H         1 UNK         0.0600 
    130 H130       -0.5938  -14.3815  -47.4644 H         1 UNK         0.3000 
    131 H131       -0.9413  -13.6922  -44.7090 H         1 UNK         0.0600 
    132 H132       -2.7571  -13.3159  -47.1301 H         1 UNK         0.0800 
    133 H133       -3.2223  -12.8279  -45.5185 H         1 UNK         0.0800 
    134 H134       -4.9125  -16.4519  -46.6561 H         1 UNK         0.0800 
    135 H135       -5.0476  -14.7499  -47.0246 H         1 UNK         0.0800 
    136 H136       -5.6652  -15.5977  -49.3118 H         1 UNK         0.1150 
    137 H137       -2.4126  -16.5844  -51.9210 H         1 UNK         0.1150 
    138 H138       -1.7349  -16.2165  -47.7174 H         1 UNK         0.1150 
    139 H139       -0.1480  -16.4263  -51.0504 H         1 UNK         0.0800 
    140 H140        0.1641  -16.1803  -49.3575 H         1 UNK         0.0800 
    141 H141       -0.4056  -17.9189  -47.5338 H         1 UNK         0.0800 
    142 H142        1.1566  -18.6004  -47.8634 H         1 UNK         0.0800 
    143 H143       -0.0366  -20.8313  -48.3192 H         1 UNK         0.0600 
    144 H144        0.6637  -19.7319  -45.7781 H         1 UNK         0.3000 
    145 H145        0.7248  -22.9712  -44.1752 H         1 UNK         0.0600 
    146 H146        2.9949  -22.1217  -43.7106 H         1 UNK         0.0600 
    147 H147        2.8664  -22.5541  -45.4087 H         1 UNK         0.0600 
    148 H148        2.8164  -20.8613  -44.9286 H         1 UNK         0.0600 
    149 H149        1.2055  -20.3997  -43.0904 H         1 UNK         0.3000 
    150 H150       -2.1471  -19.7693  -41.9415 H         1 UNK         0.0600 
    151 H151       -0.9760  -21.2752  -40.3098 H         1 UNK         0.0600 
    152 H152       -0.8811  -19.5871  -39.8314 H         1 UNK         0.0600 
    153 H153        0.5182  -20.3764  -40.5551 H         1 UNK         0.0600 
    154 H154        0.1444  -18.1691  -41.6565 H         1 UNK         0.3000 
    155 H155       -0.2679  -16.2264  -44.6723 H         1 UNK         0.0600 
    156 H156       -0.4514  -15.8218  -41.6383 H         1 UNK         0.0600 
    157 H157       -1.5831  -15.2499  -42.8490 H         1 UNK         0.0600 
    158 H158        0.0399  -14.5713  -42.7735 H         1 UNK         0.0600 
    159 H159        1.8666  -16.1455  -42.8592 H         1 UNK         0.3000 
    160 H160        4.0175  -18.5801  -44.3425 H         1 UNK         0.0600 
    161 H161        4.0749  -15.5177  -44.1499 H         1 UNK         0.0600 
    162 H162        4.3622  -16.4709  -45.5970 H         1 UNK         0.0600 
    163 H163        5.4918  -16.5627  -44.2546 H         1 UNK         0.0600 
    164 H164        4.1500  -16.8571  -42.0302 H         1 UNK         0.3000 
    165 H165        2.9657  -19.2641  -39.6700 H         1 UNK         0.0600 
    166 H166        5.1724  -18.7372  -38.6771 H         1 UNK         0.0600 
    167 H167        5.3772  -19.7850  -40.0717 H         1 UNK         0.0600 
    168 H168        5.7391  -18.0683  -40.2075 H         1 UNK         0.0600 
    169 H169        3.9268  -16.5716  -39.4192 H         1 UNK         0.3000 
    170 H170        0.8013  -14.9339  -39.8350 H         1 UNK         0.0600 
    171 H171        0.6593  -15.8263  -37.5029 H         1 UNK         0.0600 
    172 H172        2.3642  -15.4684  -37.2552 H         1 UNK         0.0600 
    173 H173        1.2120  -14.1600  -37.5260 H         1 UNK         0.0600 
    174 H174        3.2116  -13.8365  -38.9715 H         1 UNK         0.3000 
    175 H175        4.1869  -12.3170  -40.4409 H         1 UNK         0.0600 
    176 H176        5.9146  -14.6167  -41.5258 H         1 UNK         0.0600 
    177 H177        6.5190  -13.0778  -40.9121 H         1 UNK         0.0600 
    178 H178        5.7235  -14.2031  -39.8264 H         1 UNK         0.0600 
    179 H179        5.1940  -12.8514  -43.0589 H         1 UNK         0.3000 
    180 H180        4.2961  -10.3219  -44.3859 H         1 UNK         0.0600 
    181 H181        4.2923  -13.2405  -45.3222 H         1 UNK         0.0600 
    182 H182        5.6934  -12.2733  -44.8623 H         1 UNK         0.0600 
    183 H183        4.8026  -11.8818  -46.3166 H         1 UNK         0.0600 
    184 H184        2.0131  -11.9581  -45.3919 H         1 UNK         0.3000 
    185 H185        0.0003   -9.2606  -45.9880 H         1 UNK         0.0600 
    186 H186        1.4010   -8.4740  -47.8848 H         1 UNK         0.0600 
    187 H187        1.6954  -10.1335  -48.3896 H         1 UNK         0.0600 
    188 H188        0.0691   -9.4550  -48.4724 H         1 UNK         0.0600 
    189 H189        0.4201  -11.8944  -47.2526 H         1 UNK         0.3000 
    190 H190       -2.0332  -19.4881  -45.6380 H         1 UNK         0.3000 
    191 H191       -4.5206  -19.6130  -47.0106 H         1 UNK         0.0600 
    192 H192       -4.2187  -18.3234  -44.9277 H         1 UNK         0.0600 
    193 H193       -5.4917  -19.5135  -44.7107 H         1 UNK         0.0600 
    194 H194       -3.8990  -19.8011  -44.0187 H         1 UNK         0.0600 
    195 H195       -2.7022  -22.1148  -45.1872 H         1 UNK         0.3000 
    196 H196       -4.7454  -24.1311  -45.3383 H         1 UNK         0.0600 
    197 H197       -2.8781  -25.6706  -44.7305 H         1 UNK         0.0600 
    198 H198       -2.8983  -24.2493  -43.6977 H         1 UNK         0.0600 
    199 H199       -1.7110  -24.3807  -44.9927 H         1 UNK         0.0600 
    200 H200       -2.0856  -23.1660  -47.4975 H         1 UNK         0.3000 
    201 H201       -2.4503  -25.3204  -49.3952 H         1 UNK         0.0600 
    202 H202       -0.2609  -24.1868  -49.0260 H         1 UNK         0.0600 
    203 H203       -0.9357  -22.6671  -49.6127 H         1 UNK         0.0600 
    204 H204       -0.7720  -24.0362  -50.6990 H         1 UNK         0.0600 
    205 H205       -4.1377  -22.3594  -48.8788 H         1 UNK         0.3000 
    206 H206       -4.8169  -21.6997  -51.5586 H         1 UNK         0.0600 
    207 H207       -4.7503  -20.0130  -49.7541 H         1 UNK         0.0600 
    208 H208       -6.3452  -20.0591  -50.4802 H         1 UNK         0.0600 
    209 H209       -6.0828  -20.8129  -48.9195 H         1 UNK         0.0600 
    210 H210       -5.3643  -24.1419  -51.8731 H         1 UNK         0.3000 
    211 H211       -8.2848  -24.2618  -52.2983 H         1 UNK         0.0600 
    212 H212       -6.7042  -26.5372  -50.9750 H         1 UNK         0.0600 
    213 H213       -8.3978  -26.5999  -51.4553 H         1 UNK         0.0600 
    214 H214       -7.8966  -25.5257  -50.1608 H         1 UNK         0.0600 
    215 H215       -5.9698  -23.6054  -53.9167 H         1 UNK         0.3000 
    216 H216       -5.0626  -23.8730  -55.8692 H         1 UNK         0.0600 
    217 H217       -6.0777  -25.2234  -57.6396 H         1 UNK         0.0600 
    218 H218       -7.3653  -24.4985  -56.6949 H         1 UNK         0.0600 
    219 H219       -6.9592  -26.2012  -56.4800 H         1 UNK         0.0600 
    220 H220       -3.7778  -25.3594  -57.2930 H         1 UNK         0.3000 
    221 H221       -2.1361  -26.7060  -57.7625 H         1 UNK         0.0600 
    222 H222       -3.2238  -28.6431  -55.6562 H         1 UNK         0.0600 
    223 H223       -3.7010  -28.5763  -57.3513 H         1 UNK         0.0600 
    224 H224       -2.0602  -29.0265  -56.9145 H         1 UNK         0.0600 
    225 H225       -2.3932  -26.6747  -54.1952 H         1 UNK         0.3000 
    226 H226        0.4938  -26.7760  -53.7556 H         1 UNK         0.0600 
    227 H227       -1.0764  -27.7613  -52.1168 H         1 UNK         0.0600 
    228 H228       -0.1814  -26.4506  -51.3635 H         1 UNK         0.0600 
    229 H229       -1.8499  -26.1983  -51.8670 H         1 UNK         0.0600 
    230 H230       -1.8764  -24.2826  -54.3175 H         1 UNK         0.3000 
    231 H231        0.1518  -22.2317  -54.4845 H         1 UNK         0.0600 
    232 H232       -2.2824  -21.8851  -52.6205 H         1 UNK         0.0600 
    233 H233       -1.1468  -20.6145  -53.0595 H         1 UNK         0.0600 
    234 H234       -0.6044  -21.9670  -52.0870 H         1 UNK         0.0600 
    235 H235       -0.8789  -20.2882  -55.5673 H         1 UNK         0.3000 
    236 H236       -2.6900  -21.0672  -57.6950 H         1 UNK         0.0600 
    237 H237       -0.8527  -19.4312  -58.0549 H         1 UNK         0.0600 
    238 H238       -2.4092  -18.6882  -58.3854 H         1 UNK         0.0600 
    239 H239       -1.5725  -18.3293  -56.8799 H         1 UNK         0.0600 
    240 H240       -3.0659  -19.7260  -54.5272 H         1 UNK         0.3000 
    241 H241       -5.6338  -18.4829  -54.8517 H         1 UNK         0.0600 
    242 H242       -7.7473  -19.2896  -54.1593 H         1 UNK         0.3800 
    243 H243       -8.0238  -20.9989  -53.9888 H         1 UNK         0.3800 
    244 H244       -4.4412  -19.4466  -52.2000 H         1 UNK         0.0800 
    245 H245       -3.8041  -18.0696  -53.0319 H         1 UNK         0.0800 
    246 H246       -5.8161  -15.2265  -51.7771 H         1 UNK         0.0800 
    247 H247       -4.5483  -15.7602  -52.8456 H         1 UNK         0.0800 
@<TRIPOS>BOND
     1    1    2 1    
     2    1  127 1    
     3    1  128 1    
     4    1  129 1    
     5    2    3 2    
     6    2    4 am   BACKBONE|DICT|INTERRES
     7    4    5 1    
     8    4  130 1    
     9    5    6 1    
    10    5   65 1    
    11    5  131 1    
    12    6    7 1    
    13    6  132 1    
    14    6  133 1    
    15    7    8 1    
    16    8    9 1    
    17    8  134 1    
    18    8  135 1    
    19    9   10 ar   
    20    9   14 ar   
    21   10   11 ar   
    22   10  136 1    
    23   11   12 ar   
    24   11  126 1    
    25   12   13 ar   
    26   12  137 1    
    27   13   14 ar   
    28   13   15 1    
    29   14  138 1    
    30   15   16 1    
    31   15  139 1    
    32   15  140 1    
    33   16   17 1    
    34   17   18 1    
    35   17  141 1    
    36   17  142 1    
    37   18   19 1    
    38   18   67 1    
    39   18  143 1    
    40   19   20 am   BACKBONE|DICT|INTERRES
    41   19  144 1    
    42   20   21 2    
    43   20   22 1    
    44   22   23 1    
    45   22   24 1    
    46   22  145 1    
    47   23  146 1    
    48   23  147 1    
    49   23  148 1    
    50   24   25 am   BACKBONE|DICT|INTERRES
    51   24  149 1    
    52   25   26 2    
    53   25   27 1    
    54   27   28 1    
    55   27   29 1    
    56   27  150 1    
    57   28  151 1    
    58   28  152 1    
    59   28  153 1    
    60   29   30 am   BACKBONE|DICT|INTERRES
    61   29  154 1    
    62   30   31 2    
    63   30   32 1    
    64   32   33 1    
    65   32   34 1    
    66   32  155 1    
    67   33  156 1    
    68   33  157 1    
    69   33  158 1    
    70   34   35 am   BACKBONE|DICT|INTERRES
    71   34  159 1    
    72   35   36 2    
    73   35   37 1    
    74   37   38 1    
    75   37   39 1    
    76   37  160 1    
    77   38  161 1    
    78   38  162 1    
    79   38  163 1    
    80   39   40 am   BACKBONE|DICT|INTERRES
    81   39  164 1    
    82   40   41 2    
    83   40   42 1    
    84   42   43 1    
    85   42   44 1    
    86   42  165 1    
    87   43  166 1    
    88   43  167 1    
    89   43  168 1    
    90   44   45 am   BACKBONE|DICT|INTERRES
    91   44  169 1    
    92   45   46 2    
    93   45   47 1    
    94   47   48 1    
    95   47   49 1    
    96   47  170 1    
    97   48  171 1    
    98   48  172 1    
    99   48  173 1    
   100   49   50 am   BACKBONE|DICT|INTERRES
   101   49  174 1    
   102   50   51 2    
   103   50   52 1    
   104   52   53 1    
   105   52   54 1    
   106   52  175 1    
   107   53  176 1    
   108   53  177 1    
   109   53  178 1    
   110   54   55 am   BACKBONE|DICT|INTERRES
   111   54  179 1    
   112   55   56 2    
   113   55   57 1    
   114   57   58 1    
   115   57   59 1    
   116   57  180 1    
   117   58  181 1    
   118   58  182 1    
   119   58  183 1    
   120   59   60 am   BACKBONE|DICT|INTERRES
   121   59  184 1    
   122   60   61 2    
   123   60   62 1    
   124   62   63 1    
   125   62   64 1    
   126   62  185 1    
   127   63  186 1    
   128   63  187 1    
   129   63  188 1    
   130   64   65 am   BACKBONE|DICT|INTERRES
   131   64  189 1    
   132   65   66 2    
   133   67   68 2    
   134   67   69 am   BACKBONE|DICT|INTERRES
   135   69   70 1    
   136   69  190 1    
   137   70   71 1    
   138   70   72 1    
   139   70  191 1    
   140   71  192 1    
   141   71  193 1    
   142   71  194 1    
   143   72   73 2    
   144   72   74 am   BACKBONE|DICT|INTERRES
   145   74   75 1    
   146   74  195 1    
   147   75   76 1    
   148   75   77 1    
   149   75  196 1    
   150   76  197 1    
   151   76  198 1    
   152   76  199 1    
   153   77   78 2    
   154   77   79 am   BACKBONE|DICT|INTERRES
   155   79   80 1    
   156   79  200 1    
   157   80   81 1    
   158   80   82 1    
   159   80  201 1    
   160   81  202 1    
   161   81  203 1    
   162   81  204 1    
   163   82   83 2    
   164   82   84 am   BACKBONE|DICT|INTERRES
   165   84   85 1    
   166   84  205 1    
   167   85   86 1    
   168   85   87 1    
   169   85  206 1    
   170   86  207 1    
   171   86  208 1    
   172   86  209 1    
   173   87   88 2    
   174   87   89 am   BACKBONE|DICT|INTERRES
   175   89   90 1    
   176   89  210 1    
   177   90   91 1    
   178   90   92 1    
   179   90  211 1    
   180   91  212 1    
   181   91  213 1    
   182   91  214 1    
   183   92   93 2    
   184   92   94 am   BACKBONE|DICT|INTERRES
   185   94   95 1    
   186   94  215 1    
   187   95   96 1    
   188   95   97 1    
   189   95  216 1    
   190   96  217 1    
   191   96  218 1    
   192   96  219 1    
   193   97   98 2    
   194   97   99 am   BACKBONE|DICT|INTERRES
   195   99  100 1    
   196   99  220 1    
   197  100  101 1    
   198  100  102 1    
   199  100  221 1    
   200  101  222 1    
   201  101  223 1    
   202  101  224 1    
   203  102  103 2    
   204  102  104 am   BACKBONE|DICT|INTERRES
   205  104  105 1    
   206  104  225 1    
   207  105  106 1    
   208  105  107 1    
   209  105  226 1    
   210  106  227 1    
   211  106  228 1    
   212  106  229 1    
   213  107  108 2    
   214  107  109 am   BACKBONE|DICT|INTERRES
   215  109  110 1    
   216  109  230 1    
   217  110  111 1    
   218  110  112 1    
   219  110  231 1    
   220  111  232 1    
   221  111  233 1    
   222  111  234 1    
   223  112  113 2    
   224  112  114 am   BACKBONE|DICT|INTERRES
   225  114  115 1    
   226  114  235 1    
   227  115  116 1    
   228  115  117 1    
   229  115  236 1    
   230  116  237 1    
   231  116  238 1    
   232  116  239 1    
   233  117  118 2    
   234  117  119 am   BACKBONE|DICT|INTERRES
   235  119  120 1    
   236  119  240 1    
   237  120  121 1    
   238  120  124 1    
   239  120  241 1    
   240  121  122 am   BACKBONE|DICT|INTERRES
   241  121  123 2    
   242  122  242 1    
   243  122  243 1    
   244  124  125 1    
   245  124  244 1    
   246  124  245 1    
   247  125  126 1    
   248  126  246 1    
   249  126  247 1    
@<TRIPOS>SUBSTRUCTURE
     1 UNK         1 GROUP             0       ****    0 ROOT    
