@<TRIPOS>MOLECULE
3R540
247   249    1
SMALL
USER_CHARGES


@<TRIPOS>ATOM
      1 CA          7.6039  -11.4331  -52.3984 C.3       0 UNK        -0.1800 
      2 C           6.8238  -12.3811  -51.4981 C.2       0 UNK         0.5000 
      3 O           7.2968  -12.7252  -50.4145 O.2       0 UNK        -0.5000 
      4 N           5.6382  -12.8104  -51.9458 N.am      1 UNK        -0.5000 
      5 CA          4.7255  -13.6830  -51.2025 C.3       1 UNK         0.1400 
      6 C6          3.5806  -14.2143  -52.0975 C.3       23 UNK        -0.0398 
      7 S7          4.1504  -15.3431  -53.4156 S.3       23 UNK        -0.2404 
      8 C8          4.6289  -16.8514  -52.4983 C.3       23 UNK        -0.0205 
      9 C9          3.6325  -17.2448  -51.4151 C.ar      23 UNK        -0.0193 
     10 C10         2.3013  -17.5242  -51.7459 C.ar      23 UNK        -0.1150 
     11 C11         1.3734  -17.8258  -50.7459 C.ar      23 UNK        -0.0193 
     12 C12         1.7877  -17.8532  -49.4154 C.ar      23 UNK        -0.1150 
     13 C13         3.1243  -17.6415  -49.0752 C.ar      23 UNK        -0.0193 
     14 C14         4.0426  -17.3218  -50.0785 C.ar      23 UNK        -0.1150 
     15 C15         3.5605  -17.7830  -47.6234 C.3       23 UNK        -0.0205 
     16 S16         4.2356  -19.4380  -47.2424 S.3       23 UNK        -0.2404 
     17 C17         2.9901  -20.5453  -47.9835 C.3       23 UNK        -0.0398 
     18 CA          2.9658  -21.9662  -47.3752 C.3       11 UNK         0.1400 
     19 N           2.4320  -21.9741  -46.0075 N.am      11 UNK        -0.5000 
     20 C           2.4202  -23.0354  -45.1872 C.2       10 UNK         0.5000 
     21 O           2.8362  -24.1501  -45.5039 O.2       10 UNK        -0.5000 
     22 CA          1.8397  -22.8204  -43.7797 C.3       10 UNK         0.1400 
     23 CB          2.8140  -22.0213  -42.8991 C.3       10 UNK        -0.1800 
     24 N           0.5570  -22.1230  -43.8455 N.am      10 UNK        -0.5000 
     25 C          -0.6392  -22.7273  -43.8176 C.2       9 UNK         0.5000 
     26 O          -0.7876  -23.9378  -43.6533 O.2       9 UNK        -0.5000 
     27 CA         -1.8922  -21.8463  -44.0071 C.3       9 UNK         0.1400 
     28 CB         -2.5626  -21.5571  -42.6564 C.3       9 UNK        -0.1800 
     29 N          -1.6345  -20.5819  -44.6954 N.am      9 UNK        -0.5000 
     30 C          -1.2267  -20.4824  -45.9666 C.2       8 UNK         0.5000 
     31 O          -1.0833  -21.4491  -46.7112 O.2       8 UNK        -0.5000 
     32 CA         -0.8400  -19.0853  -46.4757 C.3       8 UNK         0.1400 
     33 CB         -2.0354  -18.3808  -47.1292 C.3       8 UNK        -0.1800 
     34 N          -0.2588  -18.2250  -45.4435 N.am      8 UNK        -0.5000 
     35 C           0.8658  -18.4886  -44.7631 C.2       7 UNK         0.5000 
     36 O           1.5370  -19.5056  -44.9339 O.2       7 UNK        -0.5000 
     37 CA          1.2809  -17.4810  -43.6799 C.3       7 UNK         0.1400 
     38 CB          1.9566  -16.2462  -44.2909 C.3       7 UNK        -0.1800 
     39 N           0.1269  -17.0606  -42.8904 N.am      7 UNK        -0.5000 
     40 C          -0.3557  -17.7387  -41.8410 C.2       6 UNK         0.5000 
     41 O           0.1586  -18.7629  -41.3912 O.2       6 UNK        -0.5000 
     42 CA         -1.6395  -17.1874  -41.1904 C.3       6 UNK         0.1400 
     43 CB         -1.2922  -16.2012  -40.0650 C.3       6 UNK        -0.1800 
     44 N          -2.5368  -16.5305  -42.1435 N.am      6 UNK        -0.5000 
     45 C          -3.1721  -17.1616  -43.1399 C.2       5 UNK         0.5000 
     46 O          -3.0659  -18.3664  -43.3625 O.2       5 UNK        -0.5000 
     47 CA         -4.0291  -16.2901  -44.0762 C.3       5 UNK         0.1400 
     48 CB         -5.4390  -16.1009  -43.4982 C.3       5 UNK        -0.1800 
     49 N          -3.4443  -14.9801  -44.3850 N.am      5 UNK        -0.5000 
     50 C          -2.2499  -14.7957  -44.9622 C.2       4 UNK         0.5000 
     51 O          -1.4518  -15.7068  -45.1906 O.2       4 UNK        -0.5000 
     52 CA         -1.8643  -13.3587  -45.3257 C.3       4 UNK         0.1400 
     53 CB         -1.0057  -12.7338  -44.2151 C.3       4 UNK        -0.1800 
     54 N          -1.0897  -13.4072  -46.5597 N.am      4 UNK        -0.5000 
     55 C          -1.2683  -12.6400  -47.6376 C.2       3 UNK         0.5000 
     56 O          -2.0772  -11.7112  -47.6854 O.2       3 UNK        -0.5000 
     57 CA         -0.3716  -12.9603  -48.8539 C.3       3 UNK         0.1400 
     58 CB         -0.7106  -12.1031  -50.0867 C.3       3 UNK        -0.1800 
     59 N           1.0485  -12.7867  -48.5462 N.am      3 UNK        -0.5000 
     60 C           1.8034  -13.6407  -47.8462 C.2       2 UNK         0.5000 
     61 O           1.3863  -14.7079  -47.3947 O.2       2 UNK        -0.5000 
     62 CA          3.2802  -13.2497  -47.6733 C.3       2 UNK         0.1400 
     63 CB          3.9144  -13.8837  -46.4236 C.3       2 UNK        -0.1800 
     64 N           4.0147  -13.6773  -48.8600 N.am      2 UNK        -0.5000 
     65 C           4.1240  -12.9578  -49.9829 C.2       1 UNK         0.5000 
     66 O           3.7207  -11.7971  -50.0959 O.2       1 UNK        -0.5000 
     67 C           2.1911  -22.9062  -48.3216 C.2       11 UNK         0.5000 
     68 O           2.8116  -23.6005  -49.1278 O.2       11 UNK        -0.5000 
     69 N           0.8584  -22.9034  -48.2125 N.am      12 UNK        -0.5000 
     70 CA         -0.0616  -23.6832  -49.0297 C.3       12 UNK         0.1400 
     71 CB         -0.8772  -22.7276  -49.9210 C.3       12 UNK        -0.1800 
     72 C          -0.9389  -24.5262  -48.0952 C.2       12 UNK         0.5000 
     73 O          -2.1657  -24.4246  -48.1286 O.2       12 UNK        -0.5000 
     74 N          -0.2909  -25.3549  -47.2657 N.am      13 UNK        -0.5000 
     75 CA         -0.9231  -26.2194  -46.2625 C.3       13 UNK         0.1400 
     76 CB          0.1735  -26.9104  -45.4389 C.3       13 UNK        -0.1800 
     77 C          -1.9131  -27.2568  -46.8333 C.2       13 UNK         0.5000 
     78 O          -2.8007  -27.7032  -46.1066 O.2       13 UNK        -0.5000 
     79 N          -1.7681  -27.5987  -48.1220 N.am      14 UNK        -0.5000 
     80 CA         -2.7077  -28.4327  -48.8744 C.3       14 UNK         0.1400 
     81 CB         -2.0624  -28.8427  -50.2069 C.3       14 UNK        -0.1800 
     82 C          -4.0620  -27.7356  -49.1197 C.2       14 UNK         0.5000 
     83 O          -5.0951  -28.4058  -49.1182 O.2       14 UNK        -0.5000 
     84 N          -4.0348  -26.4084  -49.3086 N.am      15 UNK        -0.5000 
     85 CA         -5.2242  -25.5584  -49.3816 C.3       15 UNK         0.1400 
     86 CB         -4.9135  -24.3121  -50.2297 C.3       15 UNK        -0.1800 
     87 C          -5.6957  -25.1484  -47.9753 C.2       15 UNK         0.5000 
     88 O          -6.9011  -25.0916  -47.7339 O.2       15 UNK        -0.5000 
     89 N          -4.7240  -24.8873  -47.0866 N.am      16 UNK        -0.5000 
     90 CA         -4.8616  -24.3726  -45.7225 C.3       16 UNK         0.1400 
     91 CB         -5.6419  -25.3524  -44.8221 C.3       16 UNK        -0.1800 
     92 C          -5.4257  -22.9376  -45.7217 C.2       16 UNK         0.5000 
     93 O          -6.3484  -22.6327  -44.9638 O.2       16 UNK        -0.5000 
     94 N          -4.8452  -22.0974  -46.5946 N.am      17 UNK        -0.5000 
     95 CA         -5.2543  -20.7292  -46.9342 C.3       17 UNK         0.1400 
     96 CB         -5.2474  -19.8162  -45.6892 C.3       17 UNK        -0.1800 
     97 C          -6.5998  -20.6785  -47.6918 C.2       17 UNK         0.5000 
     98 O          -7.1600  -21.7205  -48.0374 O.2       17 UNK        -0.5000 
     99 N          -7.0686  -19.4549  -47.9817 N.am      18 UNK        -0.5000 
    100 CA        -8.3197  -19.0753  -48.6602 C.3       18 UNK         0.1400 
    101 CB        -9.5539  -19.5552  -47.8723 C.3       18 UNK        -0.1800 
    102 C         -8.4042  -19.4933  -50.1426 C.2       18 UNK         0.5000 
    103 O         -8.6387  -18.6430  -51.0011 O.2       18 UNK        -0.5000 
    104 N         -8.1906  -20.7837  -50.4168 N.am      19 UNK        -0.5000 
    105 CA        -8.1256  -21.3792  -51.7523 C.3       19 UNK         0.1400 
    106 CB        -8.6199  -22.8326  -51.6624 C.3       19 UNK        -0.1800 
    107 C         -6.7095  -21.3114  -52.3624 C.2       19 UNK         0.5000 
    108 O         -6.5296  -21.7049  -53.5159 O.2       19 UNK        -0.5000 
    109 N         -5.7301  -20.8301  -51.5833 N.am      20 UNK        -0.5000 
    110 CA        -4.3455  -20.6072  -51.9952 C.3       20 UNK         0.1400 
    111 CB        -3.5196  -20.2348  -50.7540 C.3       20 UNK        -0.1800 
    112 C         -4.2337  -19.5091  -53.0716 C.2       20 UNK         0.5000 
    113 O         -5.0116  -18.5516  -53.0573 O.2       20 UNK        -0.5000 
    114 N         -3.2445  -19.6516  -53.9644 N.am      21 UNK        -0.5000 
    115 CA        -3.0231  -18.7955  -55.1383 C.3       21 UNK         0.1400 
    116 CB        -1.8617  -19.3759  -55.9603 C.3       21 UNK        -0.1800 
    117 C         -2.7639  -17.3073  -54.8257 C.2       21 UNK         0.5000 
    118 O         -3.0264  -16.4550  -55.6752 O.2       21 UNK        -0.5000 
    119 N         -2.2671  -17.0253  -53.6170 N.am      22 UNK        -0.5000 
    120 CA        -2.0871  -15.6752  -53.0652 C.3       22 UNK         0.1400 
    121 C         -3.3965  -15.0067  -52.5453 C.2       22 UNK         0.5000 
    122 N         -4.5297  -15.6977  -52.4820 N.am      22 UNK        -0.7600 
    123 O         -3.3871  -13.8261  -52.2087 O.2       22 UNK        -0.5000 
    124 C124       -0.9523  -15.6453  -52.0084 C.3       23 UNK        -0.0398 
    125 S125       -1.2084  -16.8167  -50.6286 S.3       23 UNK        -0.2404 
    126 C126       -0.0696  -18.1610  -51.0845 C.3       23 UNK        -0.0205 
    127 H127        8.5717  -11.8665  -52.6510 H         1 UNK         0.0600 
    128 H128        7.7760  -10.4863  -51.8865 H         1 UNK         0.0600 
    129 H129        7.0717  -11.2256  -53.3271 H         1 UNK         0.0600 
    130 H130        5.2994  -12.4858  -52.8399 H         1 UNK         0.3000 
    131 H131        5.3049  -14.5331  -50.8369 H         1 UNK         0.0600 
    132 H132        2.8178  -14.7226  -51.5056 H         1 UNK         0.0800 
    133 H133        3.0607  -13.3814  -52.5745 H         1 UNK         0.0800 
    134 H134        5.6207  -16.6971  -52.0709 H         1 UNK         0.0800 
    135 H135        4.7288  -17.6764  -53.2047 H         1 UNK         0.0800 
    136 H136        1.9885  -17.4890  -52.7800 H         1 UNK         0.1150 
    137 H137        1.0662  -18.0655  -48.6436 H         1 UNK         0.1150 
    138 H138        5.0761  -17.1426  -49.8171 H         1 UNK         0.1150 
    139 H139        4.3220  -17.0383  -47.3933 H         1 UNK         0.0800 
    140 H140        2.7178  -17.5774  -46.9632 H         1 UNK         0.0800 
    141 H141        3.2032  -20.5805  -49.0544 H         1 UNK         0.0800 
    142 H142        2.0039  -20.0956  -47.8795 H         1 UNK         0.0800 
    143 H143        3.9922  -22.3364  -47.3282 H         1 UNK         0.0600 
    144 H144        2.1084  -21.0778  -45.6495 H         1 UNK         0.3000 
    145 H145        1.7094  -23.8018  -43.3186 H         1 UNK         0.0600 
    146 H146        2.4208  -21.9006  -41.8895 H         1 UNK         0.0600 
    147 H147        3.7728  -22.5343  -42.8160 H         1 UNK         0.0600 
    148 H148        3.0092  -21.0267  -43.3007 H         1 UNK         0.0600 
    149 H149        0.5981  -21.1264  -44.0209 H         1 UNK         0.3000 
    150 H150       -2.5928  -22.4158  -44.6181 H         1 UNK         0.0600 
    151 H151       -2.7641  -22.4799  -42.1108 H         1 UNK         0.0600 
    152 H152       -3.5168  -21.0479  -42.7930 H         1 UNK         0.0600 
    153 H153       -1.9340  -20.9286  -42.0240 H         1 UNK         0.0600 
    154 H154       -1.7987  -19.7322  -44.1647 H         1 UNK         0.3000 
    155 H155       -0.0816  -19.2372  -47.2407 H         1 UNK         0.0600 
    156 H156       -2.8367  -18.2087  -46.4125 H         1 UNK         0.0600 
    157 H157       -2.4403  -18.9757  -47.9485 H         1 UNK         0.0600 
    158 H158       -1.7437  -17.4152  -47.5433 H         1 UNK         0.0600 
    159 H159       -0.7370  -17.3421  -45.2716 H         1 UNK         0.3000 
    160 H160        2.0079  -17.9695  -43.0273 H         1 UNK         0.0600 
    161 H161        1.2933  -15.7209  -44.9775 H         1 UNK         0.0600 
    162 H162        2.8534  -16.5270  -44.8426 H         1 UNK         0.0600 
    163 H163        2.2615  -15.5406  -43.5182 H         1 UNK         0.0600 
    164 H164       -0.3957  -16.2694  -43.2403 H         1 UNK         0.3000 
    165 H165       -2.1747  -18.0326  -40.7520 H         1 UNK         0.0600 
    166 H166       -2.1887  -15.8665  -39.5429 H         1 UNK         0.0600 
    167 H167       -0.6413  -16.6677  -39.3243 H         1 UNK         0.0600 
    168 H168       -0.7759  -15.3197  -40.4471 H         1 UNK         0.0600 
    169 H169       -2.6699  -15.5355  -42.0389 H         1 UNK         0.3000 
    170 H170       -4.1257  -16.8280  -45.0200 H         1 UNK         0.0600 
    171 H171       -5.9043  -17.0639  -43.2822 H         1 UNK         0.0600 
    172 H172       -5.4210  -15.5287  -42.5698 H         1 UNK         0.0600 
    173 H173       -6.0880  -15.5800  -44.2023 H         1 UNK         0.0600 
    174 H174       -4.0310  -14.1770  -44.2095 H         1 UNK         0.3000 
    175 H175       -2.7740  -12.7704  -45.4622 H         1 UNK         0.0600 
    176 H176       -0.0928  -13.3059  -44.0418 H         1 UNK         0.0600 
    177 H177       -0.7166  -11.7142  -44.4703 H         1 UNK         0.0600 
    178 H178       -1.5531  -12.6912  -43.2728 H         1 UNK         0.0600 
    179 H179       -0.4156  -14.1666  -46.6160 H         1 UNK         0.3000 
    180 H180       -0.5469  -14.0056  -49.1181 H         1 UNK         0.0600 
    181 H181       -0.5670  -11.0397  -49.8912 H         1 UNK         0.0600 
    182 H182       -1.7492  -12.2464  -50.3878 H         1 UNK         0.0600 
    183 H183       -0.0866  -12.3720  -50.9391 H         1 UNK         0.0600 
    184 H184        1.4809  -11.9436  -48.8984 H         1 UNK         0.3000 
    185 H185        3.3428  -12.1650  -47.5609 H         1 UNK         0.0600 
    186 H186        3.3748  -13.5889  -45.5228 H         1 UNK         0.0600 
    187 H187        3.9041  -14.9714  -46.4677 H         1 UNK         0.0600 
    188 H188        4.9495  -13.5641  -46.3028 H         1 UNK         0.0600 
    189 H189        4.3337  -14.6349  -48.8573 H         1 UNK         0.3000 
    190 H190        0.4069  -22.3331  -47.5014 H         1 UNK         0.3000 
    191 H191        0.4766  -24.3787  -49.6764 H         1 UNK         0.0600 
    192 H192       -1.5750  -23.2781  -50.5530 H         1 UNK         0.0600 
    193 H193       -0.2265  -22.1515  -50.5788 H         1 UNK         0.0600 
    194 H194       -1.4571  -22.0221  -49.3257 H         1 UNK         0.0600 
    195 H195        0.7192  -25.3574  -47.2855 H         1 UNK         0.3000 
    196 H196       -1.4978  -25.5755  -45.5951 H         1 UNK         0.0600 
    197 H197       -0.2593  -27.5439  -44.6636 H         1 UNK         0.0600 
    198 H198        0.8084  -26.1783  -44.9389 H         1 UNK         0.0600 
    199 H199        0.8096  -27.5393  -46.0627 H         1 UNK         0.0600 
    200 H200       -0.9953  -27.2041  -48.6369 H         1 UNK         0.3000 
    201 H201       -2.8997  -29.3383  -48.2950 H         1 UNK         0.0600 
    202 H202       -1.1393  -29.3993  -50.0434 H         1 UNK         0.0600 
    203 H203       -1.8277  -27.9756  -50.8255 H         1 UNK         0.0600 
    204 H204       -2.7304  -29.4852  -50.7821 H         1 UNK         0.0600 
    205 H205       -3.1479  -25.9263  -49.2425 H         1 UNK         0.3000 
    206 H206       -6.0363  -26.1040  -49.8668 H         1 UNK         0.0600 
    207 H207       -4.6615  -24.5845  -51.2545 H         1 UNK         0.0600 
    208 H208       -5.7743  -23.6450  -50.2716 H         1 UNK         0.0600 
    209 H209       -4.0827  -23.7358  -49.8229 H         1 UNK         0.0600 
    210 H210       -3.7692  -24.9099  -47.4371 H         1 UNK         0.3000 
    211 H211       -3.8487  -24.3080  -45.3238 H         1 UNK         0.0600 
    212 H212       -6.6898  -25.4296  -45.1124 H         1 UNK         0.0600 
    213 H213       -5.6159  -25.0267  -43.7817 H         1 UNK         0.0600 
    214 H214       -5.2075  -26.3516  -44.8609 H         1 UNK         0.0600 
    215 H215       -4.1120  -22.4792  -47.1760 H         1 UNK         0.3000 
    216 H216       -4.4953  -20.3595  -47.6241 H         1 UNK         0.0600 
    217 H217       -5.2946  -18.7639  -45.9676 H         1 UNK         0.0600 
    218 H218       -4.3382  -19.9532  -45.1066 H         1 UNK         0.0600 
    219 H219       -6.0938  -20.0145  -45.0314 H         1 UNK         0.0600 
    220 H220       -6.5095  -18.6668  -47.6872 H         1 UNK         0.3000 
    221 H221       -8.3376  -17.9843  -48.6471 H         1 UNK         0.0600 
    222 H222       -9.6184  -20.6428  -47.8311 H         1 UNK         0.0600 
    223 H223       -9.5352  -19.1830  -46.8480 H         1 UNK         0.0600 
    224 H224      -10.4738  -19.1930  -48.3329 H         1 UNK         0.0600 
    225 H225       -7.9647  -21.3906  -49.6300 H         1 UNK         0.3000 
    226 H226       -8.7927  -20.8351  -52.4240 H         1 UNK         0.0600 
    227 H227       -8.5912  -23.3208  -52.6374 H         1 UNK         0.0600 
    228 H228       -9.6512  -22.8737  -51.3115 H         1 UNK         0.0600 
    229 H229       -8.0128  -23.4255  -50.9785 H         1 UNK         0.0600 
    230 H230       -5.9888  -20.4970  -50.6685 H         1 UNK         0.3000 
    231 H231       -3.9626  -21.5448  -52.4038 H         1 UNK         0.0600 
    232 H232       -2.4637  -20.1373  -51.0052 H         1 UNK         0.0600 
    233 H233       -3.5989  -21.0013  -49.9831 H         1 UNK         0.0600 
    234 H234       -3.8436  -19.2869  -50.3216 H         1 UNK         0.0600 
    235 H235       -2.6402  -20.4572  -53.8905 H         1 UNK         0.3000 
    236 H236       -3.9278  -18.8404  -55.7481 H         1 UNK         0.0600 
    237 H237       -0.9330  -19.3905  -55.3885 H         1 UNK         0.0600 
    238 H238       -2.0754  -20.3953  -56.2825 H         1 UNK         0.0600 
    239 H239       -1.6839  -18.7845  -56.8596 H         1 UNK         0.0600 
    240 H240       -2.1168  -17.7852  -52.9718 H         1 UNK         0.3000 
    241 H241       -1.7564  -15.0350  -53.8853 H         1 UNK         0.0600 
    242 H242       -5.3635  -15.2402  -52.1512 H         1 UNK         0.3800 
    243 H243       -4.5740  -16.6754  -52.7527 H         1 UNK         0.3800 
    244 H244       -0.8394  -14.6436  -51.5938 H         1 UNK         0.0800 
    245 H245       -0.0001  -15.8606  -52.4937 H         1 UNK         0.0800 
    246 H246       -0.3559  -19.0598  -50.5368 H         1 UNK         0.0800 
    247 H247       -0.1738  -18.4033  -52.1427 H         1 UNK         0.0800 
@<TRIPOS>BOND
     1    1    2 1    
     2    1  127 1    
     3    1  128 1    
     4    1  129 1    
     5    2    3 2    
     6    2    4 am   BACKBONE|DICT|INTERRES
     7    4    5 1    
     8    4  130 1    
     9    5    6 1    
    10    5   65 1    
    11    5  131 1    
    12    6    7 1    
    13    6  132 1    
    14    6  133 1    
    15    7    8 1    
    16    8    9 1    
    17    8  134 1    
    18    8  135 1    
    19    9   10 ar   
    20    9   14 ar   
    21   10   11 ar   
    22   10  136 1    
    23   11   12 ar   
    24   11  126 1    
    25   12   13 ar   
    26   12  137 1    
    27   13   14 ar   
    28   13   15 1    
    29   14  138 1    
    30   15   16 1    
    31   15  139 1    
    32   15  140 1    
    33   16   17 1    
    34   17   18 1    
    35   17  141 1    
    36   17  142 1    
    37   18   19 1    
    38   18   67 1    
    39   18  143 1    
    40   19   20 am   BACKBONE|DICT|INTERRES
    41   19  144 1    
    42   20   21 2    
    43   20   22 1    
    44   22   23 1    
    45   22   24 1    
    46   22  145 1    
    47   23  146 1    
    48   23  147 1    
    49   23  148 1    
    50   24   25 am   BACKBONE|DICT|INTERRES
    51   24  149 1    
    52   25   26 2    
    53   25   27 1    
    54   27   28 1    
    55   27   29 1    
    56   27  150 1    
    57   28  151 1    
    58   28  152 1    
    59   28  153 1    
    60   29   30 am   BACKBONE|DICT|INTERRES
    61   29  154 1    
    62   30   31 2    
    63   30   32 1    
    64   32   33 1    
    65   32   34 1    
    66   32  155 1    
    67   33  156 1    
    68   33  157 1    
    69   33  158 1    
    70   34   35 am   BACKBONE|DICT|INTERRES
    71   34  159 1    
    72   35   36 2    
    73   35   37 1    
    74   37   38 1    
    75   37   39 1    
    76   37  160 1    
    77   38  161 1    
    78   38  162 1    
    79   38  163 1    
    80   39   40 am   BACKBONE|DICT|INTERRES
    81   39  164 1    
    82   40   41 2    
    83   40   42 1    
    84   42   43 1    
    85   42   44 1    
    86   42  165 1    
    87   43  166 1    
    88   43  167 1    
    89   43  168 1    
    90   44   45 am   BACKBONE|DICT|INTERRES
    91   44  169 1    
    92   45   46 2    
    93   45   47 1    
    94   47   48 1    
    95   47   49 1    
    96   47  170 1    
    97   48  171 1    
    98   48  172 1    
    99   48  173 1    
   100   49   50 am   BACKBONE|DICT|INTERRES
   101   49  174 1    
   102   50   51 2    
   103   50   52 1    
   104   52   53 1    
   105   52   54 1    
   106   52  175 1    
   107   53  176 1    
   108   53  177 1    
   109   53  178 1    
   110   54   55 am   BACKBONE|DICT|INTERRES
   111   54  179 1    
   112   55   56 2    
   113   55   57 1    
   114   57   58 1    
   115   57   59 1    
   116   57  180 1    
   117   58  181 1    
   118   58  182 1    
   119   58  183 1    
   120   59   60 am   BACKBONE|DICT|INTERRES
   121   59  184 1    
   122   60   61 2    
   123   60   62 1    
   124   62   63 1    
   125   62   64 1    
   126   62  185 1    
   127   63  186 1    
   128   63  187 1    
   129   63  188 1    
   130   64   65 am   BACKBONE|DICT|INTERRES
   131   64  189 1    
   132   65   66 2    
   133   67   68 2    
   134   67   69 am   BACKBONE|DICT|INTERRES
   135   69   70 1    
   136   69  190 1    
   137   70   71 1    
   138   70   72 1    
   139   70  191 1    
   140   71  192 1    
   141   71  193 1    
   142   71  194 1    
   143   72   73 2    
   144   72   74 am   BACKBONE|DICT|INTERRES
   145   74   75 1    
   146   74  195 1    
   147   75   76 1    
   148   75   77 1    
   149   75  196 1    
   150   76  197 1    
   151   76  198 1    
   152   76  199 1    
   153   77   78 2    
   154   77   79 am   BACKBONE|DICT|INTERRES
   155   79   80 1    
   156   79  200 1    
   157   80   81 1    
   158   80   82 1    
   159   80  201 1    
   160   81  202 1    
   161   81  203 1    
   162   81  204 1    
   163   82   83 2    
   164   82   84 am   BACKBONE|DICT|INTERRES
   165   84   85 1    
   166   84  205 1    
   167   85   86 1    
   168   85   87 1    
   169   85  206 1    
   170   86  207 1    
   171   86  208 1    
   172   86  209 1    
   173   87   88 2    
   174   87   89 am   BACKBONE|DICT|INTERRES
   175   89   90 1    
   176   89  210 1    
   177   90   91 1    
   178   90   92 1    
   179   90  211 1    
   180   91  212 1    
   181   91  213 1    
   182   91  214 1    
   183   92   93 2    
   184   92   94 am   BACKBONE|DICT|INTERRES
   185   94   95 1    
   186   94  215 1    
   187   95   96 1    
   188   95   97 1    
   189   95  216 1    
   190   96  217 1    
   191   96  218 1    
   192   96  219 1    
   193   97   98 2    
   194   97   99 am   BACKBONE|DICT|INTERRES
   195   99  100 1    
   196   99  220 1    
   197  100  101 1    
   198  100  102 1    
   199  100  221 1    
   200  101  222 1    
   201  101  223 1    
   202  101  224 1    
   203  102  103 2    
   204  102  104 am   BACKBONE|DICT|INTERRES
   205  104  105 1    
   206  104  225 1    
   207  105  106 1    
   208  105  107 1    
   209  105  226 1    
   210  106  227 1    
   211  106  228 1    
   212  106  229 1    
   213  107  108 2    
   214  107  109 am   BACKBONE|DICT|INTERRES
   215  109  110 1    
   216  109  230 1    
   217  110  111 1    
   218  110  112 1    
   219  110  231 1    
   220  111  232 1    
   221  111  233 1    
   222  111  234 1    
   223  112  113 2    
   224  112  114 am   BACKBONE|DICT|INTERRES
   225  114  115 1    
   226  114  235 1    
   227  115  116 1    
   228  115  117 1    
   229  115  236 1    
   230  116  237 1    
   231  116  238 1    
   232  116  239 1    
   233  117  118 2    
   234  117  119 am   BACKBONE|DICT|INTERRES
   235  119  120 1    
   236  119  240 1    
   237  120  121 1    
   238  120  124 1    
   239  120  241 1    
   240  121  122 am   BACKBONE|DICT|INTERRES
   241  121  123 2    
   242  122  242 1    
   243  122  243 1    
   244  124  125 1    
   245  124  244 1    
   246  124  245 1    
   247  125  126 1    
   248  126  246 1    
   249  126  247 1    
@<TRIPOS>SUBSTRUCTURE
     1 UNK         1 GROUP             0       ****    0 ROOT    
