@<TRIPOS>MOLECULE
3R540
247   249    1
SMALL
USER_CHARGES


@<TRIPOS>ATOM
      1 CA         -2.0309   -8.2834  -49.4483 C.3       0 UNK        -0.1800 
      2 C          -1.2880   -9.6007  -49.6196 C.2       0 UNK         0.5000 
      3 O          -0.6980   -9.8380  -50.6735 O.2       0 UNK        -0.5000 
      4 N          -1.3156  -10.4566  -48.5888 N.am      1 UNK        -0.5000 
      5 CA         -0.6413  -11.7619  -48.5622 C.3       1 UNK         0.1400 
      6 C6         -1.2247  -12.6635  -47.4420 C.3       23 UNK        -0.0398 
      7 S7         -1.0085  -14.4530  -47.7289 S.3       23 UNK        -0.2404 
      8 C8         -2.2325  -14.7454  -49.0495 C.3       23 UNK        -0.0205 
      9 C9         -2.4831  -16.2281  -49.2864 C.ar      23 UNK        -0.0193 
     10 C10        -3.7691  -16.7574  -49.1340 C.ar      23 UNK        -0.1150 
     11 C11        -4.0150  -18.1150  -49.3604 C.ar      23 UNK        -0.0193 
     12 C12        -2.9482  -18.9489  -49.7116 C.ar      23 UNK        -0.1150 
     13 C13        -1.6604  -18.4341  -49.8784 C.ar      23 UNK        -0.0193 
     14 C14        -1.4376  -17.0687  -49.6811 C.ar      23 UNK        -0.1150 
     15 C15        -0.5239  -19.3635  -50.2839 C.3       23 UNK        -0.0205 
     16 S16         0.9017  -19.3358  -49.1477 S.3       23 UNK        -0.2404 
     17 C17         0.1413  -19.5084  -47.5000 C.3       23 UNK        -0.0398 
     18 CA         -0.1635  -20.9753  -47.0961 C.3       11 UNK         0.1400 
     19 N           0.1553  -21.2271  -45.6877 N.am      11 UNK        -0.5000 
     20 C           0.0958  -22.4174  -45.0752 C.2       10 UNK         0.5000 
     21 O          -0.1691  -23.4712  -45.6535 O.2       10 UNK        -0.5000 
     22 CA          0.3084  -22.4185  -43.5486 C.3       10 UNK         0.1400 
     23 CB          1.8031  -22.4398  -43.1964 C.3       10 UNK        -0.1800 
     24 N          -0.3416  -21.2798  -42.8936 N.am      10 UNK        -0.5000 
     25 C          -1.6695  -21.0942  -42.8586 C.2       9 UNK         0.5000 
     26 O          -2.4790  -21.9008  -43.3133 O.2       9 UNK        -0.5000 
     27 CA         -2.1834  -19.7695  -42.2667 C.3       9 UNK         0.1400 
     28 CB         -2.2400  -19.8413  -40.7340 C.3       9 UNK        -0.1800 
     29 N          -1.3894  -18.6139  -42.6886 N.am      9 UNK        -0.5000 
     30 C          -1.2813  -18.1931  -43.9581 C.2       8 UNK         0.5000 
     31 O          -1.8866  -18.7061  -44.8978 O.2       8 UNK        -0.5000 
     32 CA         -0.2871  -17.0518  -44.2394 C.3       8 UNK         0.1400 
     33 CB         -0.9167  -15.6835  -43.9407 C.3       8 UNK        -0.1800 
     34 N           0.9553  -17.1958  -43.4821 N.am      8 UNK        -0.5000 
     35 C           1.8184  -18.2124  -43.6077 C.2       7 UNK         0.5000 
     36 O           1.6850  -19.1250  -44.4207 O.2       7 UNK        -0.5000 
     37 CA          2.9925  -18.2507  -42.6161 C.3       7 UNK         0.1400 
     38 CB          4.1160  -17.2913  -43.0356 C.3       7 UNK        -0.1800 
     39 N           2.5612  -17.9398  -41.2545 N.am      7 UNK        -0.5000 
     40 C           1.8043  -18.7470  -40.4992 C.2       6 UNK         0.5000 
     41 O           1.4164  -19.8575  -40.8631 O.2       6 UNK        -0.5000 
     42 CA          1.3891  -18.2074  -39.1178 C.3       6 UNK         0.1400 
     43 CB          2.4898  -18.4739  -38.0803 C.3       6 UNK        -0.1800 
     44 N           1.0789  -16.7760  -39.1386 N.am      6 UNK        -0.5000 
     45 C           0.0119  -16.2470  -39.7534 C.2       5 UNK         0.5000 
     46 O          -0.8288  -16.9131  -40.3560 O.2       5 UNK        -0.5000 
     47 CA         -0.1091  -14.7109  -39.7357 C.3       5 UNK         0.1400 
     48 CB         -0.7227  -14.2313  -38.4117 C.3       5 UNK        -0.1800 
     49 N           1.1564  -14.0056  -39.9721 N.am      5 UNK        -0.5000 
     50 C           1.9268  -14.1697  -41.0552 C.2       4 UNK         0.5000 
     51 O           1.6995  -15.0079  -41.9288 O.2       4 UNK        -0.5000 
     52 CA          3.1812  -13.2830  -41.1652 C.3       4 UNK         0.1400 
     53 CB          4.3196  -13.8678  -40.3144 C.3       4 UNK        -0.1800 
     54 N           3.6397  -13.1795  -42.5525 N.am      4 UNK        -0.5000 
     55 C           2.9693  -12.5607  -43.5322 C.2       3 UNK         0.5000 
     56 O           1.9563  -11.8775  -43.3522 O.2       3 UNK        -0.5000 
     57 CA          3.5124  -12.7638  -44.9533 C.3       3 UNK         0.1400 
     58 CB          3.1039  -14.1413  -45.5081 C.3       3 UNK        -0.1800 
     59 N           2.9726  -11.7245  -45.8202 N.am      3 UNK        -0.5000 
     60 C           3.5861  -11.1973  -46.8840 C.2       2 UNK         0.5000 
     61 O           4.7199  -11.5175  -47.2474 O.2       2 UNK        -0.5000 
     62 CA          2.7759  -10.1453  -47.6720 C.3       2 UNK         0.1400 
     63 CB          3.4162   -9.7767  -49.0269 C.3       2 UNK        -0.1800 
     64 N           1.3689  -10.5275  -47.8546 N.am      2 UNK        -0.5000 
     65 C           0.8967  -11.6280  -48.4666 C.2       1 UNK         0.5000 
     66 O           1.6108  -12.4976  -48.9669 O.2       1 UNK        -0.5000 
     67 C          -1.6246  -21.3549  -47.4197 C.2       11 UNK         0.5000 
     68 O          -1.8737  -22.0588  -48.3973 O.2       11 UNK        -0.5000 
     69 N          -2.5606  -20.9188  -46.5659 N.am      12 UNK        -0.5000 
     70 CA         -3.9878  -21.2165  -46.6705 C.3       12 UNK         0.1400 
     71 CB         -4.7670  -20.3208  -45.6965 C.3       12 UNK        -0.1800 
     72 C          -4.3243  -22.7002  -46.4408 C.2       12 UNK         0.5000 
     73 O          -5.2428  -23.2108  -47.0805 O.2       12 UNK        -0.5000 
     74 N          -3.5738  -23.3714  -45.5564 N.am      13 UNK        -0.5000 
     75 CA         -3.6683  -24.8125  -45.3189 C.3       13 UNK         0.1400 
     76 CB         -2.8926  -25.1820  -44.0456 C.3       13 UNK        -0.1800 
     77 C          -3.1759  -25.6365  -46.5235 C.2       13 UNK         0.5000 
     78 O          -3.7820  -26.6595  -46.8445 O.2       13 UNK        -0.5000 
     79 N          -2.1055  -25.1663  -47.1804 N.am      14 UNK        -0.5000 
     80 CA         -1.5921  -25.7205  -48.4337 C.3       14 UNK         0.1400 
     81 CB         -0.1919  -25.1510  -48.7065 C.3       14 UNK        -0.1800 
     82 C          -2.5408  -25.4634  -49.6208 C.2       14 UNK         0.5000 
     83 O          -2.7095  -26.3474  -50.4621 O.2       14 UNK        -0.5000 
     84 N          -3.1563  -24.2717  -49.6531 N.am      15 UNK        -0.5000 
     85 CA         -4.1475  -23.8066  -50.6265 C.3       15 UNK         0.1400 
     86 CB         -5.4870  -24.5501  -50.4254 C.3       15 UNK        -0.1800 
     87 C          -3.5914  -23.8897  -52.0604 C.2       15 UNK         0.5000 
     88 O          -2.6002  -23.2220  -52.3523 O.2       15 UNK        -0.5000 
     89 N          -4.1816  -24.7456  -52.9053 N.am      16 UNK        -0.5000 
     90 CA         -3.7778  -25.0153  -54.2884 C.3       16 UNK         0.1400 
     91 CB         -4.8251  -25.9398  -54.9299 C.3       16 UNK        -0.1800 
     92 C          -2.3608  -25.6088  -54.4573 C.2       16 UNK         0.5000 
     93 O          -1.8582  -25.6418  -55.5811 O.2       16 UNK        -0.5000 
     94 N          -1.7370  -26.0753  -53.3658 N.am      17 UNK        -0.5000 
     95 CA         -0.3449  -26.5273  -53.3537 C.3       17 UNK         0.1400 
     96 CB         -0.1635  -27.5772  -52.2460 C.3       17 UNK        -0.1800 
     97 C           0.6657  -25.3717  -53.1865 C.2       17 UNK         0.5000 
     98 O           1.8603  -25.6065  -53.3751 O.2       17 UNK        -0.5000 
     99 N           0.1977  -24.1660  -52.8298 N.am      18 UNK        -0.5000 
    100 CA         1.0314  -22.9828  -52.6011 C.3       18 UNK         0.1400 
    101 CB         1.0295  -22.6439  -51.1028 C.3       18 UNK        -0.1800 
    102 C          0.5656  -21.7856  -53.4464 C.2       18 UNK         0.5000 
    103 O          1.3905  -21.1517  -54.1060 O.2       18 UNK        -0.5000 
    104 N         -0.7423  -21.5101  -53.4313 N.am      19 UNK        -0.5000 
    105 CA        -1.4206  -20.5477  -54.2960 C.3       19 UNK         0.1400 
    106 CB        -2.5515  -19.8865  -53.4865 C.3       19 UNK        -0.1800 
    107 C         -1.9905  -21.2666  -55.5332 C.2       19 UNK         0.5000 
    108 O         -1.8082  -22.4749  -55.6895 O.2       19 UNK        -0.5000 
    109 N         -2.7086  -20.5218  -56.3849 N.am      20 UNK        -0.5000 
    110 CA        -3.4861  -21.0823  -57.4953 C.3       20 UNK         0.1400 
    111 CB        -3.9532  -19.9444  -58.4157 C.3       20 UNK        -0.1800 
    112 C         -4.6898  -21.9149  -57.0057 C.2       20 UNK         0.5000 
    113 O         -5.0084  -22.9377  -57.6120 O.2       20 UNK        -0.5000 
    114 N         -5.3052  -21.4688  -55.9021 N.am      21 UNK        -0.5000 
    115 CA        -6.3981  -22.1241  -55.1835 C.3       21 UNK         0.1400 
    116 CB        -7.6727  -22.2343  -56.0455 C.3       21 UNK        -0.1800 
    117 C         -6.6947  -21.3564  -53.8884 C.2       21 UNK         0.5000 
    118 O         -6.8060  -21.9751  -52.8329 O.2       21 UNK        -0.5000 
    119 N         -6.8159  -20.0268  -54.0181 N.am      22 UNK        -0.5000 
    120 CA        -7.1225  -19.0259  -52.9763 C.3       22 UNK         0.1400 
    121 C         -8.5370  -19.1032  -52.3207 C.2       22 UNK         0.5000 
    122 N         -9.4293  -19.9818  -52.7598 N.am      22 UNK        -0.7600 
    123 O         -8.8530  -18.3133  -51.4349 O.2       22 UNK        -0.5000 
    124 C124       -5.9532  -18.7824  -51.9757 C.3       23 UNK        -0.0398 
    125 S125       -5.8820  -19.8710  -50.5066 S.3       23 UNK        -0.2404 
    126 C126       -5.4314  -18.6665  -49.2102 C.3       23 UNK        -0.0205 
    127 H127       -2.5096   -8.2110  -48.4715 H         1 UNK         0.0600 
    128 H128       -2.8020   -8.1855  -50.2125 H         1 UNK         0.0600 
    129 H129       -1.3396   -7.4470  -49.5509 H         1 UNK         0.0600 
    130 H130       -1.8263  -10.2039  -47.7543 H         1 UNK         0.3000 
    131 H131       -0.8517  -12.2355  -49.5227 H         1 UNK         0.0600 
    132 H132       -2.2960  -12.4862  -47.3365 H         1 UNK         0.0800 
    133 H133       -0.7928  -12.4109  -46.4718 H         1 UNK         0.0800 
    134 H134       -1.8806  -14.2981  -49.9795 H         1 UNK         0.0800 
    135 H135       -3.1644  -14.2391  -48.7935 H         1 UNK         0.0800 
    136 H136       -4.5839  -16.1088  -48.8447 H         1 UNK         0.1150 
    137 H137       -3.1233  -20.0039  -49.8691 H         1 UNK         0.1150 
    138 H138       -0.4439  -16.6636  -49.8117 H         1 UNK         0.1150 
    139 H139       -0.8837  -20.3892  -50.3672 H         1 UNK         0.0800 
    140 H140       -0.1757  -19.0834  -51.2787 H         1 UNK         0.0800 
    141 H141        0.8762  -19.0815  -46.8196 H         1 UNK         0.0800 
    142 H142       -0.7282  -18.8565  -47.4018 H         1 UNK         0.0800 
    143 H143        0.4805  -21.6413  -47.6745 H         1 UNK         0.0600 
    144 H144        0.4460  -20.4225  -45.1396 H         1 UNK         0.3000 
    145 H145       -0.1418  -23.3311  -43.1530 H         1 UNK         0.0600 
    146 H146        1.9523  -22.4978  -42.1180 H         1 UNK         0.0600 
    147 H147        2.2950  -23.3058  -43.6408 H         1 UNK         0.0600 
    148 H148        2.3187  -21.5499  -43.5564 H         1 UNK         0.0600 
    149 H149        0.2638  -20.5938  -42.4562 H         1 UNK         0.3000 
    150 H150       -3.2014  -19.6201  -42.6321 H         1 UNK         0.0600 
    151 H151       -2.8340  -20.6948  -40.4048 H         1 UNK         0.0600 
    152 H152       -2.6995  -18.9462  -40.3148 H         1 UNK         0.0600 
    153 H153       -1.2470  -19.9444  -40.2969 H         1 UNK         0.0600 
    154 H154       -0.9088  -18.1006  -41.9564 H         1 UNK         0.3000 
    155 H155       -0.0355  -17.0831  -45.3016 H         1 UNK         0.0600 
    156 H156       -0.2361  -14.8723  -44.2008 H         1 UNK         0.0600 
    157 H157       -1.1725  -15.5796  -42.8859 H         1 UNK         0.0600 
    158 H158       -1.8299  -15.5399  -44.5197 H         1 UNK         0.0600 
    159 H159        1.1663  -16.4585  -42.8109 H         1 UNK         0.3000 
    160 H160        3.3975  -19.2650  -42.6238 H         1 UNK         0.0600 
    161 H161        3.8032  -16.2501  -42.9722 H         1 UNK         0.0600 
    162 H162        4.4294  -17.4805  -44.0631 H         1 UNK         0.0600 
    163 H163        4.9931  -17.4137  -42.4001 H         1 UNK         0.0600 
    164 H164        2.7780  -17.0172  -40.9086 H         1 UNK         0.3000 
    165 H165        0.4916  -18.7465  -38.8070 H         1 UNK         0.0600 
    166 H166        3.4102  -17.9405  -38.3212 H         1 UNK         0.0600 
    167 H167        2.1743  -18.1664  -37.0831 H         1 UNK         0.0600 
    168 H168        2.7295  -19.5370  -38.0307 H         1 UNK         0.0600 
    169 H169        1.7259  -16.1569  -38.6729 H         1 UNK         0.3000 
    170 H170       -0.7895  -14.4322  -40.5430 H         1 UNK         0.0600 
    171 H171       -1.6739  -14.7295  -38.2189 H         1 UNK         0.0600 
    172 H172       -0.0667  -14.4367  -37.5649 H         1 UNK         0.0600 
    173 H173       -0.9184  -13.1591  -38.4329 H         1 UNK         0.0600 
    174 H174        1.4175  -13.3116  -39.2866 H         1 UNK         0.3000 
    175 H175        2.9378  -12.2826  -40.8017 H         1 UNK         0.0600 
    176 H176        5.2113  -13.2428  -40.3665 H         1 UNK         0.0600 
    177 H177        4.0332  -13.9330  -39.2639 H         1 UNK         0.0600 
    178 H178        4.5942  -14.8713  -40.6425 H         1 UNK         0.0600 
    179 H179        4.4479  -13.7333  -42.7937 H         1 UNK         0.3000 
    180 H180        4.6013  -12.6886  -44.9173 H         1 UNK         0.0600 
    181 H181        3.4634  -14.2796  -46.5279 H         1 UNK         0.0600 
    182 H182        3.5202  -14.9487  -44.9073 H         1 UNK         0.0600 
    183 H183        2.0200  -14.2650  -45.5183 H         1 UNK         0.0600 
    184 H184        2.0676  -11.3719  -45.5367 H         1 UNK         0.3000 
    185 H185        2.7727   -9.2443  -47.0569 H         1 UNK         0.0600 
    186 H186        2.8297   -9.0188  -49.5462 H         1 UNK         0.0600 
    187 H187        4.4192   -9.3715  -48.8884 H         1 UNK         0.0600 
    188 H188        3.5011  -10.6425  -49.6842 H         1 UNK         0.0600 
    189 H189        0.6906   -9.8737  -47.4900 H         1 UNK         0.3000 
    190 H190       -2.2823  -20.2922  -45.8143 H         1 UNK         0.3000 
    191 H191       -4.2971  -20.9757  -47.6883 H         1 UNK         0.0600 
    192 H192       -5.8415  -20.4808  -45.7931 H         1 UNK         0.0600 
    193 H193       -4.5746  -19.2654  -45.8911 H         1 UNK         0.0600 
    194 H194       -4.4954  -20.5235  -44.6603 H         1 UNK         0.0600 
    195 H195       -2.9013  -22.8567  -44.9966 H         1 UNK         0.3000 
    196 H196       -4.7197  -25.0582  -45.1553 H         1 UNK         0.0600 
    197 H197       -2.9850  -26.2469  -43.8288 H         1 UNK         0.0600 
    198 H198       -3.2736  -24.6394  -43.1803 H         1 UNK         0.0600 
    199 H199       -1.8303  -24.9583  -44.1396 H         1 UNK         0.0600 
    200 H200       -1.6266  -24.3516  -46.8111 H         1 UNK         0.3000 
    201 H201       -1.4984  -26.8020  -48.3158 H         1 UNK         0.0600 
    202 H202        0.5077  -25.4391  -47.9217 H         1 UNK         0.0600 
    203 H203       -0.2025  -24.0630  -48.7545 H         1 UNK         0.0600 
    204 H204        0.2094  -25.5165  -49.6515 H         1 UNK         0.0600 
    205 H205       -2.8478  -23.5690  -48.9862 H         1 UNK         0.3000 
    206 H206       -4.3165  -22.7485  -50.4205 H         1 UNK         0.0600 
    207 H207       -5.8646  -24.3999  -49.4145 H         1 UNK         0.0600 
    208 H208       -6.2512  -24.1748  -51.1073 H         1 UNK         0.0600 
    209 H209       -5.3938  -25.6254  -50.5807 H         1 UNK         0.0600 
    210 H210       -4.9608  -25.2848  -52.5571 H         1 UNK         0.3000 
    211 H211       -3.7892  -24.0641  -54.8222 H         1 UNK         0.0600 
    212 H212       -4.8490  -26.9156  -54.4432 H         1 UNK         0.0600 
    213 H213       -4.6059  -26.1041  -55.9858 H         1 UNK         0.0600 
    214 H214       -5.8260  -25.5124  -54.8730 H         1 UNK         0.0600 
    215 H215       -2.2172  -26.0564  -52.4719 H         1 UNK         0.3000 
    216 H216       -0.1200  -27.0159  -54.3041 H         1 UNK         0.0600 
    217 H217        0.8413  -28.0006  -52.2706 H         1 UNK         0.0600 
    218 H218       -0.8659  -28.4023  -52.3647 H         1 UNK         0.0600 
    219 H219       -0.3118  -27.1515  -51.2550 H         1 UNK         0.0600 
    220 H220       -0.8042  -24.0368  -52.7369 H         1 UNK         0.3000 
    221 H221        2.0649  -23.1811  -52.8920 H         1 UNK         0.0600 
    222 H222        0.0164  -22.5275  -50.7167 H         1 UNK         0.0600 
    223 H223        1.5182  -23.4288  -50.5261 H         1 UNK         0.0600 
    224 H224        1.5712  -21.7178  -50.9096 H         1 UNK         0.0600 
    225 H225       -1.3686  -22.1301  -52.9200 H         1 UNK         0.3000 
    226 H226       -0.7238  -19.7772  -54.6316 H         1 UNK         0.0600 
    227 H227       -2.1652  -19.4005  -52.5935 H         1 UNK         0.0600 
    228 H228       -3.0615  -19.1156  -54.0642 H         1 UNK         0.0600 
    229 H229       -3.3001  -20.6143  -53.1692 H         1 UNK         0.0600 
    230 H230       -2.7906  -19.5277  -56.2283 H         1 UNK         0.3000 
    231 H231       -2.8357  -21.7427  -58.0730 H         1 UNK         0.0600 
    232 H232       -4.5198  -20.3357  -59.2617 H         1 UNK         0.0600 
    233 H233       -3.1052  -19.3926  -58.8218 H         1 UNK         0.0600 
    234 H234       -4.5951  -19.2361  -57.8905 H         1 UNK         0.0600 
    235 H235       -4.9276  -20.6460  -55.4552 H         1 UNK         0.3000 
    236 H236       -6.0732  -23.1273  -54.9062 H         1 UNK         0.0600 
    237 H237       -7.9747  -21.2664  -56.4467 H         1 UNK         0.0600 
    238 H238       -7.5334  -22.9141  -56.8854 H         1 UNK         0.0600 
    239 H239       -8.5072  -22.6239  -55.4609 H         1 UNK         0.0600 
    240 H240       -6.7739  -19.6481  -54.9534 H         1 UNK         0.3000 
    241 H241       -7.1885  -18.1056  -53.5580 H         1 UNK         0.0600 
    242 H242      -10.3457  -20.0087  -52.3410 H         1 UNK         0.3800 
    243 H243       -9.1869  -20.6409  -53.4809 H         1 UNK         0.3800 
    244 H244       -6.0140  -17.7505  -51.6271 H         1 UNK         0.0800 
    245 H245       -4.9971  -18.8461  -52.4928 H         1 UNK         0.0800 
    246 H246       -5.5276  -19.1393  -48.2349 H         1 UNK         0.0800 
    247 H247       -6.1624  -17.8564  -49.2210 H         1 UNK         0.0800 
@<TRIPOS>BOND
     1    1    2 1    
     2    1  127 1    
     3    1  128 1    
     4    1  129 1    
     5    2    3 2    
     6    2    4 am   BACKBONE|DICT|INTERRES
     7    4    5 1    
     8    4  130 1    
     9    5    6 1    
    10    5   65 1    
    11    5  131 1    
    12    6    7 1    
    13    6  132 1    
    14    6  133 1    
    15    7    8 1    
    16    8    9 1    
    17    8  134 1    
    18    8  135 1    
    19    9   10 ar   
    20    9   14 ar   
    21   10   11 ar   
    22   10  136 1    
    23   11   12 ar   
    24   11  126 1    
    25   12   13 ar   
    26   12  137 1    
    27   13   14 ar   
    28   13   15 1    
    29   14  138 1    
    30   15   16 1    
    31   15  139 1    
    32   15  140 1    
    33   16   17 1    
    34   17   18 1    
    35   17  141 1    
    36   17  142 1    
    37   18   19 1    
    38   18   67 1    
    39   18  143 1    
    40   19   20 am   BACKBONE|DICT|INTERRES
    41   19  144 1    
    42   20   21 2    
    43   20   22 1    
    44   22   23 1    
    45   22   24 1    
    46   22  145 1    
    47   23  146 1    
    48   23  147 1    
    49   23  148 1    
    50   24   25 am   BACKBONE|DICT|INTERRES
    51   24  149 1    
    52   25   26 2    
    53   25   27 1    
    54   27   28 1    
    55   27   29 1    
    56   27  150 1    
    57   28  151 1    
    58   28  152 1    
    59   28  153 1    
    60   29   30 am   BACKBONE|DICT|INTERRES
    61   29  154 1    
    62   30   31 2    
    63   30   32 1    
    64   32   33 1    
    65   32   34 1    
    66   32  155 1    
    67   33  156 1    
    68   33  157 1    
    69   33  158 1    
    70   34   35 am   BACKBONE|DICT|INTERRES
    71   34  159 1    
    72   35   36 2    
    73   35   37 1    
    74   37   38 1    
    75   37   39 1    
    76   37  160 1    
    77   38  161 1    
    78   38  162 1    
    79   38  163 1    
    80   39   40 am   BACKBONE|DICT|INTERRES
    81   39  164 1    
    82   40   41 2    
    83   40   42 1    
    84   42   43 1    
    85   42   44 1    
    86   42  165 1    
    87   43  166 1    
    88   43  167 1    
    89   43  168 1    
    90   44   45 am   BACKBONE|DICT|INTERRES
    91   44  169 1    
    92   45   46 2    
    93   45   47 1    
    94   47   48 1    
    95   47   49 1    
    96   47  170 1    
    97   48  171 1    
    98   48  172 1    
    99   48  173 1    
   100   49   50 am   BACKBONE|DICT|INTERRES
   101   49  174 1    
   102   50   51 2    
   103   50   52 1    
   104   52   53 1    
   105   52   54 1    
   106   52  175 1    
   107   53  176 1    
   108   53  177 1    
   109   53  178 1    
   110   54   55 am   BACKBONE|DICT|INTERRES
   111   54  179 1    
   112   55   56 2    
   113   55   57 1    
   114   57   58 1    
   115   57   59 1    
   116   57  180 1    
   117   58  181 1    
   118   58  182 1    
   119   58  183 1    
   120   59   60 am   BACKBONE|DICT|INTERRES
   121   59  184 1    
   122   60   61 2    
   123   60   62 1    
   124   62   63 1    
   125   62   64 1    
   126   62  185 1    
   127   63  186 1    
   128   63  187 1    
   129   63  188 1    
   130   64   65 am   BACKBONE|DICT|INTERRES
   131   64  189 1    
   132   65   66 2    
   133   67   68 2    
   134   67   69 am   BACKBONE|DICT|INTERRES
   135   69   70 1    
   136   69  190 1    
   137   70   71 1    
   138   70   72 1    
   139   70  191 1    
   140   71  192 1    
   141   71  193 1    
   142   71  194 1    
   143   72   73 2    
   144   72   74 am   BACKBONE|DICT|INTERRES
   145   74   75 1    
   146   74  195 1    
   147   75   76 1    
   148   75   77 1    
   149   75  196 1    
   150   76  197 1    
   151   76  198 1    
   152   76  199 1    
   153   77   78 2    
   154   77   79 am   BACKBONE|DICT|INTERRES
   155   79   80 1    
   156   79  200 1    
   157   80   81 1    
   158   80   82 1    
   159   80  201 1    
   160   81  202 1    
   161   81  203 1    
   162   81  204 1    
   163   82   83 2    
   164   82   84 am   BACKBONE|DICT|INTERRES
   165   84   85 1    
   166   84  205 1    
   167   85   86 1    
   168   85   87 1    
   169   85  206 1    
   170   86  207 1    
   171   86  208 1    
   172   86  209 1    
   173   87   88 2    
   174   87   89 am   BACKBONE|DICT|INTERRES
   175   89   90 1    
   176   89  210 1    
   177   90   91 1    
   178   90   92 1    
   179   90  211 1    
   180   91  212 1    
   181   91  213 1    
   182   91  214 1    
   183   92   93 2    
   184   92   94 am   BACKBONE|DICT|INTERRES
   185   94   95 1    
   186   94  215 1    
   187   95   96 1    
   188   95   97 1    
   189   95  216 1    
   190   96  217 1    
   191   96  218 1    
   192   96  219 1    
   193   97   98 2    
   194   97   99 am   BACKBONE|DICT|INTERRES
   195   99  100 1    
   196   99  220 1    
   197  100  101 1    
   198  100  102 1    
   199  100  221 1    
   200  101  222 1    
   201  101  223 1    
   202  101  224 1    
   203  102  103 2    
   204  102  104 am   BACKBONE|DICT|INTERRES
   205  104  105 1    
   206  104  225 1    
   207  105  106 1    
   208  105  107 1    
   209  105  226 1    
   210  106  227 1    
   211  106  228 1    
   212  106  229 1    
   213  107  108 2    
   214  107  109 am   BACKBONE|DICT|INTERRES
   215  109  110 1    
   216  109  230 1    
   217  110  111 1    
   218  110  112 1    
   219  110  231 1    
   220  111  232 1    
   221  111  233 1    
   222  111  234 1    
   223  112  113 2    
   224  112  114 am   BACKBONE|DICT|INTERRES
   225  114  115 1    
   226  114  235 1    
   227  115  116 1    
   228  115  117 1    
   229  115  236 1    
   230  116  237 1    
   231  116  238 1    
   232  116  239 1    
   233  117  118 2    
   234  117  119 am   BACKBONE|DICT|INTERRES
   235  119  120 1    
   236  119  240 1    
   237  120  121 1    
   238  120  124 1    
   239  120  241 1    
   240  121  122 am   BACKBONE|DICT|INTERRES
   241  121  123 2    
   242  122  242 1    
   243  122  243 1    
   244  124  125 1    
   245  124  244 1    
   246  124  245 1    
   247  125  126 1    
   248  126  246 1    
   249  126  247 1    
@<TRIPOS>SUBSTRUCTURE
     1 UNK         1 GROUP             0       ****    0 ROOT    
