@<TRIPOS>MOLECULE
3R540
247   249    1
SMALL
USER_CHARGES


@<TRIPOS>ATOM
      1 CA         -0.9177  -12.2662  -48.2207 C.3       0 UNK        -0.1800 
      2 C           0.4616  -12.8939  -48.0951 C.2       0 UNK         0.5000 
      3 O           0.6856  -13.7009  -47.1928 O.2       0 UNK        -0.5000 
      4 N           1.3886  -12.5248  -48.9905 N.am      1 UNK        -0.5000 
      5 CA          2.7889  -12.9699  -49.0680 C.3       1 UNK         0.1400 
      6 C6          2.9314  -14.5116  -49.1799 C.3       23 UNK        -0.0398 
      7 S7          4.6006  -15.0709  -49.6601 S.3       23 UNK        -0.2404 
      8 C8          4.3307  -15.6494  -51.3660 C.3       23 UNK        -0.0205 
      9 C9          3.3935  -16.8486  -51.4428 C.ar      23 UNK        -0.0193 
     10 C10         2.2058  -16.7656  -52.1767 C.ar      23 UNK        -0.1150 
     11 C11         1.3508  -17.8709  -52.2826 C.ar      23 UNK        -0.0193 
     12 C12         1.7097  -19.0635  -51.6468 C.ar      23 UNK        -0.1150 
     13 C13         2.8873  -19.1607  -50.9027 C.ar      23 UNK        -0.0193 
     14 C14         3.7262  -18.0480  -50.8056 C.ar      23 UNK        -0.1150 
     15 C15         3.2697  -20.4751  -50.2349 C.3       23 UNK        -0.0205 
     16 S16         2.4368  -20.7024  -48.6305 S.3       23 UNK        -0.2404 
     17 C17         0.7753  -21.2639  -49.1370 C.3       23 UNK        -0.0398 
     18 CA          0.1388  -22.2495  -48.1272 C.3       11 UNK         0.1400 
     19 N          -0.0221  -21.6767  -46.7865 N.am      11 UNK        -0.5000 
     20 C          -0.4338  -22.3608  -45.7083 C.2       10 UNK         0.5000 
     21 O          -0.6352  -23.5749  -45.7032 O.2       10 UNK        -0.5000 
     22 CA         -0.7499  -21.5398  -44.4468 C.3       10 UNK         0.1400 
     23 CB          0.5102  -21.2956  -43.6032 C.3       10 UNK        -0.1800 
     24 N          -1.3904  -20.2694  -44.7918 N.am      10 UNK        -0.5000 
     25 C          -2.6536  -20.1727  -45.2335 C.2       9 UNK         0.5000 
     26 O          -3.4210  -21.1317  -45.3025 O.2       9 UNK        -0.5000 
     27 CA         -3.1299  -18.7940  -45.7241 C.3       9 UNK         0.1400 
     28 CB         -3.7733  -18.0047  -44.5745 C.3       9 UNK        -0.1800 
     29 N          -2.0441  -18.0153  -46.3210 N.am      9 UNK        -0.5000 
     30 C          -1.5242  -18.2638  -47.5323 C.2       8 UNK         0.5000 
     31 O          -1.9604  -19.1279  -48.2943 O.2       8 UNK        -0.5000 
     32 CA         -0.2941  -17.4398  -47.9651 C.3       8 UNK         0.1400 
     33 CB         -0.7412  -16.2424  -48.8077 C.3       8 UNK        -0.1800 
     34 N           0.5430  -16.9713  -46.8579 N.am      8 UNK        -0.5000 
     35 C           1.1489  -17.7798  -45.9762 C.2       7 UNK         0.5000 
     36 O           1.0564  -19.0064  -46.0136 O.2       7 UNK        -0.5000 
     37 CA          1.9410  -17.1326  -44.8228 C.3       7 UNK         0.1400 
     38 CB          2.3688  -15.6794  -45.0903 C.3       7 UNK        -0.1800 
     39 N           1.2414  -17.1978  -43.5357 N.am      7 UNK        -0.5000 
     40 C          -0.0288  -16.8500  -43.2713 C.2       6 UNK         0.5000 
     41 O          -0.8583  -16.5297  -44.1222 O.2       6 UNK        -0.5000 
     42 CA         -0.4182  -16.8084  -41.7818 C.3       6 UNK         0.1400 
     43 CB         -0.6527  -18.2246  -41.2342 C.3       6 UNK        -0.1800 
     44 N           0.5945  -16.1220  -40.9722 N.am      6 UNK        -0.5000 
     45 C           0.8949  -14.8212  -41.1021 C.2       5 UNK         0.5000 
     46 O           0.2584  -14.0532  -41.8281 O.2       5 UNK        -0.5000 
     47 CA          2.1044  -14.3061  -40.2972 C.3       5 UNK         0.1400 
     48 CB          3.3851  -15.0771  -40.6657 C.3       5 UNK        -0.1800 
     49 N           2.3226  -12.8968  -40.6070 N.am      5 UNK        -0.5000 
     50 C           2.1734  -11.8642  -39.7689 C.2       4 UNK         0.5000 
     51 O           1.9495  -11.9856  -38.5637 O.2       4 UNK        -0.5000 
     52 CA          2.2807  -10.4495  -40.3822 C.3       4 UNK         0.1400 
     53 CB          3.6966   -9.8854  -40.1887 C.3       4 UNK        -0.1800 
     54 N           1.9516  -10.4238  -41.8098 N.am      4 UNK        -0.5000 
     55 C           0.7280  -10.6365  -42.3130 C.2       3 UNK         0.5000 
     56 O          -0.2879  -10.6672  -41.6166 O.2       3 UNK        -0.5000 
     57 CA          0.6021  -10.8671  -43.8369 C.3       3 UNK         0.1400 
     58 CB         -0.2138   -9.7390  -44.4896 C.3       3 UNK        -0.1800 
     59 N           1.8558  -11.0229  -44.5883 N.am      3 UNK        -0.5000 
     60 C           2.7947  -11.9613  -44.4051 C.2       2 UNK         0.5000 
     61 O           2.7955  -12.7627  -43.4717 O.2       2 UNK        -0.5000 
     62 CA          3.8804  -12.0298  -45.4859 C.3       2 UNK         0.1400 
     63 CB          5.0939  -12.8919  -45.0865 C.3       2 UNK        -0.1800 
     64 N           3.2537  -12.5580  -46.6907 N.am      2 UNK        -0.5000 
     65 C           3.6604  -12.3575  -47.9467 C.2       1 UNK         0.5000 
     66 O           4.6525  -11.6894  -48.2422 O.2       1 UNK        -0.5000 
     67 C          -1.2010  -22.7946  -48.6677 C.2       11 UNK         0.5000 
     68 O          -1.2329  -23.9129  -49.1791 O.2       11 UNK        -0.5000 
     69 N          -2.2875  -22.0225  -48.5038 N.am      12 UNK        -0.5000 
     70 CA         -3.6517  -22.4261  -48.8545 C.3       12 UNK         0.1400 
     71 CB         -4.6140  -21.2432  -48.6834 C.3       12 UNK        -0.1800 
     72 C          -4.1412  -23.6388  -48.0481 C.2       12 UNK         0.5000 
     73 O          -4.7269  -24.5477  -48.6334 O.2       12 UNK        -0.5000 
     74 N          -3.8670  -23.6535  -46.7360 N.am      13 UNK        -0.5000 
     75 CA         -4.1803  -24.7677  -45.8402 C.3       13 UNK         0.1400 
     76 CB         -3.8954  -24.3667  -44.3853 C.3       13 UNK        -0.1800 
     77 C          -3.4278  -26.0570  -46.2160 C.2       13 UNK         0.5000 
     78 O          -4.0449  -27.1210  -46.2705 O.2       13 UNK        -0.5000 
     79 N          -2.1284  -25.9336  -46.5240 N.am      14 UNK        -0.5000 
     80 CA         -1.2771  -27.0252  -47.0058 C.3       14 UNK         0.1400 
     81 CB          0.1813  -26.5471  -47.0678 C.3       14 UNK        -0.1800 
     82 C          -1.7281  -27.5828  -48.3703 C.2       14 UNK         0.5000 
     83 O          -1.6660  -28.7936  -48.5848 O.2       14 UNK        -0.5000 
     84 N          -2.2111  -26.6952  -49.2490 N.am      15 UNK        -0.5000 
     85 CA         -2.7978  -27.0239  -50.5487 C.3       15 UNK         0.1400 
     86 CB         -2.7134  -25.7834  -51.4527 C.3       15 UNK        -0.1800 
     87 C          -4.2555  -27.5239  -50.4654 C.2       15 UNK         0.5000 
     88 O          -4.8288  -27.8487  -51.5050 O.2       15 UNK        -0.5000 
     89 N          -4.8524  -27.5366  -49.2628 N.am      16 UNK        -0.5000 
     90 CA         -6.2496  -27.8821  -48.9677 C.3       16 UNK         0.1400 
     91 CB         -6.4864  -29.3922  -49.1749 C.3       16 UNK        -0.1800 
     92 C          -7.2645  -27.0024  -49.7337 C.2       16 UNK         0.5000 
     93 O          -8.3206  -27.4854  -50.1451 O.2       16 UNK        -0.5000 
     94 N          -6.8961  -25.7284  -49.9340 N.am      17 UNK        -0.5000 
     95 CA         -7.5887  -24.6815  -50.6913 C.3       17 UNK         0.1400 
     96 CB         -8.9459  -24.3413  -50.0426 C.3       17 UNK        -0.1800 
     97 C          -7.7118  -24.9511  -52.2086 C.2       17 UNK         0.5000 
     98 O          -8.4296  -24.2170  -52.8897 O.2       17 UNK        -0.5000 
     99 N          -7.0042  -25.9639  -52.7320 N.am      18 UNK        -0.5000 
    100 CA        -6.9860  -26.3066  -54.1577 C.3       18 UNK         0.1400 
    101 CB        -6.6349  -27.7945  -54.3134 C.3       18 UNK        -0.1800 
    102 C         -6.0094  -25.4338  -54.9712 C.2       18 UNK         0.5000 
    103 O         -6.0798  -25.4339  -56.2011 O.2       18 UNK        -0.5000 
    104 N         -5.1190  -24.7129  -54.2822 N.am      19 UNK        -0.5000 
    105 CA        -4.1249  -23.8031  -54.8369 C.3       19 UNK         0.1400 
    106 CB        -2.8992  -24.6010  -55.3265 C.3       19 UNK        -0.1800 
    107 C         -3.7526  -22.7654  -53.7644 C.2       19 UNK         0.5000 
    108 O         -4.2937  -22.8072  -52.6549 O.2       19 UNK        -0.5000 
    109 N         -2.8286  -21.8631  -54.1209 N.am      20 UNK        -0.5000 
    110 CA        -2.3270  -20.7464  -53.3169 C.3       20 UNK         0.1400 
    111 CB        -1.5632  -21.2505  -52.0709 C.3       20 UNK        -0.1800 
    112 C         -3.4298  -19.7052  -53.0293 C.2       20 UNK         0.5000 
    113 O         -4.1018  -19.2859  -53.9733 O.2       20 UNK        -0.5000 
    114 N         -3.5743  -19.2884  -51.7615 N.am      21 UNK        -0.5000 
    115 CA        -4.5141  -18.2714  -51.2708 C.3       21 UNK         0.1400 
    116 CB        -5.9767  -18.7319  -51.4490 C.3       21 UNK        -0.1800 
    117 C         -4.2327  -16.8705  -51.8563 C.2       21 UNK         0.5000 
    118 O         -5.1505  -16.1724  -52.2896 O.2       21 UNK        -0.5000 
    119 N         -2.9494  -16.4884  -51.8387 N.am      22 UNK        -0.5000 
    120 CA        -2.4315  -15.1769  -52.2710 C.3       22 UNK         0.1400 
    121 C         -2.8000  -13.9814  -51.3381 C.2       22 UNK         0.5000 
    122 N         -3.4169  -14.1913  -50.1814 N.am      22 UNK        -0.7600 
    123 O         -2.5258  -12.8338  -51.6768 O.2       22 UNK        -0.5000 
    124 C124       -0.8983  -15.2247  -52.5140 C.3       23 UNK        -0.0398 
    125 S125       -0.4216  -16.2994  -53.9098 S.3       23 UNK        -0.2404 
    126 C126        0.0456  -17.8588  -53.0808 C.3       23 UNK        -0.0205 
    127 H127       -1.0460  -11.7580  -49.1767 H         1 UNK         0.0600 
    128 H128       -1.0740  -11.5431  -47.4208 H         1 UNK         0.0600 
    129 H129       -1.6861  -13.0341  -48.1398 H         1 UNK         0.0600 
    130 H130        1.1323  -11.8357  -49.6840 H         1 UNK         0.3000 
    131 H131        3.1588  -12.5500  -50.0051 H         1 UNK         0.0600 
    132 H132        2.2136  -14.8819  -49.9108 H         1 UNK         0.0800 
    133 H133        2.6716  -15.0026  -48.2435 H         1 UNK         0.0800 
    134 H134        3.9557  -14.8190  -51.9665 H         1 UNK         0.0800 
    135 H135        5.2926  -15.9286  -51.7978 H         1 UNK         0.0800 
    136 H136        1.9645  -15.8377  -52.6730 H         1 UNK         0.1150 
    137 H137        1.0744  -19.9305  -51.7417 H         1 UNK         0.1150 
    138 H138        4.6453  -18.1147  -50.2403 H         1 UNK         0.1150 
    139 H139        3.0499  -21.3139  -50.8969 H         1 UNK         0.0800 
    140 H140        4.3475  -20.5032  -50.0681 H         1 UNK         0.0800 
    141 H141        0.8561  -21.7455  -50.1128 H         1 UNK         0.0800 
    142 H142        0.1443  -20.3874  -49.2792 H         1 UNK         0.0800 
    143 H143        0.8121  -23.1039  -48.0294 H         1 UNK         0.0600 
    144 H144        0.2019  -20.6924  -46.6790 H         1 UNK         0.3000 
    145 H145       -1.4463  -22.1196  -43.8374 H         1 UNK         0.0600 
    146 H146        0.9570  -22.2421  -43.2965 H         1 UNK         0.0600 
    147 H147        1.2725  -20.7408  -44.1485 H         1 UNK         0.0600 
    148 H148        0.2744  -20.7412  -42.6960 H         1 UNK         0.0600 
    149 H149       -0.7882  -19.4593  -44.8490 H         1 UNK         0.3000 
    150 H150       -3.8945  -18.9542  -46.4868 H         1 UNK         0.0600 
    151 H151       -4.0897  -17.0144  -44.9023 H         1 UNK         0.0600 
    152 H152       -3.0906  -17.8792  -43.7343 H         1 UNK         0.0600 
    153 H153       -4.6572  -18.5215  -44.1988 H         1 UNK         0.0600 
    154 H154       -1.6108  -17.3113  -45.7283 H         1 UNK         0.3000 
    155 H155        0.3261  -18.0821  -48.5932 H         1 UNK         0.0600 
    156 H156       -1.3642  -16.5691  -49.6374 H         1 UNK         0.0600 
    157 H157        0.1135  -15.7163  -49.2285 H         1 UNK         0.0600 
    158 H158       -1.3226  -15.5320  -48.2192 H         1 UNK         0.0600 
    159 H159        0.6153  -15.9682  -46.7360 H         1 UNK         0.3000 
    160 H160        2.8499  -17.7261  -44.7143 H         1 UNK         0.0600 
    161 H161        2.9035  -15.5864  -46.0347 H         1 UNK         0.0600 
    162 H162        3.0418  -15.3358  -44.3059 H         1 UNK         0.0600 
    163 H163        1.5179  -14.9985  -45.1035 H         1 UNK         0.0600 
    164 H164        1.8169  -17.4687  -42.7522 H         1 UNK         0.3000 
    165 H165       -1.3556  -16.2539  -41.6994 H         1 UNK         0.0600 
    166 H166       -1.0463  -18.1919  -40.2182 H         1 UNK         0.0600 
    167 H167       -1.3767  -18.7663  -41.8448 H         1 UNK         0.0600 
    168 H168        0.2674  -18.8093  -41.2167 H         1 UNK         0.0600 
    169 H169        1.1362  -16.6929  -40.3399 H         1 UNK         0.3000 
    170 H170        1.8916  -14.4442  -39.2354 H         1 UNK         0.0600 
    171 H171        4.2512  -14.6696  -40.1438 H         1 UNK         0.0600 
    172 H172        3.3131  -16.1298  -40.3915 H         1 UNK         0.0600 
    173 H173        3.5889  -15.0265  -41.7364 H         1 UNK         0.0600 
    174 H174        2.4385  -12.7038  -41.5993 H         1 UNK         0.3000 
    175 H175        1.5771   -9.8030  -39.8537 H         1 UNK         0.0600 
    176 H176        4.4437  -10.4877  -40.7071 H         1 UNK         0.0600 
    177 H177        3.7691   -8.8637  -40.5621 H         1 UNK         0.0600 
    178 H178        3.9671   -9.8644  -39.1321 H         1 UNK         0.0600 
    179 H179        2.7288  -10.4131  -42.4532 H         1 UNK         0.3000 
    180 H180        0.0457  -11.7991  -43.9577 H         1 UNK         0.0600 
    181 H181       -0.4061   -9.9470  -45.5421 H         1 UNK         0.0600 
    182 H182        0.3045   -8.7816  -44.4244 H         1 UNK         0.0600 
    183 H183       -1.1834   -9.6211  -44.0040 H         1 UNK         0.0600 
    184 H184        1.9589  -10.4099  -45.3840 H         1 UNK         0.3000 
    185 H185        4.2260  -11.0104  -45.6701 H         1 UNK         0.0600 
    186 H186        4.8225  -13.9383  -44.9517 H         1 UNK         0.0600 
    187 H187        5.8750  -12.8478  -45.8454 H         1 UNK         0.0600 
    188 H188        5.5306  -12.5412  -44.1508 H         1 UNK         0.0600 
    189 H189        2.3837  -13.0679  -46.5541 H         1 UNK         0.3000 
    190 H190       -2.1739  -21.0872  -48.1271 H         1 UNK         0.3000 
    191 H191       -3.6569  -22.7136  -49.9068 H         1 UNK         0.0600 
    192 H192       -4.7223  -20.9545  -47.6387 H         1 UNK         0.0600 
    193 H193       -5.6071  -21.4948  -49.0576 H         1 UNK         0.0600 
    194 H194       -4.2693  -20.3717  -49.2347 H         1 UNK         0.0600 
    195 H195       -3.4405  -22.8348  -46.3140 H         1 UNK         0.3000 
    196 H196       -5.2495  -24.9710  -45.9296 H         1 UNK         0.0600 
    197 H197       -4.1636  -25.1716  -43.6999 H         1 UNK         0.0600 
    198 H198       -4.4739  -23.4885  -44.0979 H         1 UNK         0.0600 
    199 H199       -2.8415  -24.1396  -44.2269 H         1 UNK         0.0600 
    200 H200       -1.6835  -25.0260  -46.4132 H         1 UNK         0.3000 
    201 H201       -1.3376  -27.8387  -46.2800 H         1 UNK         0.0600 
    202 H202        0.5309  -26.2212  -46.0880 H         1 UNK         0.0600 
    203 H203        0.3025  -25.7129  -47.7594 H         1 UNK         0.0600 
    204 H204        0.8421  -27.3487  -47.3998 H         1 UNK         0.0600 
    205 H205       -2.1613  -25.7080  -49.0174 H         1 UNK         0.3000 
    206 H206       -2.2090  -27.8198  -51.0087 H         1 UNK         0.0600 
    207 H207       -3.1063  -25.9971  -52.4465 H         1 UNK         0.0600 
    208 H208       -3.2868  -24.9500  -51.0458 H         1 UNK         0.0600 
    209 H209       -1.6827  -25.4507  -51.5757 H         1 UNK         0.0600 
    210 H210       -4.3126  -27.2198  -48.4671 H         1 UNK         0.3000 
    211 H211       -6.3993  -27.6651  -47.9093 H         1 UNK         0.0600 
    212 H212       -6.4083  -29.6740  -50.2254 H         1 UNK         0.0600 
    213 H213       -7.4792  -29.6839  -48.8306 H         1 UNK         0.0600 
    214 H214       -5.7630  -29.9840  -48.6140 H         1 UNK         0.0600 
    215 H215       -6.0129  -25.4307  -49.5194 H         1 UNK         0.3000 
    216 H216       -6.9562  -23.7967  -50.6038 H         1 UNK         0.0600 
    217 H217       -9.3885  -23.4557  -50.4999 H         1 UNK         0.0600 
    218 H218       -8.8324  -24.1315  -48.9790 H         1 UNK         0.0600 
    219 H219       -9.6626  -25.1556  -50.1505 H         1 UNK         0.0600 
    220 H220       -6.4288  -26.5359  -52.1240 H         1 UNK         0.3000 
    221 H221       -7.9855  -26.1551  -54.5705 H         1 UNK         0.0600 
    222 H222       -5.6078  -28.0003  -54.0114 H         1 UNK         0.0600 
    223 H223       -7.2946  -28.4231  -53.7149 H         1 UNK         0.0600 
    224 H224       -6.7370  -28.1110  -55.3520 H         1 UNK         0.0600 
    225 H225       -5.1710  -24.7013  -53.2718 H         1 UNK         0.3000 
    226 H226       -4.5673  -23.2638  -55.6769 H         1 UNK         0.0600 
    227 H227       -3.1861  -25.3712  -56.0424 H         1 UNK         0.0600 
    228 H228       -2.1789  -23.9549  -55.8289 H         1 UNK         0.0600 
    229 H229       -2.3801  -25.0899  -54.5023 H         1 UNK         0.0600 
    230 H230       -2.4741  -21.8989  -55.0660 H         1 UNK         0.3000 
    231 H231       -1.6040  -20.2328  -53.9503 H         1 UNK         0.0600 
    232 H232       -2.1989  -21.8389  -51.4138 H         1 UNK         0.0600 
    233 H233       -0.7236  -21.8822  -52.3608 H         1 UNK         0.0600 
    234 H234       -1.1581  -20.4274  -51.4840 H         1 UNK         0.0600 
    235 H235       -2.9820  -19.7059  -51.0577 H         1 UNK         0.3000 
    236 H236       -4.3335  -18.1832  -50.1985 H         1 UNK         0.0600 
    237 H237       -6.2656  -18.7775  -52.4992 H         1 UNK         0.0600 
    238 H238       -6.1351  -19.7196  -51.0162 H         1 UNK         0.0600 
    239 H239       -6.6637  -18.0460  -50.9524 H         1 UNK         0.0600 
    240 H240       -2.2680  -17.1340  -51.4750 H         1 UNK         0.3000 
    241 H241       -2.9071  -14.9473  -53.2264 H         1 UNK         0.0600 
    242 H242       -3.6642  -13.4010  -49.6082 H         1 UNK         0.3800 
    243 H243       -3.6827  -15.1183  -49.8971 H         1 UNK         0.3800 
    244 H244       -0.5180  -14.2302  -52.7542 H         1 UNK         0.0800 
    245 H245       -0.3704  -15.5309  -51.6116 H         1 UNK         0.0800 
    246 H246        0.1270  -18.6212  -53.8561 H         1 UNK         0.0800 
    247 H247       -0.7691  -18.1662  -52.4276 H         1 UNK         0.0800 
@<TRIPOS>BOND
     1    1    2 1    
     2    1  127 1    
     3    1  128 1    
     4    1  129 1    
     5    2    3 2    
     6    2    4 am   BACKBONE|DICT|INTERRES
     7    4    5 1    
     8    4  130 1    
     9    5    6 1    
    10    5   65 1    
    11    5  131 1    
    12    6    7 1    
    13    6  132 1    
    14    6  133 1    
    15    7    8 1    
    16    8    9 1    
    17    8  134 1    
    18    8  135 1    
    19    9   10 ar   
    20    9   14 ar   
    21   10   11 ar   
    22   10  136 1    
    23   11   12 ar   
    24   11  126 1    
    25   12   13 ar   
    26   12  137 1    
    27   13   14 ar   
    28   13   15 1    
    29   14  138 1    
    30   15   16 1    
    31   15  139 1    
    32   15  140 1    
    33   16   17 1    
    34   17   18 1    
    35   17  141 1    
    36   17  142 1    
    37   18   19 1    
    38   18   67 1    
    39   18  143 1    
    40   19   20 am   BACKBONE|DICT|INTERRES
    41   19  144 1    
    42   20   21 2    
    43   20   22 1    
    44   22   23 1    
    45   22   24 1    
    46   22  145 1    
    47   23  146 1    
    48   23  147 1    
    49   23  148 1    
    50   24   25 am   BACKBONE|DICT|INTERRES
    51   24  149 1    
    52   25   26 2    
    53   25   27 1    
    54   27   28 1    
    55   27   29 1    
    56   27  150 1    
    57   28  151 1    
    58   28  152 1    
    59   28  153 1    
    60   29   30 am   BACKBONE|DICT|INTERRES
    61   29  154 1    
    62   30   31 2    
    63   30   32 1    
    64   32   33 1    
    65   32   34 1    
    66   32  155 1    
    67   33  156 1    
    68   33  157 1    
    69   33  158 1    
    70   34   35 am   BACKBONE|DICT|INTERRES
    71   34  159 1    
    72   35   36 2    
    73   35   37 1    
    74   37   38 1    
    75   37   39 1    
    76   37  160 1    
    77   38  161 1    
    78   38  162 1    
    79   38  163 1    
    80   39   40 am   BACKBONE|DICT|INTERRES
    81   39  164 1    
    82   40   41 2    
    83   40   42 1    
    84   42   43 1    
    85   42   44 1    
    86   42  165 1    
    87   43  166 1    
    88   43  167 1    
    89   43  168 1    
    90   44   45 am   BACKBONE|DICT|INTERRES
    91   44  169 1    
    92   45   46 2    
    93   45   47 1    
    94   47   48 1    
    95   47   49 1    
    96   47  170 1    
    97   48  171 1    
    98   48  172 1    
    99   48  173 1    
   100   49   50 am   BACKBONE|DICT|INTERRES
   101   49  174 1    
   102   50   51 2    
   103   50   52 1    
   104   52   53 1    
   105   52   54 1    
   106   52  175 1    
   107   53  176 1    
   108   53  177 1    
   109   53  178 1    
   110   54   55 am   BACKBONE|DICT|INTERRES
   111   54  179 1    
   112   55   56 2    
   113   55   57 1    
   114   57   58 1    
   115   57   59 1    
   116   57  180 1    
   117   58  181 1    
   118   58  182 1    
   119   58  183 1    
   120   59   60 am   BACKBONE|DICT|INTERRES
   121   59  184 1    
   122   60   61 2    
   123   60   62 1    
   124   62   63 1    
   125   62   64 1    
   126   62  185 1    
   127   63  186 1    
   128   63  187 1    
   129   63  188 1    
   130   64   65 am   BACKBONE|DICT|INTERRES
   131   64  189 1    
   132   65   66 2    
   133   67   68 2    
   134   67   69 am   BACKBONE|DICT|INTERRES
   135   69   70 1    
   136   69  190 1    
   137   70   71 1    
   138   70   72 1    
   139   70  191 1    
   140   71  192 1    
   141   71  193 1    
   142   71  194 1    
   143   72   73 2    
   144   72   74 am   BACKBONE|DICT|INTERRES
   145   74   75 1    
   146   74  195 1    
   147   75   76 1    
   148   75   77 1    
   149   75  196 1    
   150   76  197 1    
   151   76  198 1    
   152   76  199 1    
   153   77   78 2    
   154   77   79 am   BACKBONE|DICT|INTERRES
   155   79   80 1    
   156   79  200 1    
   157   80   81 1    
   158   80   82 1    
   159   80  201 1    
   160   81  202 1    
   161   81  203 1    
   162   81  204 1    
   163   82   83 2    
   164   82   84 am   BACKBONE|DICT|INTERRES
   165   84   85 1    
   166   84  205 1    
   167   85   86 1    
   168   85   87 1    
   169   85  206 1    
   170   86  207 1    
   171   86  208 1    
   172   86  209 1    
   173   87   88 2    
   174   87   89 am   BACKBONE|DICT|INTERRES
   175   89   90 1    
   176   89  210 1    
   177   90   91 1    
   178   90   92 1    
   179   90  211 1    
   180   91  212 1    
   181   91  213 1    
   182   91  214 1    
   183   92   93 2    
   184   92   94 am   BACKBONE|DICT|INTERRES
   185   94   95 1    
   186   94  215 1    
   187   95   96 1    
   188   95   97 1    
   189   95  216 1    
   190   96  217 1    
   191   96  218 1    
   192   96  219 1    
   193   97   98 2    
   194   97   99 am   BACKBONE|DICT|INTERRES
   195   99  100 1    
   196   99  220 1    
   197  100  101 1    
   198  100  102 1    
   199  100  221 1    
   200  101  222 1    
   201  101  223 1    
   202  101  224 1    
   203  102  103 2    
   204  102  104 am   BACKBONE|DICT|INTERRES
   205  104  105 1    
   206  104  225 1    
   207  105  106 1    
   208  105  107 1    
   209  105  226 1    
   210  106  227 1    
   211  106  228 1    
   212  106  229 1    
   213  107  108 2    
   214  107  109 am   BACKBONE|DICT|INTERRES
   215  109  110 1    
   216  109  230 1    
   217  110  111 1    
   218  110  112 1    
   219  110  231 1    
   220  111  232 1    
   221  111  233 1    
   222  111  234 1    
   223  112  113 2    
   224  112  114 am   BACKBONE|DICT|INTERRES
   225  114  115 1    
   226  114  235 1    
   227  115  116 1    
   228  115  117 1    
   229  115  236 1    
   230  116  237 1    
   231  116  238 1    
   232  116  239 1    
   233  117  118 2    
   234  117  119 am   BACKBONE|DICT|INTERRES
   235  119  120 1    
   236  119  240 1    
   237  120  121 1    
   238  120  124 1    
   239  120  241 1    
   240  121  122 am   BACKBONE|DICT|INTERRES
   241  121  123 2    
   242  122  242 1    
   243  122  243 1    
   244  124  125 1    
   245  124  244 1    
   246  124  245 1    
   247  125  126 1    
   248  126  246 1    
   249  126  247 1    
@<TRIPOS>SUBSTRUCTURE
     1 UNK         1 GROUP             0       ****    0 ROOT    
