@<TRIPOS>MOLECULE
3R540
247   249    1
SMALL
USER_CHARGES


@<TRIPOS>ATOM
      1 CA          1.1960  -17.9290  -51.3304 C.3       0 UNK        -0.1800 
      2 C           1.2255  -17.2799  -49.9542 C.2       0 UNK         0.5000 
      3 O           2.1811  -17.4754  -49.2059 O.2       0 UNK        -0.5000 
      4 N           0.1929  -16.4929  -49.6239 N.am      1 UNK        -0.5000 
      5 CA         -0.0350  -15.8712  -48.3092 C.3       1 UNK         0.1400 
      6 C6         -1.3719  -15.0918  -48.2664 C.3       23 UNK        -0.0398 
      7 S7         -2.8077  -16.1691  -48.5753 S.3       23 UNK        -0.2404 
      8 C8         -3.7983  -15.8893  -47.0745 C.3       23 UNK        -0.0205 
      9 C9         -5.0119  -16.8040  -47.0344 C.ar      23 UNK        -0.0193 
     10 C10        -5.9982  -16.7002  -48.0171 C.ar      23 UNK        -0.1150 
     11 C11        -7.1005  -17.5560  -48.0094 C.ar      23 UNK        -0.0193 
     12 C12        -7.2307  -18.4977  -46.9857 C.ar      23 UNK        -0.1150 
     13 C13        -6.2702  -18.5984  -45.9744 C.ar      23 UNK        -0.0193 
     14 C14        -5.1562  -17.7464  -46.0126 C.ar      23 UNK        -0.1150 
     15 C15        -6.5146  -19.6105  -44.8528 C.3       23 UNK        -0.0205 
     16 S16        -5.1476  -19.8336  -43.6640 S.3       23 UNK        -0.2404 
     17 C17        -4.1677  -21.1590  -44.4390 C.3       23 UNK        -0.0398 
     18 CA         -3.1091  -20.6849  -45.4679 C.3       11 UNK         0.1400 
     19 N          -2.1270  -19.7350  -44.9245 N.am      11 UNK        -0.5000 
     20 C          -1.1756  -19.1263  -45.6529 C.2       10 UNK         0.5000 
     21 O          -1.0701  -19.2457  -46.8735 O.2       10 UNK        -0.5000 
     22 CA         -0.1168  -18.3042  -44.8910 C.3       10 UNK         0.1400 
     23 CB         -0.6289  -16.8978  -44.5456 C.3       10 UNK        -0.1800 
     24 N           0.3453  -18.9756  -43.6762 N.am      10 UNK        -0.5000 
     25 C           1.0055  -20.1420  -43.6571 C.2       9 UNK         0.5000 
     26 O           1.3548  -20.7429  -44.6704 O.2       9 UNK        -0.5000 
     27 CA          1.2781  -20.7751  -42.2818 C.3       9 UNK         0.1400 
     28 CB          2.5584  -20.2130  -41.6520 C.3       9 UNK        -0.1800 
     29 N           0.1581  -20.5922  -41.3623 N.am      9 UNK        -0.5000 
     30 C          -1.0301  -21.1970  -41.4939 C.2       8 UNK         0.5000 
     31 O          -1.2917  -22.0106  -42.3810 O.2       8 UNK        -0.5000 
     32 CA         -2.1210  -20.7818  -40.4894 C.3       8 UNK         0.1400 
     33 CB         -1.9995  -21.5920  -39.1905 C.3       8 UNK        -0.1800 
     34 N          -2.0920  -19.3499  -40.1756 N.am      8 UNK        -0.5000 
     35 C          -2.3235  -18.3835  -41.0749 C.2       7 UNK         0.5000 
     36 O          -2.5545  -18.6001  -42.2618 O.2       7 UNK        -0.5000 
     37 CA         -2.2266  -16.9311  -40.5799 C.3       7 UNK         0.1400 
     38 CB         -3.4806  -16.5412  -39.7827 C.3       7 UNK        -0.1800 
     39 N          -1.0303  -16.6632  -39.7781 N.am      7 UNK        -0.5000 
     40 C           0.2281  -16.8029  -40.2151 C.2       6 UNK         0.5000 
     41 O           0.5281  -17.2769  -41.3126 O.2       6 UNK        -0.5000 
     42 CA          1.3434  -16.3599  -39.2551 C.3       6 UNK         0.1400 
     43 CB          1.9952  -17.5755  -38.5786 C.3       6 UNK        -0.1800 
     44 N           2.3657  -15.5972  -39.9701 N.am      6 UNK        -0.5000 
     45 C           2.2197  -14.3268  -40.3735 C.2       5 UNK         0.5000 
     46 O           1.2245  -13.6437  -40.1278 O.2       5 UNK        -0.5000 
     47 CA          3.3826  -13.7055  -41.1703 C.3       5 UNK         0.1400 
     48 CB          4.3446  -12.9685  -40.2251 C.3       5 UNK        -0.1800 
     49 N           4.1366  -14.6991  -41.9379 N.am      5 UNK        -0.5000 
     50 C           3.7710  -15.1537  -43.1428 C.2       4 UNK         0.5000 
     51 O           2.7743  -14.7650  -43.7531 O.2       4 UNK        -0.5000 
     52 CA          4.6657  -16.2392  -43.7527 C.3       4 UNK         0.1400 
     53 CB          4.2264  -17.6334  -43.2786 C.3       4 UNK        -0.1800 
     54 N           4.6111  -16.1824  -45.2112 N.am      4 UNK        -0.5000 
     55 C           5.6228  -16.5301  -46.0168 C.2       3 UNK         0.5000 
     56 O           6.7146  -16.9203  -45.5993 O.2       3 UNK        -0.5000 
     57 CA          5.4012  -16.4571  -47.5410 C.3       3 UNK         0.1400 
     58 CB          5.2067  -17.8698  -48.1098 C.3       3 UNK        -0.1800 
     59 N           4.2776  -15.6167  -47.9614 N.am      3 UNK        -0.5000 
     60 C           4.2622  -14.2771  -47.8906 C.2       2 UNK         0.5000 
     61 O           5.1812  -13.6170  -47.4040 O.2       2 UNK        -0.5000 
     62 CA          3.0420  -13.5350  -48.4781 C.3       2 UNK         0.1400 
     63 CB          3.4297  -12.8081  -49.7758 C.3       2 UNK        -0.1800 
     64 N           1.8915  -14.3962  -48.7558 N.am      2 UNK        -0.5000 
     65 C           1.1104  -14.9562  -47.8230 C.2       1 UNK         0.5000 
     66 O           1.2679  -14.7818  -46.6165 O.2       1 UNK        -0.5000 
     67 C          -2.4207  -21.9199  -46.0838 C.2       11 UNK         0.5000 
     68 O          -2.7489  -22.3035  -47.2072 O.2       11 UNK        -0.5000 
     69 N          -1.4678  -22.5079  -45.3442 N.am      12 UNK        -0.5000 
     70 CA         -0.6810  -23.6628  -45.7779 C.3       12 UNK         0.1400 
     71 CB          0.1864  -24.1674  -44.6156 C.3       12 UNK        -0.1800 
     72 C           0.1790  -23.3637  -47.0178 C.2       12 UNK         0.5000 
     73 O           0.2256  -24.1848  -47.9324 O.2       12 UNK        -0.5000 
     74 N           0.8060  -22.1809  -47.0492 N.am      13 UNK        -0.5000 
     75 CA          1.5841  -21.6866  -48.1815 C.3       13 UNK         0.1400 
     76 CB          2.3314  -20.4095  -47.7830 C.3       13 UNK        -0.1800 
     77 C           0.7266  -21.4559  -49.4366 C.2       13 UNK         0.5000 
     78 O           1.1434  -21.8545  -50.5219 O.2       13 UNK        -0.5000 
     79 N          -0.4675  -20.8675  -49.2738 N.am      14 UNK        -0.5000 
     80 CA         -1.4427  -20.6779  -50.3515 C.3       14 UNK         0.1400 
     81 CB         -2.5975  -19.7986  -49.8549 C.3       14 UNK        -0.1800 
     82 C          -1.9713  -22.0064  -50.9233 C.2       14 UNK         0.5000 
     83 O          -2.1432  -22.1199  -52.1388 O.2       14 UNK        -0.5000 
     84 N          -2.1845  -22.9969  -50.0460 N.am      15 UNK        -0.5000 
     85 CA         -2.5537  -24.3619  -50.4164 C.3       15 UNK         0.1400 
     86 CB         -2.9885  -25.1417  -49.1665 C.3       15 UNK        -0.1800 
     87 C          -1.4206  -25.0901  -51.1630 C.2       15 UNK         0.5000 
     88 O          -1.6813  -25.7088  -52.1944 O.2       15 UNK        -0.5000 
     89 N          -0.1831  -24.9716  -50.6596 N.am      16 UNK        -0.5000 
     90 CA          1.0267  -25.5393  -51.2625 C.3       16 UNK         0.1400 
     91 CB          2.2059  -25.3896  -50.2897 C.3       16 UNK        -0.1800 
     92 C           1.3689  -24.9188  -52.6302 C.2       16 UNK         0.5000 
     93 O           1.7728  -25.6413  -53.5420 O.2       16 UNK        -0.5000 
     94 N           1.1656  -23.6006  -52.7596 N.am      17 UNK        -0.5000 
     95 CA          1.2957  -22.8447  -54.0075 C.3       17 UNK         0.1400 
     96 CB          1.3420  -21.3435  -53.6787 C.3       17 UNK        -0.1800 
     97 C           0.1667  -23.1310  -55.0183 C.2       17 UNK         0.5000 
     98 O           0.3129  -22.7799  -56.1897 O.2       17 UNK        -0.5000 
     99 N          -0.9282  -23.7479  -54.5478 N.am      18 UNK        -0.5000 
    100 CA        -2.1573  -24.0753  -55.2707 C.3       18 UNK         0.1400 
    101 CB        -1.8929  -25.1396  -56.3559 C.3       18 UNK        -0.1800 
    102 C         -2.8553  -22.8106  -55.8049 C.2       18 UNK         0.5000 
    103 O         -3.1313  -22.7104  -57.0020 O.2       18 UNK        -0.5000 
    104 N         -3.1068  -21.8565  -54.8945 N.am      19 UNK        -0.5000 
    105 CA        -3.7375  -20.5629  -55.1763 C.3       19 UNK         0.1400 
    106 CB        -3.7725  -19.7273  -53.8868 C.3       19 UNK        -0.1800 
    107 C         -5.1481  -20.6785  -55.7895 C.2       19 UNK         0.5000 
    108 O         -5.4981  -19.8717  -56.6507 O.2       19 UNK        -0.5000 
    109 N         -5.9119  -21.6899  -55.3433 N.am      20 UNK        -0.5000 
    110 CA        -7.1932  -22.1622  -55.8931 C.3       20 UNK         0.1400 
    111 CB        -6.9646  -22.7958  -57.2813 C.3       20 UNK        -0.1800 
    112 C         -8.3374  -21.1215  -55.9112 C.2       20 UNK         0.5000 
    113 O         -9.3125  -21.2991  -56.6437 O.2       20 UNK        -0.5000 
    114 N         -8.2125  -20.0701  -55.0955 N.am      21 UNK        -0.5000 
    115 CA        -9.1529  -18.9579  -54.9620 C.3       21 UNK         0.1400 
    116 CB        -9.2151  -18.1117  -56.2500 C.3       21 UNK        -0.1800 
    117 C         -8.7451  -18.0841  -53.7697 C.2       21 UNK         0.5000 
    118 O         -9.6148  -17.6676  -53.0062 O.2       21 UNK        -0.5000 
    119 N         -7.4296  -17.8427  -53.6441 N.am      22 UNK        -0.5000 
    120 CA        -6.7167  -17.1349  -52.5598 C.3       22 UNK         0.1400 
    121 C         -7.1617  -15.6763  -52.2245 C.2       22 UNK         0.5000 
    122 N         -8.0369  -15.0474  -52.9973 N.am      22 UNK        -0.7600 
    123 O         -6.6603  -15.0766  -51.2782 O.2       22 UNK        -0.5000 
    124 C124       -6.4403  -18.0218  -51.3075 C.3       23 UNK        -0.0398 
    125 S125       -7.9006  -18.6764  -50.4214 S.3       23 UNK        -0.2404 
    126 C126       -8.1583  -17.4540  -49.0965 C.3       23 UNK        -0.0205 
    127 H127        1.3847  -18.9989  -51.2443 H         1 UNK         0.0600 
    128 H128        1.9699  -17.4975  -51.9648 H         1 UNK         0.0600 
    129 H129        0.2325  -17.7933  -51.8221 H         1 UNK         0.0600 
    130 H130       -0.5598  -16.3702  -50.2860 H         1 UNK         0.3000 
    131 H131       -0.0949  -16.6931  -47.5945 H         1 UNK         0.0600 
    132 H132       -1.5007  -14.6002  -47.3001 H         1 UNK         0.0800 
    133 H133       -1.3752  -14.2949  -49.0121 H         1 UNK         0.0800 
    134 H134       -4.1286  -14.8501  -47.0451 H         1 UNK         0.0800 
    135 H135       -3.1741  -16.0468  -46.1944 H         1 UNK         0.0800 
    136 H136       -5.8940  -15.9624  -48.8005 H         1 UNK         0.1150 
    137 H137       -8.0931  -19.1498  -46.9722 H         1 UNK         0.1150 
    138 H138       -4.3964  -17.7997  -45.2470 H         1 UNK         0.1150 
    139 H139       -7.3861  -19.2748  -44.2893 H         1 UNK         0.0800 
    140 H140       -6.7865  -20.5758  -45.2821 H         1 UNK         0.0800 
    141 H141       -4.8572  -21.8680  -44.9009 H         1 UNK         0.0800 
    142 H142       -3.6837  -21.7066  -43.6288 H         1 UNK         0.0800 
    143 H143       -3.6327  -20.1752  -46.2788 H         1 UNK         0.0600 
    144 H144       -2.1891  -19.5305  -43.9304 H         1 UNK         0.3000 
    145 H145        0.7472  -18.1890  -45.5491 H         1 UNK         0.0600 
    146 H146        0.1457  -16.3088  -44.0529 H         1 UNK         0.0600 
    147 H147       -0.9218  -16.3555  -45.4426 H         1 UNK         0.0600 
    148 H148       -1.4965  -16.9261  -43.8889 H         1 UNK         0.0600 
    149 H149        0.1432  -18.5116  -42.7957 H         1 UNK         0.3000 
    150 H150        1.4217  -21.8471  -42.4315 H         1 UNK         0.0600 
    151 H151        3.4161  -20.3727  -42.3065 H         1 UNK         0.0600 
    152 H152        2.7790  -20.6992  -40.7017 H         1 UNK         0.0600 
    153 H153        2.4756  -19.1424  -41.4709 H         1 UNK         0.0600 
    154 H154        0.2703  -19.8993  -40.6377 H         1 UNK         0.3000 
    155 H155       -3.0887  -21.0059  -40.9436 H         1 UNK         0.0600 
    156 H156       -1.0619  -21.3868  -38.6724 H         1 UNK         0.0600 
    157 H157       -2.0346  -22.6631  -39.3945 H         1 UNK         0.0600 
    158 H158       -2.8180  -21.3659  -38.5068 H         1 UNK         0.0600 
    159 H159       -1.8923  -19.0901  -39.2210 H         1 UNK         0.3000 
    160 H160       -2.1772  -16.2897  -41.4624 H         1 UNK         0.0600 
    161 H161       -3.4709  -15.4818  -39.5258 H         1 UNK         0.0600 
    162 H162       -3.5655  -17.1108  -38.8565 H         1 UNK         0.0600 
    163 H163       -4.3850  -16.7242  -40.3648 H         1 UNK         0.0600 
    164 H164       -1.1868  -16.2783  -38.8579 H         1 UNK         0.3000 
    165 H165        0.9139  -15.7253  -38.4768 H         1 UNK         0.0600 
    166 H166        2.7438  -17.2640  -37.8500 H         1 UNK         0.0600 
    167 H167        1.2535  -18.1720  -38.0460 H         1 UNK         0.0600 
    168 H168        2.4854  -18.2285  -39.3003 H         1 UNK         0.0600 
    169 H169        3.1926  -16.1007  -40.2508 H         1 UNK         0.3000 
    170 H170        2.9578  -12.9700  -41.8572 H         1 UNK         0.0600 
    171 H171        3.8192  -12.2022  -39.6534 H         1 UNK         0.0600 
    172 H172        4.8101  -13.6490  -39.5109 H         1 UNK         0.0600 
    173 H173        5.1386  -12.4697  -40.7811 H         1 UNK         0.0600 
    174 H174        4.9765  -15.0591  -41.5075 H         1 UNK         0.3000 
    175 H175        5.6889  -16.0531  -43.4188 H         1 UNK         0.0600 
    176 H176        4.2836  -17.7106  -42.1926 H         1 UNK         0.0600 
    177 H177        4.8636  -18.4148  -43.6929 H         1 UNK         0.0600 
    178 H178        3.1983  -17.8474  -43.5740 H         1 UNK         0.0600 
    179 H179        3.7521  -15.8141  -45.6016 H         1 UNK         0.3000 
    180 H180        6.3106  -16.0413  -47.9799 H         1 UNK         0.0600 
    181 H181        4.3304  -18.3492  -47.6744 H         1 UNK         0.0600 
    182 H182        6.0680  -18.5033  -47.8944 H         1 UNK         0.0600 
    183 H183        5.0784  -17.8507  -49.1923 H         1 UNK         0.0600 
    184 H184        3.4852  -16.1000  -48.3726 H         1 UNK         0.3000 
    185 H185        2.7376  -12.7848  -47.7453 H         1 UNK         0.0600 
    186 H186        4.2607  -12.1216  -49.6081 H         1 UNK         0.0600 
    187 H187        3.7354  -13.5096  -50.5530 H         1 UNK         0.0600 
    188 H188        2.5980  -12.2186  -50.1622 H         1 UNK         0.0600 
    189 H189        1.7055  -14.6083  -49.7251 H         1 UNK         0.3000 
    190 H190       -1.2765  -22.1522  -44.4129 H         1 UNK         0.3000 
    191 H191       -1.3813  -24.4566  -46.0458 H         1 UNK         0.0600 
    192 H192        0.9064  -23.4156  -44.2931 H         1 UNK         0.0600 
    193 H193        0.7481  -25.0560  -44.9062 H         1 UNK         0.0600 
    194 H194       -0.4255  -24.4358  -43.7541 H         1 UNK         0.0600 
    195 H195        0.7717  -21.5831  -46.2267 H         1 UNK         0.3000 
    196 H196        2.3294  -22.4459  -48.4261 H         1 UNK         0.0600 
    197 H197        2.9285  -20.0400  -48.6172 H         1 UNK         0.0600 
    198 H198        3.0107  -20.5906  -46.9501 H         1 UNK         0.0600 
    199 H199        1.6453  -19.6146  -47.4894 H         1 UNK         0.0600 
    200 H200       -0.7285  -20.5230  -48.3540 H         1 UNK         0.3000 
    201 H201       -0.9423  -20.1487  -51.1644 H         1 UNK         0.0600 
    202 H202       -2.2258  -18.8328  -49.5172 H         1 UNK         0.0600 
    203 H203       -3.1299  -20.2588  -49.0220 H         1 UNK         0.0600 
    204 H204       -3.3216  -19.6114  -50.6486 H         1 UNK         0.0600 
    205 H205       -2.0784  -22.8018  -49.0554 H         1 UNK         0.3000 
    206 H206       -3.4114  -24.3044  -51.0901 H         1 UNK         0.0600 
    207 H207       -3.8305  -24.6556  -48.6733 H         1 UNK         0.0600 
    208 H208       -3.3028  -26.1528  -49.4278 H         1 UNK         0.0600 
    209 H209       -2.1815  -25.2270  -48.4392 H         1 UNK         0.0600 
    210 H210       -0.0606  -24.4869  -49.7737 H         1 UNK         0.3000 
    211 H211        0.8502  -26.6054  -51.4187 H         1 UNK         0.0600 
    212 H212        2.4145  -24.3424  -50.0695 H         1 UNK         0.0600 
    213 H213        3.1147  -25.8258  -50.7060 H         1 UNK         0.0600 
    214 H214        2.0047  -25.8962  -49.3456 H         1 UNK         0.0600 
    215 H215        0.9172  -23.0614  -51.9330 H         1 UNK         0.3000 
    216 H216        2.2398  -23.1223  -54.4806 H         1 UNK         0.0600 
    217 H217        1.4702  -20.7462  -54.5822 H         1 UNK         0.0600 
    218 H218        2.1748  -21.1096  -53.0153 H         1 UNK         0.0600 
    219 H219        0.4232  -21.0119  -53.1933 H         1 UNK         0.0600 
    220 H220       -0.9397  -23.9778  -53.5629 H         1 UNK         0.3000 
    221 H221       -2.8360  -24.5158  -54.5388 H         1 UNK         0.0600 
    222 H222       -2.8256  -25.4589  -56.8222 H         1 UNK         0.0600 
    223 H223       -1.4230  -26.0258  -55.9293 H         1 UNK         0.0600 
    224 H224       -1.2441  -24.7645  -57.1478 H         1 UNK         0.0600 
    225 H225       -2.7994  -22.0086  -53.9363 H         1 UNK         0.3000 
    226 H226       -3.1074  -20.0445  -55.9017 H         1 UNK         0.0600 
    227 H227       -4.2179  -18.7481  -54.0650 H         1 UNK         0.0600 
    228 H228       -4.3517  -20.2199  -53.1051 H         1 UNK         0.0600 
    229 H229       -2.7671  -19.5597  -53.4996 H         1 UNK         0.0600 
    230 H230       -5.5212  -22.2668  -54.6117 H         1 UNK         0.3000 
    231 H231       -7.5303  -22.9557  -55.2248 H         1 UNK         0.0600 
    232 H232       -6.1764  -23.5482  -57.2462 H         1 UNK         0.0600 
    233 H233       -6.6791  -22.0481  -58.0220 H         1 UNK         0.0600 
    234 H234       -7.8659  -23.2906  -57.6448 H         1 UNK         0.0600 
    235 H235       -7.4151  -20.0481  -54.4767 H         1 UNK         0.3000 
    236 H236      -10.1443  -19.3663  -54.7554 H         1 UNK         0.0600 
    237 H237       -9.6319  -18.6772  -57.0830 H         1 UNK         0.0600 
    238 H238       -9.8498  -17.2354  -56.1119 H         1 UNK         0.0600 
    239 H239       -8.2268  -17.7598  -56.5483 H         1 UNK         0.0600 
    240 H240       -6.8364  -18.1495  -54.4008 H         1 UNK         0.3000 
    241 H241       -5.7324  -16.9643  -52.9974 H         1 UNK         0.0600 
    242 H242       -8.2982  -14.0986  -52.7802 H         1 UNK         0.3800 
    243 H243       -8.4862  -15.5319  -53.7574 H         1 UNK         0.3800 
    244 H244       -5.7834  -17.5040  -50.6098 H         1 UNK         0.0800 
    245 H245       -5.8643  -18.8914  -51.6239 H         1 UNK         0.0800 
    246 H246       -9.1434  -17.6199  -48.6581 H         1 UNK         0.0800 
    247 H247       -8.1850  -16.4485  -49.5168 H         1 UNK         0.0800 
@<TRIPOS>BOND
     1    1    2 1    
     2    1  127 1    
     3    1  128 1    
     4    1  129 1    
     5    2    3 2    
     6    2    4 am   BACKBONE|DICT|INTERRES
     7    4    5 1    
     8    4  130 1    
     9    5    6 1    
    10    5   65 1    
    11    5  131 1    
    12    6    7 1    
    13    6  132 1    
    14    6  133 1    
    15    7    8 1    
    16    8    9 1    
    17    8  134 1    
    18    8  135 1    
    19    9   10 ar   
    20    9   14 ar   
    21   10   11 ar   
    22   10  136 1    
    23   11   12 ar   
    24   11  126 1    
    25   12   13 ar   
    26   12  137 1    
    27   13   14 ar   
    28   13   15 1    
    29   14  138 1    
    30   15   16 1    
    31   15  139 1    
    32   15  140 1    
    33   16   17 1    
    34   17   18 1    
    35   17  141 1    
    36   17  142 1    
    37   18   19 1    
    38   18   67 1    
    39   18  143 1    
    40   19   20 am   BACKBONE|DICT|INTERRES
    41   19  144 1    
    42   20   21 2    
    43   20   22 1    
    44   22   23 1    
    45   22   24 1    
    46   22  145 1    
    47   23  146 1    
    48   23  147 1    
    49   23  148 1    
    50   24   25 am   BACKBONE|DICT|INTERRES
    51   24  149 1    
    52   25   26 2    
    53   25   27 1    
    54   27   28 1    
    55   27   29 1    
    56   27  150 1    
    57   28  151 1    
    58   28  152 1    
    59   28  153 1    
    60   29   30 am   BACKBONE|DICT|INTERRES
    61   29  154 1    
    62   30   31 2    
    63   30   32 1    
    64   32   33 1    
    65   32   34 1    
    66   32  155 1    
    67   33  156 1    
    68   33  157 1    
    69   33  158 1    
    70   34   35 am   BACKBONE|DICT|INTERRES
    71   34  159 1    
    72   35   36 2    
    73   35   37 1    
    74   37   38 1    
    75   37   39 1    
    76   37  160 1    
    77   38  161 1    
    78   38  162 1    
    79   38  163 1    
    80   39   40 am   BACKBONE|DICT|INTERRES
    81   39  164 1    
    82   40   41 2    
    83   40   42 1    
    84   42   43 1    
    85   42   44 1    
    86   42  165 1    
    87   43  166 1    
    88   43  167 1    
    89   43  168 1    
    90   44   45 am   BACKBONE|DICT|INTERRES
    91   44  169 1    
    92   45   46 2    
    93   45   47 1    
    94   47   48 1    
    95   47   49 1    
    96   47  170 1    
    97   48  171 1    
    98   48  172 1    
    99   48  173 1    
   100   49   50 am   BACKBONE|DICT|INTERRES
   101   49  174 1    
   102   50   51 2    
   103   50   52 1    
   104   52   53 1    
   105   52   54 1    
   106   52  175 1    
   107   53  176 1    
   108   53  177 1    
   109   53  178 1    
   110   54   55 am   BACKBONE|DICT|INTERRES
   111   54  179 1    
   112   55   56 2    
   113   55   57 1    
   114   57   58 1    
   115   57   59 1    
   116   57  180 1    
   117   58  181 1    
   118   58  182 1    
   119   58  183 1    
   120   59   60 am   BACKBONE|DICT|INTERRES
   121   59  184 1    
   122   60   61 2    
   123   60   62 1    
   124   62   63 1    
   125   62   64 1    
   126   62  185 1    
   127   63  186 1    
   128   63  187 1    
   129   63  188 1    
   130   64   65 am   BACKBONE|DICT|INTERRES
   131   64  189 1    
   132   65   66 2    
   133   67   68 2    
   134   67   69 am   BACKBONE|DICT|INTERRES
   135   69   70 1    
   136   69  190 1    
   137   70   71 1    
   138   70   72 1    
   139   70  191 1    
   140   71  192 1    
   141   71  193 1    
   142   71  194 1    
   143   72   73 2    
   144   72   74 am   BACKBONE|DICT|INTERRES
   145   74   75 1    
   146   74  195 1    
   147   75   76 1    
   148   75   77 1    
   149   75  196 1    
   150   76  197 1    
   151   76  198 1    
   152   76  199 1    
   153   77   78 2    
   154   77   79 am   BACKBONE|DICT|INTERRES
   155   79   80 1    
   156   79  200 1    
   157   80   81 1    
   158   80   82 1    
   159   80  201 1    
   160   81  202 1    
   161   81  203 1    
   162   81  204 1    
   163   82   83 2    
   164   82   84 am   BACKBONE|DICT|INTERRES
   165   84   85 1    
   166   84  205 1    
   167   85   86 1    
   168   85   87 1    
   169   85  206 1    
   170   86  207 1    
   171   86  208 1    
   172   86  209 1    
   173   87   88 2    
   174   87   89 am   BACKBONE|DICT|INTERRES
   175   89   90 1    
   176   89  210 1    
   177   90   91 1    
   178   90   92 1    
   179   90  211 1    
   180   91  212 1    
   181   91  213 1    
   182   91  214 1    
   183   92   93 2    
   184   92   94 am   BACKBONE|DICT|INTERRES
   185   94   95 1    
   186   94  215 1    
   187   95   96 1    
   188   95   97 1    
   189   95  216 1    
   190   96  217 1    
   191   96  218 1    
   192   96  219 1    
   193   97   98 2    
   194   97   99 am   BACKBONE|DICT|INTERRES
   195   99  100 1    
   196   99  220 1    
   197  100  101 1    
   198  100  102 1    
   199  100  221 1    
   200  101  222 1    
   201  101  223 1    
   202  101  224 1    
   203  102  103 2    
   204  102  104 am   BACKBONE|DICT|INTERRES
   205  104  105 1    
   206  104  225 1    
   207  105  106 1    
   208  105  107 1    
   209  105  226 1    
   210  106  227 1    
   211  106  228 1    
   212  106  229 1    
   213  107  108 2    
   214  107  109 am   BACKBONE|DICT|INTERRES
   215  109  110 1    
   216  109  230 1    
   217  110  111 1    
   218  110  112 1    
   219  110  231 1    
   220  111  232 1    
   221  111  233 1    
   222  111  234 1    
   223  112  113 2    
   224  112  114 am   BACKBONE|DICT|INTERRES
   225  114  115 1    
   226  114  235 1    
   227  115  116 1    
   228  115  117 1    
   229  115  236 1    
   230  116  237 1    
   231  116  238 1    
   232  116  239 1    
   233  117  118 2    
   234  117  119 am   BACKBONE|DICT|INTERRES
   235  119  120 1    
   236  119  240 1    
   237  120  121 1    
   238  120  124 1    
   239  120  241 1    
   240  121  122 am   BACKBONE|DICT|INTERRES
   241  121  123 2    
   242  122  242 1    
   243  122  243 1    
   244  124  125 1    
   245  124  244 1    
   246  124  245 1    
   247  125  126 1    
   248  126  246 1    
   249  126  247 1    
@<TRIPOS>SUBSTRUCTURE
     1 UNK         1 GROUP             0       ****    0 ROOT    
