@<TRIPOS>MOLECULE
3R540
247   249    1
SMALL
USER_CHARGES


@<TRIPOS>ATOM
      1 CA          2.1057   -9.9821  -47.2791 C.3       0 UNK        -0.1800 
      2 C           2.8817  -11.1888  -47.7872 C.2       0 UNK         0.5000 
      3 O           4.0415  -11.0530  -48.1770 O.2       0 UNK        -0.5000 
      4 N           2.2479  -12.3685  -47.7809 N.am      1 UNK        -0.5000 
      5 CA          2.8328  -13.6419  -48.2271 C.3       1 UNK         0.1400 
      6 C6          1.7449  -14.7022  -48.5235 C.3       23 UNK        -0.0398 
      7 S7          0.6991  -14.2210  -49.9363 S.3       23 UNK        -0.2404 
      8 C8          1.5880  -15.0190  -51.3098 C.3       23 UNK        -0.0205 
      9 C9          1.1770  -16.4731  -51.4823 C.ar      23 UNK        -0.0193 
     10 C10         0.1085  -16.7949  -52.3231 C.ar      23 UNK        -0.1150 
     11 C11        -0.2550  -18.1270  -52.5291 C.ar      23 UNK        -0.0193 
     12 C12         0.4346  -19.1383  -51.8529 C.ar      23 UNK        -0.1150 
     13 C13         1.4998  -18.8348  -50.9989 C.ar      23 UNK        -0.0193 
     14 C14         1.8790  -17.4972  -50.8374 C.ar      23 UNK        -0.1150 
     15 C15         2.2605  -19.9769  -50.3259 C.3       23 UNK        -0.0205 
     16 S16         2.9138  -19.6195  -48.6553 S.3       23 UNK        -0.2404 
     17 C17         1.4182  -19.2459  -47.6805 C.3       23 UNK        -0.0398 
     18 CA          0.5932  -20.5065  -47.2930 C.3       11 UNK         0.1400 
     19 N           0.1695  -20.4913  -45.8863 N.am      11 UNK        -0.5000 
     20 C          -0.4896  -21.4828  -45.2659 C.2       10 UNK         0.5000 
     21 O          -0.7499  -22.5648  -45.7894 O.2       10 UNK        -0.5000 
     22 CA         -0.9988  -21.2042  -43.8396 C.3       10 UNK         0.1400 
     23 CB          0.0914  -21.4977  -42.7991 C.3       10 UNK        -0.1800 
     24 N          -1.5033  -19.8393  -43.6756 N.am      10 UNK        -0.5000 
     25 C          -2.5648  -19.3458  -44.3307 C.2       9 UNK         0.5000 
     26 O          -3.2629  -20.0126  -45.0920 O.2       9 UNK        -0.5000 
     27 CA         -2.8758  -17.8500  -44.1510 C.3       9 UNK         0.1400 
     28 CB         -3.7034  -17.6149  -42.8792 C.3       9 UNK        -0.1800 
     29 N          -1.6714  -17.0211  -44.1204 N.am      9 UNK        -0.5000 
     30 C          -0.8067  -16.8876  -45.1368 C.2       8 UNK         0.5000 
     31 O          -0.9569  -17.4143  -46.2408 O.2       8 UNK        -0.5000 
     32 CA          0.4756  -16.0861  -44.8416 C.3       8 UNK         0.1400 
     33 CB          0.2109  -14.5730  -44.8693 C.3       8 UNK        -0.1800 
     34 N           1.0683  -16.4563  -43.5559 N.am      8 UNK        -0.5000 
     35 C           1.5685  -17.6684  -43.2766 C.2       7 UNK         0.5000 
     36 O           1.6394  -18.5809  -44.0995 O.2       7 UNK        -0.5000 
     37 CA          2.0114  -17.9206  -41.8242 C.3       7 UNK         0.1400 
     38 CB          3.4530  -17.4513  -41.5813 C.3       7 UNK        -0.1800 
     39 N           1.1180  -17.2800  -40.8597 N.am      7 UNK        -0.5000 
     40 C          -0.1269  -17.6997  -40.5949 C.2       6 UNK         0.5000 
     41 O          -0.6373  -18.6910  -41.1142 O.2       6 UNK        -0.5000 
     42 CA         -0.9527  -16.8441  -39.6173 C.3       6 UNK         0.1400 
     43 CB         -0.6314  -17.2207  -38.1634 C.3       6 UNK        -0.1800 
     44 N          -0.7363  -15.4092  -39.8063 N.am      6 UNK        -0.5000 
     45 C          -1.0906  -14.7277  -40.9050 C.2       5 UNK         0.5000 
     46 O          -1.6725  -15.2325  -41.8637 O.2       5 UNK        -0.5000 
     47 CA         -0.6798  -13.2455  -40.9632 C.3       5 UNK         0.1400 
     48 CB         -1.7586  -12.3611  -40.3209 C.3       5 UNK        -0.1800 
     49 N           0.6122  -12.9798  -40.3248 N.am      5 UNK        -0.5000 
     50 C           1.7818  -13.4848  -40.7368 C.2       4 UNK         0.5000 
     51 O           1.8997  -14.2610  -41.6894 O.2       4 UNK        -0.5000 
     52 CA          3.0156  -13.1014  -39.9125 C.3       4 UNK         0.1400 
     53 CB          3.3007  -14.1724  -38.8473 C.3       4 UNK        -0.1800 
     54 N           4.1626  -12.9983  -40.8066 N.am      4 UNK        -0.5000 
     55 C           5.0076  -11.9627  -40.8713 C.2       3 UNK         0.5000 
     56 O           4.9531  -10.9897  -40.1175 O.2       3 UNK        -0.5000 
     57 CA          6.1084  -12.0116  -41.9524 C.3       3 UNK         0.1400 
     58 CB          7.4750  -12.3030  -41.3120 C.3       3 UNK        -0.1800 
     59 N           5.8681  -12.9967  -43.0114 N.am      3 UNK        -0.5000 
     60 C           4.9269  -12.8923  -43.9574 C.2       2 UNK         0.5000 
     61 O           4.1406  -11.9446  -44.0450 O.2       2 UNK        -0.5000 
     62 CA          4.8471  -14.0550  -44.9572 C.3       2 UNK         0.1400 
     63 CB          4.3965  -15.3544  -44.2698 C.3       2 UNK        -0.1800 
     64 N           3.9022  -13.7022  -46.0073 N.am      2 UNK        -0.5000 
     65 C           3.8821  -14.2066  -47.2447 C.2       1 UNK         0.5000 
     66 O           4.6529  -15.0863  -47.6307 O.2       1 UNK        -0.5000 
     67 C          -0.6150  -20.6832  -48.2355 C.2       11 UNK         0.5000 
     68 O          -0.6126  -21.5801  -49.0807 O.2       11 UNK        -0.5000 
     69 N          -1.6433  -19.8479  -48.0277 N.am      12 UNK        -0.5000 
     70 CA         -2.9044  -19.8910  -48.7630 C.3       12 UNK         0.1400 
     71 CB         -3.7765  -18.6906  -48.3654 C.3       12 UNK        -0.1800 
     72 C          -3.6584  -21.2182  -48.5697 C.2       12 UNK         0.5000 
     73 O          -4.0892  -21.8115  -49.5547 O.2       12 UNK        -0.5000 
     74 N          -3.7668  -21.6842  -47.3176 N.am      13 UNK        -0.5000 
     75 CA         -4.4153  -22.9440  -46.9481 C.3       13 UNK         0.1400 
     76 CB         -4.4914  -23.0558  -45.4185 C.3       13 UNK        -0.1800 
     77 C          -3.7294  -24.1853  -47.5476 C.2       13 UNK         0.5000 
     78 O          -4.4221  -25.0968  -48.0016 O.2       13 UNK        -0.5000 
     79 N          -2.3884  -24.1915  -47.5605 N.am      14 UNK        -0.5000 
     80 CA         -1.5730  -25.2450  -48.1658 C.3       14 UNK         0.1400 
     81 CB         -0.0964  -25.0362  -47.7972 C.3       14 UNK        -0.1800 
     82 C          -1.7472  -25.3217  -49.6922 C.2       14 UNK         0.5000 
     83 O          -1.8274  -26.4224  -50.2376 O.2       14 UNK        -0.5000 
     84 N          -1.8312  -24.1573  -50.3490 N.am      15 UNK        -0.5000 
     85 CA         -2.1099  -24.0434  -51.7789 C.3       15 UNK         0.1400 
     86 CB         -1.7859  -22.6213  -52.2478 C.3       15 UNK        -0.1800 
     87 C          -3.5583  -24.4338  -52.1249 C.2       15 UNK         0.5000 
     88 O          -3.7665  -25.1893  -53.0733 O.2       15 UNK        -0.5000 
     89 N          -4.5259  -23.9690  -51.3200 N.am      16 UNK        -0.5000 
     90 CA         -5.9664  -24.1904  -51.4914 C.3       16 UNK         0.1400 
     91 CB         -6.7383  -23.3490  -50.4631 C.3       16 UNK        -0.1800 
     92 C          -6.4119  -25.6642  -51.4183 C.2       16 UNK         0.5000 
     93 O          -7.5149  -25.9793  -51.8663 O.2       16 UNK        -0.5000 
     94 N          -5.5514  -26.5459  -50.8900 N.am      17 UNK        -0.5000 
     95 CA         -5.7087  -28.0011  -50.9360 C.3       17 UNK         0.1400 
     96 CB         -4.6413  -28.6452  -50.0390 C.3       17 UNK        -0.1800 
     97 C          -5.6351  -28.5765  -52.3686 C.2       17 UNK         0.5000 
     98 O          -6.1638  -29.6632  -52.6077 O.2       17 UNK        -0.5000 
     99 N          -5.0014  -27.8386  -53.2888 N.am      18 UNK        -0.5000 
    100 CA        -4.9594  -28.1033  -54.7204 C.3       18 UNK         0.1400 
    101 CB        -3.5133  -28.4538  -55.1250 C.3       18 UNK        -0.1800 
    102 C         -5.5263  -26.8585  -55.4246 C.2       18 UNK         0.5000 
    103 O         -6.7467  -26.7006  -55.4803 O.2       18 UNK        -0.5000 
    104 N         -4.6447  -25.9837  -55.9158 N.am      19 UNK        -0.5000 
    105 CA        -4.9451  -24.6723  -56.4765 C.3       19 UNK         0.1400 
    106 CB        -5.4058  -24.8274  -57.9385 C.3       19 UNK        -0.1800 
    107 C         -3.6654  -23.8172  -56.3811 C.2       19 UNK         0.5000 
    108 O         -2.5731  -24.3891  -56.3495 O.2       19 UNK        -0.5000 
    109 N         -3.7432  -22.4798  -56.3769 N.am      20 UNK        -0.5000 
    110 CA        -4.9417  -21.6391  -56.3077 C.3       20 UNK         0.1400 
    111 CB        -4.5866  -20.2651  -56.9022 C.3       20 UNK        -0.1800 
    112 C         -5.4444  -21.4805  -54.8592 C.2       20 UNK         0.5000 
    113 O         -4.7764  -21.9140  -53.9221 O.2       20 UNK        -0.5000 
    114 N         -6.6104  -20.8401  -54.7006 N.am      21 UNK        -0.5000 
    115 CA        -7.1832  -20.4852  -53.3964 C.3       21 UNK         0.1400 
    116 CB        -8.6757  -20.1685  -53.5767 C.3       21 UNK        -0.1800 
    117 C         -6.4584  -19.3065  -52.7100 C.2       21 UNK         0.5000 
    118 O         -6.5637  -19.1607  -51.4921 O.2       21 UNK        -0.5000 
    119 N         -5.7463  -18.4935  -53.5046 N.am      22 UNK        -0.5000 
    120 CA        -4.8902  -17.3658  -53.0838 C.3       22 UNK         0.1400 
    121 C         -5.6580  -16.1178  -52.5504 C.2       22 UNK         0.5000 
    122 N         -6.9688  -16.0170  -52.7338 N.am      22 UNK        -0.7600 
    123 O         -5.0550  -15.2060  -51.9910 O.2       22 UNK        -0.5000 
    124 C124       -3.7234  -17.7848  -52.1418 C.3       23 UNK        -0.0398 
    125 S125       -2.7970  -19.2327  -52.7524 S.3       23 UNK        -0.2404 
    126 C126       -1.3426  -18.4791  -53.5335 C.3       23 UNK        -0.0205 
    127 H127        2.0516   -9.2168  -48.0534 H         1 UNK         0.0600 
    128 H128        2.6057   -9.5552  -46.4095 H         1 UNK         0.0600 
    129 H129        1.0881  -10.2462  -46.9903 H         1 UNK         0.0600 
    130 H130        1.2867  -12.4112  -47.4742 H         1 UNK         0.3000 
    131 H131        3.3710  -13.4497  -49.1580 H         1 UNK         0.0600 
    132 H132        2.1881  -15.6771  -48.7229 H         1 UNK         0.0800 
    133 H133        1.1013  -14.8467  -47.6570 H         1 UNK         0.0800 
    134 H134        2.6656  -14.9415  -51.1572 H         1 UNK         0.0800 
    135 H135        1.3761  -14.4675  -52.2271 H         1 UNK         0.0800 
    136 H136       -0.4208  -16.0067  -52.8402 H         1 UNK         0.1150 
    137 H137        0.1515  -20.1689  -52.0131 H         1 UNK         0.1150 
    138 H138        2.7286  -17.2549  -50.2163 H         1 UNK         0.1150 
    139 H139        1.6370  -20.8695  -50.2715 H         1 UNK         0.0800 
    140 H140        3.1022  -20.2405  -50.9673 H         1 UNK         0.0800 
    141 H141        0.8233  -18.4901  -48.1976 H         1 UNK         0.0800 
    142 H142        1.7760  -18.7442  -46.7809 H         1 UNK         0.0800 
    143 H143        1.2231  -21.3916  -47.4049 H         1 UNK         0.0600 
    144 H144        0.3837  -19.6539  -45.3560 H         1 UNK         0.3000 
    145 H145       -1.8304  -21.8848  -43.6480 H         1 UNK         0.0600 
    146 H146        0.9591  -20.8522  -42.9270 H         1 UNK         0.0600 
    147 H147       -0.2834  -21.3610  -41.7847 H         1 UNK         0.0600 
    148 H148        0.4376  -22.5288  -42.8806 H         1 UNK         0.0600 
    149 H149       -1.0217  -19.2511  -43.0038 H         1 UNK         0.3000 
    150 H150       -3.4737  -17.5320  -45.0075 H         1 UNK         0.0600 
    151 H151       -4.6164  -18.2114  -42.8913 H         1 UNK         0.0600 
    152 H152       -3.9990  -16.5695  -42.7895 H         1 UNK         0.0600 
    153 H153       -3.1471  -17.8831  -41.9809 H         1 UNK         0.0600 
    154 H154       -1.4991  -16.5085  -43.2595 H         1 UNK         0.3000 
    155 H155        1.2013  -16.3191  -45.6236 H         1 UNK         0.0600 
    156 H156        1.1360  -14.0092  -44.7476 H         1 UNK         0.0600 
    157 H157       -0.2403  -14.2683  -45.8137 H         1 UNK         0.0600 
    158 H158       -0.4705  -14.2691  -44.0758 H         1 UNK         0.0600 
    159 H159        1.0926  -15.7419  -42.8360 H         1 UNK         0.3000 
    160 H160        1.9814  -18.9990  -41.6554 H         1 UNK         0.0600 
    161 H161        4.1334  -17.8783  -42.3192 H         1 UNK         0.0600 
    162 H162        3.8046  -17.7626  -40.5977 H         1 UNK         0.0600 
    163 H163        3.5428  -16.3673  -41.6359 H         1 UNK         0.0600 
    164 H164        1.4444  -16.4257  -40.4339 H         1 UNK         0.3000 
    165 H165       -2.0085  -17.0550  -39.8001 H         1 UNK         0.0600 
    166 H166       -1.2667  -16.6751  -37.4655 H         1 UNK         0.0600 
    167 H167       -0.7991  -18.2846  -37.9903 H         1 UNK         0.0600 
    168 H168        0.4077  -17.0065  -37.9102 H         1 UNK         0.0600 
    169 H169       -0.2640  -14.9148  -39.0642 H         1 UNK         0.3000 
    170 H170       -0.5945  -12.9675  -42.0154 H         1 UNK         0.0600 
    171 H171       -2.7287  -12.5248  -40.7924 H         1 UNK         0.0600 
    172 H172       -1.8715  -12.5703  -39.2564 H         1 UNK         0.0600 
    173 H173       -1.5196  -11.3033  -40.4324 H         1 UNK         0.0600 
    174 H174        0.5988  -12.3597  -39.5277 H         1 UNK         0.3000 
    175 H175        2.8216  -12.1468  -39.4188 H         1 UNK         0.0600 
    176 H176        3.4909  -15.1485  -39.2955 H         1 UNK         0.0600 
    177 H177        4.1718  -13.9061  -38.2485 H         1 UNK         0.0600 
    178 H178        2.4580  -14.2815  -38.1636 H         1 UNK         0.0600 
    179 H179        4.2246  -13.7211  -41.5095 H         1 UNK         0.3000 
    180 H180        6.1525  -11.0222  -42.4128 H         1 UNK         0.0600 
    181 H181        7.4975  -13.2878  -40.8435 H         1 UNK         0.0600 
    182 H182        7.7119  -11.5679  -40.5416 H         1 UNK         0.0600 
    183 H183        8.2748  -12.2633  -42.0518 H         1 UNK         0.0600 
    184 H184        6.4714  -13.8067  -43.0090 H         1 UNK         0.3000 
    185 H185        5.8377  -14.1932  -45.3955 H         1 UNK         0.0600 
    186 H186        4.2678  -16.1672  -44.9848 H         1 UNK         0.0600 
    187 H187        5.1272  -15.6872  -43.5325 H         1 UNK         0.0600 
    188 H188        3.4484  -15.2084  -43.7554 H         1 UNK         0.0600 
    189 H189        3.2944  -12.9269  -45.7733 H         1 UNK         0.3000 
    190 H190       -1.5556  -19.1368  -47.3096 H         1 UNK         0.3000 
    191 H191       -2.6661  -19.8009  -49.8240 H         1 UNK         0.0600 
    192 H192       -4.0039  -18.6891  -47.2998 H         1 UNK         0.0600 
    193 H193       -4.7266  -18.7052  -48.9013 H         1 UNK         0.0600 
    194 H194       -3.2807  -17.7491  -48.6026 H         1 UNK         0.0600 
    195 H195       -3.4189  -21.1117  -46.5511 H         1 UNK         0.3000 
    196 H196       -5.4357  -22.9118  -47.3344 H         1 UNK         0.0600 
    197 H197       -3.4988  -23.0679  -44.9681 H         1 UNK         0.0600 
    198 H198       -5.0002  -23.9726  -45.1182 H         1 UNK         0.0600 
    199 H199       -5.0447  -22.2207  -44.9885 H         1 UNK         0.0600 
    200 H200       -1.8858  -23.4265  -47.1189 H         1 UNK         0.3000 
    201 H201       -1.8953  -26.2006  -47.7471 H         1 UNK         0.0600 
    202 H202        0.0495  -25.0816  -46.7179 H         1 UNK         0.0600 
    203 H203        0.2726  -24.0702  -48.1439 H         1 UNK         0.0600 
    204 H204        0.5317  -25.8086  -48.2427 H         1 UNK         0.0600 
    205 H205       -1.7283  -23.2917  -49.8308 H         1 UNK         0.3000 
    206 H206       -1.4476  -24.7284  -52.3124 H         1 UNK         0.0600 
    207 H207       -0.7290  -22.3941  -52.1120 H         1 UNK         0.0600 
    208 H208       -2.0192  -22.4913  -53.3055 H         1 UNK         0.0600 
    209 H209       -2.3615  -21.8836  -51.6896 H         1 UNK         0.0600 
    210 H210       -4.2660  -23.3085  -50.5897 H         1 UNK         0.3000 
    211 H211       -6.2290  -23.8318  -52.4883 H         1 UNK         0.0600 
    212 H212       -6.4926  -23.6443  -49.4430 H         1 UNK         0.0600 
    213 H213       -7.8156  -23.4635  -50.5891 H         1 UNK         0.0600 
    214 H214       -6.5132  -22.2879  -50.5693 H         1 UNK         0.0600 
    215 H215       -4.6819  -26.1927  -50.5144 H         1 UNK         0.3000 
    216 H216       -6.6923  -28.2464  -50.5304 H         1 UNK         0.0600 
    217 H217       -4.7743  -29.7266  -49.9895 H         1 UNK         0.0600 
    218 H218       -4.6967  -28.2625  -49.0196 H         1 UNK         0.0600 
    219 H219       -3.6352  -28.4558  -50.4146 H         1 UNK         0.0600 
    220 H220       -4.6216  -26.9364  -53.0125 H         1 UNK         0.3000 
    221 H221       -5.6054  -28.9432  -54.9839 H         1 UNK         0.0600 
    222 H222       -2.8013  -27.6885  -54.8127 H         1 UNK         0.0600 
    223 H223       -3.2027  -29.3936  -54.6683 H         1 UNK         0.0600 
    224 H224       -3.4253  -28.5758  -56.2053 H         1 UNK         0.0600 
    225 H225       -3.6538  -26.1429  -55.7778 H         1 UNK         0.3000 
    226 H226       -5.7350  -24.2163  -55.8781 H         1 UNK         0.0600 
    227 H227       -6.3289  -25.4033  -58.0043 H         1 UNK         0.0600 
    228 H228       -5.5954  -23.8603  -58.4039 H         1 UNK         0.0600 
    229 H229       -4.6521  -25.3356  -58.5412 H         1 UNK         0.0600 
    230 H230       -2.8758  -21.9728  -56.2920 H         1 UNK         0.3000 
    231 H231       -5.7422  -22.0744  -56.9064 H         1 UNK         0.0600 
    232 H232       -5.4595  -19.6136  -56.9532 H         1 UNK         0.0600 
    233 H233       -4.2036  -20.3633  -57.9184 H         1 UNK         0.0600 
    234 H234       -3.8281  -19.7532  -56.3077 H         1 UNK         0.0600 
    235 H235       -7.1186  -20.5258  -55.5150 H         1 UNK         0.3000 
    236 H236       -7.0988  -21.3497  -52.7356 H         1 UNK         0.0600 
    237 H237       -9.1419  -19.9263  -52.6206 H         1 UNK         0.0600 
    238 H238       -9.2126  -21.0224  -53.9904 H         1 UNK         0.0600 
    239 H239       -8.8305  -19.3185  -54.2424 H         1 UNK         0.0600 
    240 H240       -5.7397  -18.6947  -54.4925 H         1 UNK         0.3000 
    241 H241       -4.4279  -17.0149  -54.0069 H         1 UNK         0.0600 
    242 H242       -7.4565  -15.2018  -52.3967 H         1 UNK         0.3800 
    243 H243       -7.4789  -16.7525  -53.1956 H         1 UNK         0.3800 
    244 H244       -4.1128  -18.0316  -51.1549 H         1 UNK         0.0800 
    245 H245       -3.0283  -16.9572  -51.9916 H         1 UNK         0.0800 
    246 H246       -1.6493  -17.6053  -54.1105 H         1 UNK         0.0800 
    247 H247       -0.9331  -19.1888  -54.2536 H         1 UNK         0.0800 
@<TRIPOS>BOND
     1    1    2 1    
     2    1  127 1    
     3    1  128 1    
     4    1  129 1    
     5    2    3 2    
     6    2    4 am   BACKBONE|DICT|INTERRES
     7    4    5 1    
     8    4  130 1    
     9    5    6 1    
    10    5   65 1    
    11    5  131 1    
    12    6    7 1    
    13    6  132 1    
    14    6  133 1    
    15    7    8 1    
    16    8    9 1    
    17    8  134 1    
    18    8  135 1    
    19    9   10 ar   
    20    9   14 ar   
    21   10   11 ar   
    22   10  136 1    
    23   11   12 ar   
    24   11  126 1    
    25   12   13 ar   
    26   12  137 1    
    27   13   14 ar   
    28   13   15 1    
    29   14  138 1    
    30   15   16 1    
    31   15  139 1    
    32   15  140 1    
    33   16   17 1    
    34   17   18 1    
    35   17  141 1    
    36   17  142 1    
    37   18   19 1    
    38   18   67 1    
    39   18  143 1    
    40   19   20 am   BACKBONE|DICT|INTERRES
    41   19  144 1    
    42   20   21 2    
    43   20   22 1    
    44   22   23 1    
    45   22   24 1    
    46   22  145 1    
    47   23  146 1    
    48   23  147 1    
    49   23  148 1    
    50   24   25 am   BACKBONE|DICT|INTERRES
    51   24  149 1    
    52   25   26 2    
    53   25   27 1    
    54   27   28 1    
    55   27   29 1    
    56   27  150 1    
    57   28  151 1    
    58   28  152 1    
    59   28  153 1    
    60   29   30 am   BACKBONE|DICT|INTERRES
    61   29  154 1    
    62   30   31 2    
    63   30   32 1    
    64   32   33 1    
    65   32   34 1    
    66   32  155 1    
    67   33  156 1    
    68   33  157 1    
    69   33  158 1    
    70   34   35 am   BACKBONE|DICT|INTERRES
    71   34  159 1    
    72   35   36 2    
    73   35   37 1    
    74   37   38 1    
    75   37   39 1    
    76   37  160 1    
    77   38  161 1    
    78   38  162 1    
    79   38  163 1    
    80   39   40 am   BACKBONE|DICT|INTERRES
    81   39  164 1    
    82   40   41 2    
    83   40   42 1    
    84   42   43 1    
    85   42   44 1    
    86   42  165 1    
    87   43  166 1    
    88   43  167 1    
    89   43  168 1    
    90   44   45 am   BACKBONE|DICT|INTERRES
    91   44  169 1    
    92   45   46 2    
    93   45   47 1    
    94   47   48 1    
    95   47   49 1    
    96   47  170 1    
    97   48  171 1    
    98   48  172 1    
    99   48  173 1    
   100   49   50 am   BACKBONE|DICT|INTERRES
   101   49  174 1    
   102   50   51 2    
   103   50   52 1    
   104   52   53 1    
   105   52   54 1    
   106   52  175 1    
   107   53  176 1    
   108   53  177 1    
   109   53  178 1    
   110   54   55 am   BACKBONE|DICT|INTERRES
   111   54  179 1    
   112   55   56 2    
   113   55   57 1    
   114   57   58 1    
   115   57   59 1    
   116   57  180 1    
   117   58  181 1    
   118   58  182 1    
   119   58  183 1    
   120   59   60 am   BACKBONE|DICT|INTERRES
   121   59  184 1    
   122   60   61 2    
   123   60   62 1    
   124   62   63 1    
   125   62   64 1    
   126   62  185 1    
   127   63  186 1    
   128   63  187 1    
   129   63  188 1    
   130   64   65 am   BACKBONE|DICT|INTERRES
   131   64  189 1    
   132   65   66 2    
   133   67   68 2    
   134   67   69 am   BACKBONE|DICT|INTERRES
   135   69   70 1    
   136   69  190 1    
   137   70   71 1    
   138   70   72 1    
   139   70  191 1    
   140   71  192 1    
   141   71  193 1    
   142   71  194 1    
   143   72   73 2    
   144   72   74 am   BACKBONE|DICT|INTERRES
   145   74   75 1    
   146   74  195 1    
   147   75   76 1    
   148   75   77 1    
   149   75  196 1    
   150   76  197 1    
   151   76  198 1    
   152   76  199 1    
   153   77   78 2    
   154   77   79 am   BACKBONE|DICT|INTERRES
   155   79   80 1    
   156   79  200 1    
   157   80   81 1    
   158   80   82 1    
   159   80  201 1    
   160   81  202 1    
   161   81  203 1    
   162   81  204 1    
   163   82   83 2    
   164   82   84 am   BACKBONE|DICT|INTERRES
   165   84   85 1    
   166   84  205 1    
   167   85   86 1    
   168   85   87 1    
   169   85  206 1    
   170   86  207 1    
   171   86  208 1    
   172   86  209 1    
   173   87   88 2    
   174   87   89 am   BACKBONE|DICT|INTERRES
   175   89   90 1    
   176   89  210 1    
   177   90   91 1    
   178   90   92 1    
   179   90  211 1    
   180   91  212 1    
   181   91  213 1    
   182   91  214 1    
   183   92   93 2    
   184   92   94 am   BACKBONE|DICT|INTERRES
   185   94   95 1    
   186   94  215 1    
   187   95   96 1    
   188   95   97 1    
   189   95  216 1    
   190   96  217 1    
   191   96  218 1    
   192   96  219 1    
   193   97   98 2    
   194   97   99 am   BACKBONE|DICT|INTERRES
   195   99  100 1    
   196   99  220 1    
   197  100  101 1    
   198  100  102 1    
   199  100  221 1    
   200  101  222 1    
   201  101  223 1    
   202  101  224 1    
   203  102  103 2    
   204  102  104 am   BACKBONE|DICT|INTERRES
   205  104  105 1    
   206  104  225 1    
   207  105  106 1    
   208  105  107 1    
   209  105  226 1    
   210  106  227 1    
   211  106  228 1    
   212  106  229 1    
   213  107  108 2    
   214  107  109 am   BACKBONE|DICT|INTERRES
   215  109  110 1    
   216  109  230 1    
   217  110  111 1    
   218  110  112 1    
   219  110  231 1    
   220  111  232 1    
   221  111  233 1    
   222  111  234 1    
   223  112  113 2    
   224  112  114 am   BACKBONE|DICT|INTERRES
   225  114  115 1    
   226  114  235 1    
   227  115  116 1    
   228  115  117 1    
   229  115  236 1    
   230  116  237 1    
   231  116  238 1    
   232  116  239 1    
   233  117  118 2    
   234  117  119 am   BACKBONE|DICT|INTERRES
   235  119  120 1    
   236  119  240 1    
   237  120  121 1    
   238  120  124 1    
   239  120  241 1    
   240  121  122 am   BACKBONE|DICT|INTERRES
   241  121  123 2    
   242  122  242 1    
   243  122  243 1    
   244  124  125 1    
   245  124  244 1    
   246  124  245 1    
   247  125  126 1    
   248  126  246 1    
   249  126  247 1    
@<TRIPOS>SUBSTRUCTURE
     1 UNK         1 GROUP             0       ****    0 ROOT    
