@<TRIPOS>MOLECULE
3R540
247   249    1
SMALL
USER_CHARGES


@<TRIPOS>ATOM
      1 CA         -5.2445  -14.7368  -43.9569 C.3       0 UNK        -0.1800 
      2 C          -5.3568  -14.4208  -45.4421 C.2       0 UNK         0.5000 
      3 O          -6.1428  -13.5541  -45.8263 O.2       0 UNK        -0.5000 
      4 N          -4.5793  -15.1205  -46.2763 N.am      1 UNK        -0.5000 
      5 CA         -4.4594  -14.8786  -47.7163 C.3       1 UNK         0.1400 
      6 C6         -3.8735  -16.1068  -48.4596 C.3       23 UNK        -0.0398 
      7 S7         -2.2774  -16.7087  -47.7991 S.3       23 UNK        -0.2404 
      8 C8         -1.6424  -17.7199  -49.1748 C.3       23 UNK        -0.0205 
      9 C9         -2.6752  -18.6854  -49.7342 C.ar      23 UNK        -0.0193 
     10 C10        -3.0712  -18.5839  -51.0689 C.ar      23 UNK        -0.1150 
     11 C11        -4.0361  -19.4450  -51.5934 C.ar      23 UNK        -0.0193 
     12 C12        -4.5847  -20.4387  -50.7776 C.ar      23 UNK        -0.1150 
     13 C13        -4.1851  -20.5634  -49.4432 C.ar      23 UNK        -0.0193 
     14 C14        -3.2367  -19.6763  -48.9252 C.ar      23 UNK        -0.1150 
     15 C15        -4.7928  -21.6451  -48.5627 C.3       23 UNK        -0.0205 
     16 S16        -3.6733  -23.0679  -48.3689 S.3       23 UNK        -0.2404 
     17 C17        -2.6008  -22.4798  -47.0173 C.3       23 UNK        -0.0398 
     18 CA         -1.8407  -23.6262  -46.3168 C.3       11 UNK         0.1400 
     19 N          -0.6637  -23.1455  -45.5932 N.am      11 UNK        -0.5000 
     20 C           0.2989  -23.9283  -45.0881 C.2       10 UNK         0.5000 
     21 O           0.3581  -25.1414  -45.2921 O.2       10 UNK        -0.5000 
     22 CA          1.3435  -23.2548  -44.1756 C.3       10 UNK         0.1400 
     23 CB          2.5348  -22.7330  -44.9896 C.3       10 UNK        -0.1800 
     24 N           0.7800  -22.1629  -43.3779 N.am      10 UNK        -0.5000 
     25 C          -0.1362  -22.3308  -42.4137 C.2       9 UNK         0.5000 
     26 O          -0.5653  -23.4312  -42.0719 O.2       9 UNK        -0.5000 
     27 CA         -0.7130  -21.0624  -41.7600 C.3       9 UNK         0.1400 
     28 CB          0.2380  -20.5155  -40.6856 C.3       9 UNK        -0.1800 
     29 N          -1.0160  -20.0154  -42.7358 N.am      9 UNK        -0.5000 
     30 C          -1.9269  -20.1258  -43.7132 C.2       8 UNK         0.5000 
     31 O          -2.6476  -21.1119  -43.8664 O.2       8 UNK        -0.5000 
     32 CA         -2.0002  -18.9680  -44.7255 C.3       8 UNK         0.1400 
     33 CB         -2.7967  -17.7857  -44.1560 C.3       8 UNK        -0.1800 
     34 N          -0.6714  -18.5175  -45.1406 N.am      8 UNK        -0.5000 
     35 C           0.2060  -19.2723  -45.8174 C.2       7 UNK         0.5000 
     36 O          -0.0439  -20.4024  -46.2343 O.2       7 UNK        -0.5000 
     37 CA          1.6170  -18.6932  -46.0102 C.3       7 UNK         0.1400 
     38 CB          1.6839  -17.8060  -47.2591 C.3       7 UNK        -0.1800 
     39 N           2.0611  -17.9413  -44.8372 N.am      7 UNK        -0.5000 
     40 C           2.3992  -18.5082  -43.6699 C.2       6 UNK         0.5000 
     41 O           2.4119  -19.7240  -43.4821 O.2       6 UNK        -0.5000 
     42 CA          2.7363  -17.5573  -42.5065 C.3       6 UNK         0.1400 
     43 CB          4.2105  -17.1312  -42.5669 C.3       6 UNK        -0.1800 
     44 N           1.8880  -16.3651  -42.4948 N.am      6 UNK        -0.5000 
     45 C           0.5657  -16.3741  -42.2714 C.2       5 UNK         0.5000 
     46 O          -0.0668  -17.3867  -41.9765 O.2       5 UNK        -0.5000 
     47 CA         -0.1799  -15.0393  -42.4677 C.3       5 UNK         0.1400 
     48 CB         -0.2511  -14.2593  -41.1470 C.3       5 UNK        -0.1800 
     49 N           0.4341  -14.1979  -43.4998 N.am      5 UNK        -0.5000 
     50 C           0.4848  -14.5214  -44.7982 C.2       4 UNK         0.5000 
     51 O          -0.0285  -15.5386  -45.2700 O.2       4 UNK        -0.5000 
     52 CA          1.3276  -13.6087  -45.6952 C.3       4 UNK         0.1400 
     53 CB          2.8043  -14.0518  -45.6477 C.3       4 UNK        -0.1800 
     54 N           0.8181  -13.6757  -47.0609 N.am      4 UNK        -0.5000 
     55 C           1.1540  -12.8392  -48.0514 C.2       3 UNK         0.5000 
     56 O           1.9392  -11.8995  -47.9202 O.2       3 UNK        -0.5000 
     57 CA          0.4634  -13.0556  -49.4026 C.3       3 UNK         0.1400 
     58 CB          0.6391  -14.4887  -49.9323 C.3       3 UNK        -0.1800 
     59 N          -0.9506  -12.7463  -49.2482 N.am      3 UNK        -0.5000 
     60 C          -1.7112  -12.0789  -50.1190 C.2       2 UNK         0.5000 
     61 O          -1.3045  -11.6858  -51.2133 O.2       2 UNK        -0.5000 
     62 CA         -3.1737  -11.8139  -49.6882 C.3       2 UNK         0.1400 
     63 CB         -4.0221  -11.2025  -50.8185 C.3       2 UNK        -0.1800 
     64 N          -3.8557  -13.0127  -49.1875 N.am      2 UNK        -0.5000 
     65 C          -3.6481  -13.5969  -48.0000 C.2       1 UNK         0.5000 
     66 O          -2.8293  -13.1807  -47.1744 O.2       1 UNK        -0.5000 
     67 C          -2.7593  -24.4684  -45.4084 C.2       11 UNK         0.5000 
     68 O          -3.1373  -25.5750  -45.7906 O.2       11 UNK        -0.5000 
     69 N          -3.0560  -23.9653  -44.2033 N.am      12 UNK        -0.5000 
     70 CA         -3.8447  -24.6752  -43.1944 C.3       12 UNK         0.1400 
     71 CB         -4.1318  -23.7341  -42.0146 C.3       12 UNK        -0.1800 
     72 C          -3.1756  -25.9783  -42.7117 C.2       12 UNK         0.5000 
     73 O          -3.8680  -26.9757  -42.5045 O.2       12 UNK        -0.5000 
     74 N          -1.8465  -25.9463  -42.5528 N.am      13 UNK        -0.5000 
     75 CA         -1.0378  -27.0737  -42.1012 C.3       13 UNK         0.1400 
     76 CB          0.3171  -26.5574  -41.5916 C.3       13 UNK        -0.1800 
     77 C          -0.8271  -28.1535  -43.1772 C.2       13 UNK         0.5000 
     78 O          -0.9822  -29.3364  -42.8688 O.2       13 UNK        -0.5000 
     79 N          -0.4298  -27.7472  -44.3922 N.am      14 UNK        -0.5000 
     80 CA          0.1387  -28.6540  -45.3952 C.3       14 UNK         0.1400 
     81 CB          1.6716  -28.6536  -45.2356 C.3       14 UNK        -0.1800 
     82 C          -0.2717  -28.3376  -46.8453 C.2       14 UNK         0.5000 
     83 O           0.2894  -28.9437  -47.7595 O.2       14 UNK        -0.5000 
     84 N          -1.2224  -27.4129  -47.0532 N.am      15 UNK        -0.5000 
     85 CA         -1.7338  -26.9661  -48.3599 C.3       15 UNK         0.1400 
     86 CB         -2.4972  -28.1050  -49.0687 C.3       15 UNK        -0.1800 
     87 C          -0.6599  -26.3103  -49.2579 C.2       15 UNK         0.5000 
     88 O          -0.7588  -26.3844  -50.4838 O.2       15 UNK        -0.5000 
     89 N           0.3528  -25.6886  -48.6339 N.am      16 UNK        -0.5000 
     90 CA          1.4946  -25.0722  -49.3124 C.3       16 UNK         0.1400 
     91 CB          2.5599  -24.7019  -48.2715 C.3       16 UNK        -0.1800 
     92 C           1.1100  -23.8428  -50.1571 C.2       16 UNK         0.5000 
     93 O           1.5358  -23.7471  -51.3093 O.2       16 UNK        -0.5000 
     94 N           0.3023  -22.9477  -49.5658 N.am      17 UNK        -0.5000 
     95 CA         -0.1997  -21.6928  -50.1409 C.3       17 UNK         0.1400 
     96 CB         -1.1718  -21.9960  -51.3032 C.3       17 UNK        -0.1800 
     97 C           0.9197  -20.6965  -50.5274 C.2       17 UNK         0.5000 
     98 O           2.0538  -20.8228  -50.0595 O.2       17 UNK        -0.5000 
     99 N           0.5719  -19.7050  -51.3542 N.am      18 UNK        -0.5000 
    100 CA         1.4546  -18.6983  -51.9353 C.3       18 UNK         0.1400 
    101 CB         1.9403  -17.7011  -50.8667 C.3       18 UNK        -0.1800 
    102 C          0.6977  -17.9848  -53.0655 C.2       18 UNK         0.5000 
    103 O         -0.5080  -18.1957  -53.2310 O.2       18 UNK        -0.5000 
    104 N          1.4129  -17.1439  -53.8215 N.am      19 UNK        -0.5000 
    105 CA         0.9108  -16.3761  -54.9631 C.3       19 UNK         0.1400 
    106 CB         2.1080  -15.9611  -55.8378 C.3       19 UNK        -0.1800 
    107 C          0.0349  -15.1730  -54.5447 C.2       19 UNK         0.5000 
    108 O          0.3572  -14.0275  -54.8633 O.2       19 UNK        -0.5000 
    109 N         -1.0716  -15.4580  -53.8473 N.am      20 UNK        -0.5000 
    110 CA        -2.0791  -14.4798  -53.4220 C.3       20 UNK         0.1400 
    111 CB        -2.8173  -15.0279  -52.1916 C.3       20 UNK        -0.1800 
    112 C         -3.0890  -14.1185  -54.5325 C.2       20 UNK         0.5000 
    113 O         -3.9474  -13.2659  -54.3039 O.2       20 UNK        -0.5000 
    114 N         -2.9821  -14.7796  -55.6965 N.am      21 UNK        -0.5000 
    115 CA        -3.8472  -14.6612  -56.8754 C.3       21 UNK         0.1400 
    116 CB        -3.7781  -13.2434  -57.4827 C.3       21 UNK        -0.1800 
    117 C         -5.2857  -15.1439  -56.5964 C.2       21 UNK         0.5000 
    118 O         -6.2528  -14.4620  -56.9426 O.2       21 UNK        -0.5000 
    119 N         -5.3891  -16.3214  -55.9656 N.am      22 UNK        -0.5000 
    120 CA        -6.6456  -17.0380  -55.6951 C.3       22 UNK         0.1400 
    121 C         -7.4259  -17.4035  -56.9908 C.2       22 UNK         0.5000 
    122 N         -8.7490  -17.3167  -56.9722 N.am      22 UNK        -0.7600 
    123 O         -6.8448  -17.8083  -57.9958 O.2       22 UNK        -0.5000 
    124 C124       -6.4003  -18.3176  -54.8557 C.3       23 UNK        -0.0398 
    125 S125       -5.7191  -17.9681  -53.1997 S.3       23 UNK        -0.2404 
    126 C126       -4.4853  -19.2965  -53.0378 C.3       23 UNK        -0.0205 
    127 H127       -4.3933  -15.3818  -43.7417 H         1 UNK         0.0600 
    128 H128       -6.1492  -15.2353  -43.6093 H         1 UNK         0.0600 
    129 H129       -5.1199  -13.8167  -43.3859 H         1 UNK         0.0600 
    130 H130       -3.9202  -15.7890  -45.9060 H         1 UNK         0.3000 
    131 H131       -5.4661  -14.7137  -48.1067 H         1 UNK         0.0600 
    132 H132       -4.5858  -16.9307  -48.3975 H         1 UNK         0.0800 
    133 H133       -3.7651  -15.8975  -49.5245 H         1 UNK         0.0800 
    134 H134       -0.7849  -18.2926  -48.8246 H         1 UNK         0.0800 
    135 H135       -1.2746  -17.0569  -49.9575 H         1 UNK         0.0800 
    136 H136       -2.6338  -17.8297  -51.7037 H         1 UNK         0.1150 
    137 H137       -5.3270  -21.1130  -51.1811 H         1 UNK         0.1150 
    138 H138       -2.9351  -19.7491  -47.8914 H         1 UNK         0.1150 
    139 H139       -5.0576  -21.2319  -47.5885 H         1 UNK         0.0800 
    140 H140       -5.7271  -22.0002  -49.0001 H         1 UNK         0.0800 
    141 H141       -3.1869  -21.9017  -46.3024 H         1 UNK         0.0800 
    142 H142       -1.8880  -21.7843  -47.4545 H         1 UNK         0.0800 
    143 H143       -1.4639  -24.2873  -47.0957 H         1 UNK         0.0600 
    144 H144       -0.5968  -22.1432  -45.4476 H         1 UNK         0.3000 
    145 H145        1.7162  -24.0126  -43.4840 H         1 UNK         0.0600 
    146 H146        3.2597  -22.2295  -44.3500 H         1 UNK         0.0600 
    147 H147        3.0591  -23.5544  -45.4779 H         1 UNK         0.0600 
    148 H148        2.2217  -22.0282  -45.7605 H         1 UNK         0.0600 
    149 H149        1.1360  -21.2297  -43.5618 H         1 UNK         0.3000 
    150 H150       -1.6494  -21.3393  -41.2715 H         1 UNK         0.0600 
    151 H151        0.4466  -21.2720  -39.9282 H         1 UNK         0.0600 
    152 H152       -0.1969  -19.6555  -40.1758 H         1 UNK         0.0600 
    153 H153        1.1922  -20.2043  -41.1099 H         1 UNK         0.0600 
    154 H154       -0.5073  -19.1412  -42.6395 H         1 UNK         0.3000 
    155 H155       -2.5199  -19.3286  -45.6146 H         1 UNK         0.0600 
    156 H156       -2.4066  -17.4554  -43.1940 H         1 UNK         0.0600 
    157 H157       -3.8418  -18.0593  -44.0072 H         1 UNK         0.0600 
    158 H158       -2.7716  -16.9328  -44.8323 H         1 UNK         0.0600 
    159 H159       -0.4092  -17.5686  -44.8998 H         1 UNK         0.3000 
    160 H160        2.3030  -19.5298  -46.1589 H         1 UNK         0.0600 
    161 H161        0.9780  -16.9768  -47.2168 H         1 UNK         0.0600 
    162 H162        1.4455  -18.3965  -48.1422 H         1 UNK         0.0600 
    163 H163        2.6826  -17.3942  -47.4037 H         1 UNK         0.0600 
    164 H164        2.0176  -16.9357  -44.8990 H         1 UNK         0.3000 
    165 H165        2.5738  -18.1001  -41.5730 H         1 UNK         0.0600 
    166 H166        4.4786  -16.5163  -41.7076 H         1 UNK         0.0600 
    167 H167        4.8681  -18.0015  -42.5601 H         1 UNK         0.0600 
    168 H168        4.4300  -16.5607  -43.4704 H         1 UNK         0.0600 
    169 H169        2.3324  -15.4866  -42.7141 H         1 UNK         0.3000 
    170 H170       -1.1992  -15.2723  -42.7829 H         1 UNK         0.0600 
    171 H171       -0.7246  -14.8569  -40.3668 H         1 UNK         0.0600 
    172 H172        0.7403  -13.9786  -40.7896 H         1 UNK         0.0600 
    173 H173       -0.8394  -13.3483  -41.2585 H         1 UNK         0.0600 
    174 H174        0.8826  -13.3501  -43.1833 H         1 UNK         0.3000 
    175 H175        1.2366  -12.5824  -45.3335 H         1 UNK         0.0600 
    176 H176        2.9353  -15.0543  -46.0566 H         1 UNK         0.0600 
    177 H177        3.4443  -13.3767  -46.2152 H         1 UNK         0.0600 
    178 H178        3.1826  -14.0605  -44.6249 H         1 UNK         0.0600 
    179 H179        0.1429  -14.4149  -47.2141 H         1 UNK         0.3000 
    180 H180        0.9215  -12.3667  -50.1157 H         1 UNK         0.0600 
    181 H181        0.1471  -15.2201  -49.2918 H         1 UNK         0.0600 
    182 H182        1.6953  -14.7542  -49.9880 H         1 UNK         0.0600 
    183 H183        0.2251  -14.5900  -50.9357 H         1 UNK         0.0600 
    184 H184       -1.3720  -12.9844  -48.3533 H         1 UNK         0.3000 
    185 H185       -3.1328  -11.0829  -48.8780 H         1 UNK         0.0600 
    186 H186       -3.5902  -10.2646  -51.1698 H         1 UNK         0.0600 
    187 H187       -4.0948  -11.8715  -51.6769 H         1 UNK         0.0600 
    188 H188       -5.0338  -10.9816  -50.4781 H         1 UNK         0.0600 
    189 H189       -4.5324  -13.4205  -49.8157 H         1 UNK         0.3000 
    190 H190       -2.7394  -23.0290  -43.9653 H         1 UNK         0.3000 
    191 H191       -4.7993  -24.9447  -43.6510 H         1 UNK         0.0600 
    192 H192       -3.2148  -23.4184  -41.5171 H         1 UNK         0.0600 
    193 H193       -4.7580  -24.2243  -41.2683 H         1 UNK         0.0600 
    194 H194       -4.6578  -22.8379  -42.3443 H         1 UNK         0.0600 
    195 H195       -1.3681  -25.0559  -42.6599 H         1 UNK         0.3000 
    196 H196       -1.5503  -27.5421  -41.2580 H         1 UNK         0.0600 
    197 H197        0.9374  -27.3776  -41.2282 H         1 UNK         0.0600 
    198 H198        0.1867  -25.8579  -40.7657 H         1 UNK         0.0600 
    199 H199        0.8748  -26.0467  -42.3770 H         1 UNK         0.0600 
    200 H200       -0.2993  -26.7544  -44.5720 H         1 UNK         0.3000 
    201 H201       -0.2177  -29.6709  -45.2198 H         1 UNK         0.0600 
    202 H202        1.9648  -28.9525  -44.2291 H         1 UNK         0.0600 
    203 H203        2.0898  -27.6641  -45.4258 H         1 UNK         0.0600 
    204 H204        2.1461  -29.3512  -45.9267 H         1 UNK         0.0600 
    205 H205       -1.6630  -26.9759  -46.2513 H         1 UNK         0.3000 
    206 H206       -2.4631  -26.1815  -48.1643 H         1 UNK         0.0600 
    207 H207       -1.8306  -28.9062  -49.3884 H         1 UNK         0.0600 
    208 H208       -3.0127  -27.7369  -49.9565 H         1 UNK         0.0600 
    209 H209       -3.2538  -28.5379  -48.4143 H         1 UNK         0.0600 
    210 H210        0.3743  -25.7008  -47.6227 H         1 UNK         0.3000 
    211 H211        1.9238  -25.8192  -49.9837 H         1 UNK         0.0600 
    212 H212        2.1949  -23.9333  -47.5922 H         1 UNK         0.0600 
    213 H213        3.4572  -24.3122  -48.7539 H         1 UNK         0.0600 
    214 H214        2.8562  -25.5669  -47.6775 H         1 UNK         0.0600 
    215 H215        0.0502  -23.1144  -48.6042 H         1 UNK         0.3000 
    216 H216       -0.7680  -21.2016  -49.3523 H         1 UNK         0.0600 
    217 H217       -1.6990  -21.1019  -51.6320 H         1 UNK         0.0600 
    218 H218       -1.9330  -22.7145  -50.9989 H         1 UNK         0.0600 
    219 H219       -0.6538  -22.4067  -52.1701 H         1 UNK         0.0600 
    220 H220       -0.3719  -19.6615  -51.7208 H         1 UNK         0.3000 
    221 H221        2.3148  -19.2028  -52.3794 H         1 UNK         0.0600 
    222 H222        1.1064  -17.2762  -50.3114 H         1 UNK         0.0600 
    223 H223        2.6110  -18.1821  -50.1559 H         1 UNK         0.0600 
    224 H224        2.4976  -16.8742  -51.3076 H         1 UNK         0.0600 
    225 H225        2.3881  -17.0068  -53.5988 H         1 UNK         0.3000 
    226 H226        0.2793  -17.0325  -55.5656 H         1 UNK         0.0600 
    227 H227        2.7965  -15.3107  -55.2968 H         1 UNK         0.0600 
    228 H228        2.6677  -16.8322  -56.1792 H         1 UNK         0.0600 
    229 H229        1.7766  -15.4234  -56.7271 H         1 UNK         0.0600 
    230 H230       -1.2315  -16.4303  -53.5995 H         1 UNK         0.3000 
    231 H231       -1.5709  -13.5588  -53.1311 H         1 UNK         0.0600 
    232 H232       -2.1224  -15.3128  -51.4026 H         1 UNK         0.0600 
    233 H233       -3.4287  -15.8927  -52.4475 H         1 UNK         0.0600 
    234 H234       -3.4873  -14.2763  -51.7762 H         1 UNK         0.0600 
    235 H235       -2.2432  -15.4635  -55.7648 H         1 UNK         0.3000 
    236 H236       -3.4408  -15.3477  -57.6196 H         1 UNK         0.0600 
    237 H237       -4.2250  -12.4949  -56.8281 H         1 UNK         0.0600 
    238 H238       -2.7471  -12.9474  -57.6760 H         1 UNK         0.0600 
    239 H239       -4.3108  -13.2021  -58.4335 H         1 UNK         0.0600 
    240 H240       -4.5431  -16.8043  -55.7052 H         1 UNK         0.3000 
    241 H241       -7.2728  -16.3632  -55.1092 H         1 UNK         0.0600 
    242 H242       -9.2680  -17.5655  -57.8004 H         1 UNK         0.3800 
    243 H243       -9.2477  -16.9945  -56.1567 H         1 UNK         0.3800 
    244 H244       -5.7354  -18.9964  -55.3929 H         1 UNK         0.0800 
    245 H245       -7.3342  -18.8630  -54.7078 H         1 UNK         0.0800 
    246 H246       -3.6267  -19.0789  -53.6753 H         1 UNK         0.0800 
    247 H247       -4.9087  -20.2370  -53.3941 H         1 UNK         0.0800 
@<TRIPOS>BOND
     1    1    2 1    
     2    1  127 1    
     3    1  128 1    
     4    1  129 1    
     5    2    3 2    
     6    2    4 am   BACKBONE|DICT|INTERRES
     7    4    5 1    
     8    4  130 1    
     9    5    6 1    
    10    5   65 1    
    11    5  131 1    
    12    6    7 1    
    13    6  132 1    
    14    6  133 1    
    15    7    8 1    
    16    8    9 1    
    17    8  134 1    
    18    8  135 1    
    19    9   10 ar   
    20    9   14 ar   
    21   10   11 ar   
    22   10  136 1    
    23   11   12 ar   
    24   11  126 1    
    25   12   13 ar   
    26   12  137 1    
    27   13   14 ar   
    28   13   15 1    
    29   14  138 1    
    30   15   16 1    
    31   15  139 1    
    32   15  140 1    
    33   16   17 1    
    34   17   18 1    
    35   17  141 1    
    36   17  142 1    
    37   18   19 1    
    38   18   67 1    
    39   18  143 1    
    40   19   20 am   BACKBONE|DICT|INTERRES
    41   19  144 1    
    42   20   21 2    
    43   20   22 1    
    44   22   23 1    
    45   22   24 1    
    46   22  145 1    
    47   23  146 1    
    48   23  147 1    
    49   23  148 1    
    50   24   25 am   BACKBONE|DICT|INTERRES
    51   24  149 1    
    52   25   26 2    
    53   25   27 1    
    54   27   28 1    
    55   27   29 1    
    56   27  150 1    
    57   28  151 1    
    58   28  152 1    
    59   28  153 1    
    60   29   30 am   BACKBONE|DICT|INTERRES
    61   29  154 1    
    62   30   31 2    
    63   30   32 1    
    64   32   33 1    
    65   32   34 1    
    66   32  155 1    
    67   33  156 1    
    68   33  157 1    
    69   33  158 1    
    70   34   35 am   BACKBONE|DICT|INTERRES
    71   34  159 1    
    72   35   36 2    
    73   35   37 1    
    74   37   38 1    
    75   37   39 1    
    76   37  160 1    
    77   38  161 1    
    78   38  162 1    
    79   38  163 1    
    80   39   40 am   BACKBONE|DICT|INTERRES
    81   39  164 1    
    82   40   41 2    
    83   40   42 1    
    84   42   43 1    
    85   42   44 1    
    86   42  165 1    
    87   43  166 1    
    88   43  167 1    
    89   43  168 1    
    90   44   45 am   BACKBONE|DICT|INTERRES
    91   44  169 1    
    92   45   46 2    
    93   45   47 1    
    94   47   48 1    
    95   47   49 1    
    96   47  170 1    
    97   48  171 1    
    98   48  172 1    
    99   48  173 1    
   100   49   50 am   BACKBONE|DICT|INTERRES
   101   49  174 1    
   102   50   51 2    
   103   50   52 1    
   104   52   53 1    
   105   52   54 1    
   106   52  175 1    
   107   53  176 1    
   108   53  177 1    
   109   53  178 1    
   110   54   55 am   BACKBONE|DICT|INTERRES
   111   54  179 1    
   112   55   56 2    
   113   55   57 1    
   114   57   58 1    
   115   57   59 1    
   116   57  180 1    
   117   58  181 1    
   118   58  182 1    
   119   58  183 1    
   120   59   60 am   BACKBONE|DICT|INTERRES
   121   59  184 1    
   122   60   61 2    
   123   60   62 1    
   124   62   63 1    
   125   62   64 1    
   126   62  185 1    
   127   63  186 1    
   128   63  187 1    
   129   63  188 1    
   130   64   65 am   BACKBONE|DICT|INTERRES
   131   64  189 1    
   132   65   66 2    
   133   67   68 2    
   134   67   69 am   BACKBONE|DICT|INTERRES
   135   69   70 1    
   136   69  190 1    
   137   70   71 1    
   138   70   72 1    
   139   70  191 1    
   140   71  192 1    
   141   71  193 1    
   142   71  194 1    
   143   72   73 2    
   144   72   74 am   BACKBONE|DICT|INTERRES
   145   74   75 1    
   146   74  195 1    
   147   75   76 1    
   148   75   77 1    
   149   75  196 1    
   150   76  197 1    
   151   76  198 1    
   152   76  199 1    
   153   77   78 2    
   154   77   79 am   BACKBONE|DICT|INTERRES
   155   79   80 1    
   156   79  200 1    
   157   80   81 1    
   158   80   82 1    
   159   80  201 1    
   160   81  202 1    
   161   81  203 1    
   162   81  204 1    
   163   82   83 2    
   164   82   84 am   BACKBONE|DICT|INTERRES
   165   84   85 1    
   166   84  205 1    
   167   85   86 1    
   168   85   87 1    
   169   85  206 1    
   170   86  207 1    
   171   86  208 1    
   172   86  209 1    
   173   87   88 2    
   174   87   89 am   BACKBONE|DICT|INTERRES
   175   89   90 1    
   176   89  210 1    
   177   90   91 1    
   178   90   92 1    
   179   90  211 1    
   180   91  212 1    
   181   91  213 1    
   182   91  214 1    
   183   92   93 2    
   184   92   94 am   BACKBONE|DICT|INTERRES
   185   94   95 1    
   186   94  215 1    
   187   95   96 1    
   188   95   97 1    
   189   95  216 1    
   190   96  217 1    
   191   96  218 1    
   192   96  219 1    
   193   97   98 2    
   194   97   99 am   BACKBONE|DICT|INTERRES
   195   99  100 1    
   196   99  220 1    
   197  100  101 1    
   198  100  102 1    
   199  100  221 1    
   200  101  222 1    
   201  101  223 1    
   202  101  224 1    
   203  102  103 2    
   204  102  104 am   BACKBONE|DICT|INTERRES
   205  104  105 1    
   206  104  225 1    
   207  105  106 1    
   208  105  107 1    
   209  105  226 1    
   210  106  227 1    
   211  106  228 1    
   212  106  229 1    
   213  107  108 2    
   214  107  109 am   BACKBONE|DICT|INTERRES
   215  109  110 1    
   216  109  230 1    
   217  110  111 1    
   218  110  112 1    
   219  110  231 1    
   220  111  232 1    
   221  111  233 1    
   222  111  234 1    
   223  112  113 2    
   224  112  114 am   BACKBONE|DICT|INTERRES
   225  114  115 1    
   226  114  235 1    
   227  115  116 1    
   228  115  117 1    
   229  115  236 1    
   230  116  237 1    
   231  116  238 1    
   232  116  239 1    
   233  117  118 2    
   234  117  119 am   BACKBONE|DICT|INTERRES
   235  119  120 1    
   236  119  240 1    
   237  120  121 1    
   238  120  124 1    
   239  120  241 1    
   240  121  122 am   BACKBONE|DICT|INTERRES
   241  121  123 2    
   242  122  242 1    
   243  122  243 1    
   244  124  125 1    
   245  124  244 1    
   246  124  245 1    
   247  125  126 1    
   248  126  246 1    
   249  126  247 1    
@<TRIPOS>SUBSTRUCTURE
     1 UNK         1 GROUP             0       ****    0 ROOT    
