@<TRIPOS>MOLECULE
3R540
247   249    1
SMALL
USER_CHARGES


@<TRIPOS>ATOM
      1 CA          5.8101  -14.4561  -51.6830 C.3       0 UNK        -0.1800 
      2 C           5.0503  -13.2283  -52.1827 C.2       0 UNK         0.5000 
      3 O           5.5282  -12.5527  -53.0923 O.2       0 UNK        -0.5000 
      4 N           3.8674  -12.9048  -51.6418 N.am      1 UNK        -0.5000 
      5 CA          3.2100  -13.5536  -50.5019 C.3       1 UNK         0.1400 
      6 C6          1.6897  -13.2444  -50.4903 C.3       23 UNK        -0.0398 
      7 S7          0.7283  -14.5435  -49.6399 S.3       23 UNK        -0.2404 
      8 C8          0.1066  -15.4866  -51.0650 C.3       23 UNK        -0.0205 
      9 C9         -0.4808  -16.8187  -50.6309 C.ar      23 UNK        -0.0193 
     10 C10        -1.7722  -16.8801  -50.1025 C.ar      23 UNK        -0.1150 
     11 C11        -2.3210  -18.1022  -49.7049 C.ar      23 UNK        -0.0193 
     12 C12        -1.5664  -19.2712  -49.8440 C.ar      23 UNK        -0.1150 
     13 C13        -0.2687  -19.2219  -50.3648 C.ar      23 UNK        -0.0193 
     14 C14         0.2669  -17.9921  -50.7574 C.ar      23 UNK        -0.1150 
     15 C15         0.5495  -20.4967  -50.5255 C.3       23 UNK        -0.0205 
     16 S16         2.0208  -20.5456  -49.4434 S.3       23 UNK        -0.2404 
     17 C17         1.2912  -20.4691  -47.7709 C.3       23 UNK        -0.0398 
     18 CA          1.0991  -21.8505  -47.0975 C.3       11 UNK         0.1400 
     19 N           0.7931  -21.7206  -45.6710 N.am      11 UNK        -0.5000 
     20 C           0.6520  -22.7353  -44.8061 C.2       10 UNK         0.5000 
     21 O           0.8397  -23.9151  -45.0971 O.2       10 UNK        -0.5000 
     22 CA          0.1610  -22.3805  -43.3909 C.3       10 UNK         0.1400 
     23 CB          1.3230  -21.9020  -42.5084 C.3       10 UNK        -0.1800 
     24 N          -0.9057  -21.3777  -43.4025 N.am      10 UNK        -0.5000 
     25 C          -2.1096  -21.5625  -43.9650 C.2       9 UNK         0.5000 
     26 O          -2.4662  -22.6210  -44.4831 O.2       9 UNK        -0.5000 
     27 CA         -3.0559  -20.3488  -44.0001 C.3       9 UNK         0.1400 
     28 CB         -3.7511  -20.1564  -42.6444 C.3       9 UNK        -0.1800 
     29 N          -2.3709  -19.1146  -44.3886 N.am      9 UNK        -0.5000 
     30 C          -1.8007  -18.9133  -45.5855 C.2       8 UNK         0.5000 
     31 O          -1.8492  -19.7310  -46.5041 O.2       8 UNK        -0.5000 
     32 CA         -0.9910  -17.6142  -45.7665 C.3       8 UNK         0.1400 
     33 CB         -1.9059  -16.4176  -46.0594 C.3       8 UNK        -0.1800 
     34 N          -0.1638  -17.3069  -44.6010 N.am      8 UNK        -0.5000 
     35 C           0.8522  -18.0622  -44.1645 C.2       7 UNK         0.5000 
     36 O           1.2411  -19.0784  -44.7363 O.2       7 UNK        -0.5000 
     37 CA          1.5116  -17.6412  -42.8410 C.3       7 UNK         0.1400 
     38 CB          2.5493  -16.5348  -43.0674 C.3       7 UNK        -0.1800 
     39 N           0.5262  -17.1968  -41.8574 N.am      7 UNK        -0.5000 
     40 C          -0.3415  -18.0111  -41.2415 C.2       6 UNK         0.5000 
     41 O          -0.3879  -19.2274  -41.4246 O.2       6 UNK        -0.5000 
     42 CA         -1.3514  -17.3442  -40.2912 C.3       6 UNK         0.1400 
     43 CB         -0.7229  -17.1065  -38.9100 C.3       6 UNK        -0.1800 
     44 N          -1.8626  -16.0779  -40.8184 N.am      6 UNK        -0.5000 
     45 C          -2.6419  -15.9764  -41.9038 C.2       5 UNK         0.5000 
     46 O          -3.0216  -16.9409  -42.5665 O.2       5 UNK        -0.5000 
     47 CA         -3.0253  -14.5546  -42.3480 C.3       5 UNK         0.1400 
     48 CB         -4.2348  -14.0459  -41.5494 C.3       5 UNK        -0.1800 
     49 N          -1.9285  -13.5874  -42.2427 N.am      5 UNK        -0.5000 
     50 C          -0.7751  -13.6708  -42.9176 C.2       4 UNK         0.5000 
     51 O          -0.4604  -14.6277  -43.6290 O.2       4 UNK        -0.5000 
     52 CA          0.1951  -12.4940  -42.7813 C.3       4 UNK         0.1400 
     53 CB          1.3233  -12.8133  -41.7875 C.3       4 UNK        -0.1800 
     54 N           0.7537  -12.2387  -44.1033 N.am      4 UNK        -0.5000 
     55 C           1.0188  -11.0333  -44.6169 C.2       3 UNK         0.5000 
     56 O           0.9112   -9.9842  -43.9787 O.2       3 UNK        -0.5000 
     57 CA          1.4445  -10.9997  -46.1015 C.3       3 UNK         0.1400 
     58 CB          2.1481   -9.6848  -46.4994 C.3       3 UNK        -0.1800 
     59 N           2.2407  -12.1603  -46.5197 N.am      3 UNK        -0.5000 
     60 C           3.4523  -12.5212  -46.0667 C.2       2 UNK         0.5000 
     61 O           4.0519  -11.9443  -45.1592 O.2       2 UNK        -0.5000 
     62 CA          4.1175  -13.7303  -46.7572 C.3       2 UNK         0.1400 
     63 CB          3.8894  -15.0066  -45.9357 C.3       2 UNK        -0.1800 
     64 N           3.6440  -13.9609  -48.1250 N.am      2 UNK        -0.5000 
     65 C           3.8763  -13.1512  -49.1662 C.2       1 UNK         0.5000 
     66 O           4.5580  -12.1257  -49.0947 O.2       1 UNK        -0.5000 
     67 C           0.0355  -22.6967  -47.8233 C.2       11 UNK         0.5000 
     68 O           0.3936  -23.6638  -48.4950 O.2       11 UNK        -0.5000 
     69 N          -1.2470  -22.3435  -47.6469 N.am      12 UNK        -0.5000 
     70 CA         -2.3846  -23.0543  -48.2331 C.3       12 UNK         0.1400 
     71 CB         -3.6880  -22.3016  -47.9263 C.3       12 UNK        -0.1800 
     72 C          -2.4796  -24.5210  -47.7760 C.2       12 UNK         0.5000 
     73 O          -2.7579  -25.3941  -48.5975 O.2       12 UNK        -0.5000 
     74 N          -2.2108  -24.7700  -46.4869 N.am      13 UNK        -0.5000 
     75 CA         -2.1479  -26.1066  -45.8982 C.3       13 UNK         0.1400 
     76 CB         -2.0801  -25.9929  -44.3677 C.3       13 UNK        -0.1800 
     77 C          -0.9732  -26.9418  -46.4412 C.2       13 UNK         0.5000 
     78 O          -1.1714  -28.1080  -46.7821 O.2       13 UNK        -0.5000 
     79 N           0.2179  -26.3323  -46.5290 N.am      14 UNK        -0.5000 
     80 CA          1.4429  -26.9604  -47.0286 C.3       14 UNK         0.1400 
     81 CB          2.6488  -26.0606  -46.7176 C.3       14 UNK        -0.1800 
     82 C           1.3831  -27.2851  -48.5313 C.2       14 UNK         0.5000 
     83 O           1.7974  -28.3727  -48.9346 O.2       14 UNK        -0.5000 
     84 N           0.8549  -26.3474  -49.3290 N.am      15 UNK        -0.5000 
     85 CA          0.6430  -26.5080  -50.7687 C.3       15 UNK         0.1400 
     86 CB          0.4267  -25.1227  -51.3977 C.3       15 UNK        -0.1800 
     87 C          -0.5395  -27.4375  -51.1043 C.2       15 UNK         0.5000 
     88 O          -0.5884  -27.9709  -52.2132 O.2       15 UNK        -0.5000 
     89 N          -1.4709  -27.5927  -50.1510 N.am      16 UNK        -0.5000 
     90 CA         -2.7425  -28.3190  -50.2391 C.3       16 UNK         0.1400 
     91 CB         -2.5066  -29.8289  -50.4500 C.3       16 UNK        -0.1800 
     92 C          -3.7156  -27.7060  -51.2706 C.2       16 UNK         0.5000 
     93 O          -4.5710  -28.4108  -51.8098 O.2       16 UNK        -0.5000 
     94 N          -3.5699  -26.4004  -51.5193 N.am      17 UNK        -0.5000 
     95 CA         -4.3232  -25.5972  -52.4721 C.3       17 UNK         0.1400 
     96 CB         -3.9498  -25.9813  -53.9170 C.3       17 UNK        -0.1800 
     97 C          -4.0005  -24.1202  -52.2121 C.2       17 UNK         0.5000 
     98 O          -2.9170  -23.8061  -51.7140 O.2       17 UNK        -0.5000 
     99 N          -4.9381  -23.2395  -52.5708 N.am      18 UNK        -0.5000 
    100 CA        -4.7716  -21.7892  -52.5137 C.3       18 UNK         0.1400 
    101 CB        -6.1623  -21.1451  -52.5866 C.3       18 UNK        -0.1800 
    102 C         -3.8903  -21.2812  -53.6691 C.2       18 UNK         0.5000 
    103 O         -3.9438  -21.8404  -54.7677 O.2       18 UNK        -0.5000 
    104 N         -3.1378  -20.2058  -53.4132 N.am      19 UNK        -0.5000 
    105 CA        -2.3176  -19.5013  -54.4057 C.3       19 UNK         0.1400 
    106 CB        -0.8313  -19.7019  -54.0677 C.3       19 UNK        -0.1800 
    107 C         -2.6910  -18.0071  -54.4874 C.2       19 UNK         0.5000 
    108 O         -1.9435  -17.2192  -55.0689 O.2       19 UNK        -0.5000 
    109 N         -3.8408  -17.6431  -53.9113 N.am      20 UNK        -0.5000 
    110 CA        -4.4189  -16.3060  -53.8717 C.3       20 UNK         0.1400 
    111 CB        -3.7049  -15.4532  -52.8029 C.3       20 UNK        -0.1800 
    112 C         -5.9249  -16.4572  -53.5961 C.2       20 UNK         0.5000 
    113 O         -6.4655  -17.5606  -53.7271 O.2       20 UNK        -0.5000 
    114 N         -6.5815  -15.3649  -53.1860 N.am      21 UNK        -0.5000 
    115 CA        -7.9801  -15.3256  -52.7496 C.3       21 UNK         0.1400 
    116 CB        -8.4787  -13.8709  -52.8227 C.3       21 UNK        -0.1800 
    117 C         -8.1581  -15.9483  -51.3456 C.2       21 UNK         0.5000 
    118 O         -8.5428  -15.2591  -50.3988 O.2       21 UNK        -0.5000 
    119 N         -7.8411  -17.2408  -51.2389 N.am      22 UNK        -0.5000 
    120 CA        -7.8369  -18.0379  -50.0045 C.3       22 UNK         0.1400 
    121 C         -8.4057  -19.4740  -50.1871 C.2       22 UNK         0.5000 
    122 N         -9.0592  -19.7888  -51.2997 N.am      22 UNK        -0.7600 
    123 O         -8.2850  -20.3113  -49.2973 O.2       22 UNK        -0.5000 
    124 C124       -6.4633  -17.9897  -49.2798 C.3       23 UNK        -0.0398 
    125 S125       -5.0173  -18.4558  -50.3011 S.3       23 UNK        -0.2404 
    126 C126       -3.7078  -18.1420  -49.0817 C.3       23 UNK        -0.0205 
    127 H127        5.2092  -15.3587  -51.7923 H         1 UNK         0.0600 
    128 H128        6.0937  -14.3432  -50.6370 H         1 UNK         0.0600 
    129 H129        6.7247  -14.5983  -52.2591 H         1 UNK         0.0600 
    130 H130        3.4095  -12.0698  -51.9772 H         1 UNK         0.3000 
    131 H131        3.3323  -14.6311  -50.6255 H         1 UNK         0.0600 
    132 H132        1.3127  -13.1602  -51.5108 H         1 UNK         0.0800 
    133 H133        1.4795  -12.2790  -50.0256 H         1 UNK         0.0800 
    134 H134       -0.6501  -14.8985  -51.5858 H         1 UNK         0.0800 
    135 H135        0.9166  -15.6503  -51.7779 H         1 UNK         0.0800 
    136 H136       -2.3444  -15.9705  -49.9883 H         1 UNK         0.1150 
    137 H137       -1.9840  -20.2168  -49.5318 H         1 UNK         0.1150 
    138 H138        1.2684  -17.9521  -51.1621 H         1 UNK         0.1150 
    139 H139       -0.0678  -21.3785  -50.3515 H         1 UNK         0.0800 
    140 H140        0.8836  -20.5705  -51.5610 H         1 UNK         0.0800 
    141 H141        0.3600  -19.9061  -47.7951 H         1 UNK         0.0800 
    142 H142        1.9751  -19.8699  -47.1692 H         1 UNK         0.0800 
    143 H143        2.0460  -22.3904  -47.1634 H         1 UNK         0.0600 
    144 H144        0.6842  -20.7720  -45.3216 H         1 UNK         0.3000 
    145 H145       -0.2466  -23.2902  -42.9455 H         1 UNK         0.0600 
    146 H146        0.9916  -21.7191  -41.4862 H         1 UNK         0.0600 
    147 H147        2.1135  -22.6522  -42.4650 H         1 UNK         0.0600 
    148 H148        1.7657  -20.9809  -42.8862 H         1 UNK         0.0600 
    149 H149       -0.7041  -20.4923  -42.9490 H         1 UNK         0.3000 
    150 H150       -3.8251  -20.5514  -44.7483 H         1 UNK         0.0600 
    151 H151       -4.2740  -21.0642  -42.3410 H         1 UNK         0.0600 
    152 H152       -4.4897  -19.3561  -42.6916 H         1 UNK         0.0600 
    153 H153       -3.0393  -19.9077  -41.8570 H         1 UNK         0.0600 
    154 H154       -2.3425  -18.3718  -43.6962 H         1 UNK         0.3000 
    155 H155       -0.3280  -17.7505  -46.6235 H         1 UNK         0.0600 
    156 H156       -1.3251  -15.5097  -46.2241 H         1 UNK         0.0600 
    157 H157       -2.4946  -16.5881  -46.9574 H         1 UNK         0.0600 
    158 H158       -2.5993  -16.2280  -45.2401 H         1 UNK         0.0600 
    159 H159       -0.3848  -16.4493  -44.1016 H         1 UNK         0.3000 
    160 H160        2.0307  -18.5110  -42.4331 H         1 UNK         0.0600 
    161 H161        2.1013  -15.6453  -43.5102 H         1 UNK         0.0600 
    162 H162        3.3356  -16.8801  -43.7393 H         1 UNK         0.0600 
    163 H163        3.0275  -16.2419  -42.1327 H         1 UNK         0.0600 
    164 H164        0.4622  -16.2039  -41.6913 H         1 UNK         0.3000 
    165 H165       -2.1946  -18.0275  -40.1692 H         1 UNK         0.0600 
    166 H166       -1.4542  -16.7054  -38.2082 H         1 UNK         0.0600 
    167 H167       -0.3463  -18.0391  -38.4877 H         1 UNK         0.0600 
    168 H168        0.1131  -16.4076  -38.9605 H         1 UNK         0.0600 
    169 H169       -1.5925  -15.2339  -40.3353 H         1 UNK         0.3000 
    170 H170       -3.3147  -14.6096  -43.3995 H         1 UNK         0.0600 
    171 H171       -5.0724  -14.7408  -41.6244 H         1 UNK         0.0600 
    172 H172       -3.9997  -13.9282  -40.4909 H         1 UNK         0.0600 
    173 H173       -4.5797  -13.0828  -41.9262 H         1 UNK         0.0600 
    174 H174       -2.1037  -12.7733  -41.6714 H         1 UNK         0.3000 
    175 H175       -0.3596  -11.6206  -42.4316 H         1 UNK         0.0600 
    176 H176        0.9230  -13.0340  -40.7973 H         1 UNK         0.0600 
    177 H177        1.9117  -13.6738  -42.1061 H         1 UNK         0.0600 
    178 H178        2.0031  -11.9675  -41.6831 H         1 UNK         0.0600 
    179 H179        0.8218  -13.0565  -44.6947 H         1 UNK         0.3000 
    180 H180        0.5172  -11.0536  -46.6734 H         1 UNK         0.0600 
    181 H181        3.0562   -9.5194  -45.9192 H         1 UNK         0.0600 
    182 H182        1.4958   -8.8261  -46.3369 H         1 UNK         0.0600 
    183 H183        2.4208   -9.6879  -47.5549 H         1 UNK         0.0600 
    184 H184        1.8353  -12.7242  -47.2528 H         1 UNK         0.3000 
    185 H185        5.1912  -13.5355  -46.7976 H         1 UNK         0.0600 
    186 H186        4.2510  -14.8787  -44.9146 H         1 UNK         0.0600 
    187 H187        2.8315  -15.2677  -45.8834 H         1 UNK         0.0600 
    188 H188        4.4240  -15.8545  -46.3641 H         1 UNK         0.0600 
    189 H189        3.0622  -14.7755  -48.2642 H         1 UNK         0.3000 
    190 H190       -1.4605  -21.5189  -47.0910 H         1 UNK         0.3000 
    191 H191       -2.2402  -23.0555  -49.3142 H         1 UNK         0.0600 
    192 H192       -3.8631  -22.2199  -46.8533 H         1 UNK         0.0600 
    193 H193       -4.5459  -22.8145  -48.3630 H         1 UNK         0.0600 
    194 H194       -3.6724  -21.2944  -48.3390 H         1 UNK         0.0600 
    195 H195       -2.0432  -23.9861  -45.8631 H         1 UNK         0.3000 
    196 H196       -3.0722  -26.6278  -46.1559 H         1 UNK         0.0600 
    197 H197       -2.0568  -26.9795  -43.9032 H         1 UNK         0.0600 
    198 H198       -2.9501  -25.4675  -43.9734 H         1 UNK         0.0600 
    199 H199       -1.1901  -25.4546  -44.0414 H         1 UNK         0.0600 
    200 H200        0.3085  -25.3780  -46.1890 H         1 UNK         0.3000 
    201 H201        1.5781  -27.9018  -46.4921 H         1 UNK         0.0600 
    202 H202        2.7590  -25.9084  -45.6438 H         1 UNK         0.0600 
    203 H203        2.5503  -25.0803  -47.1855 H         1 UNK         0.0600 
    204 H204        3.5755  -26.5075  -47.0794 H         1 UNK         0.0600 
    205 H205        0.5858  -25.4504  -48.9277 H         1 UNK         0.3000 
    206 H206        1.5427  -26.9452  -51.2065 H         1 UNK         0.0600 
    207 H207        1.2888  -24.4757  -51.2343 H         1 UNK         0.0600 
    208 H208        0.2732  -25.1976  -52.4749 H         1 UNK         0.0600 
    209 H209       -0.4468  -24.6247  -50.9755 H         1 UNK         0.0600 
    210 H210       -1.3465  -27.0668  -49.2954 H         1 UNK         0.3000 
    211 H211       -3.2212  -28.1958  -49.2666 H         1 UNK         0.0600 
    212 H212       -2.1009  -30.0429  -51.4389 H         1 UNK         0.0600 
    213 H213       -3.4383  -30.3870  -50.3523 H         1 UNK         0.0600 
    214 H214       -1.8130  -30.2254  -49.7083 H         1 UNK         0.0600 
    215 H215       -2.8842  -25.8751  -50.9876 H         1 UNK         0.3000 
    216 H216       -5.3897  -25.7623  -52.3069 H         1 UNK         0.0600 
    217 H217       -2.8783  -25.8767  -54.0924 H         1 UNK         0.0600 
    218 H218       -4.4642  -25.3446  -54.6380 H         1 UNK         0.0600 
    219 H219       -4.2263  -27.0108  -54.1436 H         1 UNK         0.0600 
    220 H220       -5.7806  -23.5730  -53.0155 H         1 UNK         0.3000 
    221 H221       -4.3081  -21.5201  -51.5614 H         1 UNK         0.0600 
    222 H222       -6.7837  -21.4725  -51.7536 H         1 UNK         0.0600 
    223 H223       -6.6796  -21.4002  -53.5123 H         1 UNK         0.0600 
    224 H224       -6.0996  -20.0583  -52.5400 H         1 UNK         0.0600 
    225 H225       -3.1478  -19.8016  -52.4862 H         1 UNK         0.3000 
    226 H226       -2.4923  -19.9097  -55.4029 H         1 UNK         0.0600 
    227 H227       -0.1926  -19.3028  -54.8563 H         1 UNK         0.0600 
    228 H228       -0.5644  -19.1924  -53.1443 H         1 UNK         0.0600 
    229 H229       -0.5877  -20.7585  -53.9551 H         1 UNK         0.0600 
    230 H230       -4.4509  -18.3581  -53.5369 H         1 UNK         0.3000 
    231 H231       -4.3036  -15.8386  -54.8514 H         1 UNK         0.0600 
    232 H232       -3.9141  -15.8220  -51.7985 H         1 UNK         0.0600 
    233 H233       -4.0211  -14.4109  -52.8464 H         1 UNK         0.0600 
    234 H234       -2.6244  -15.4614  -52.9431 H         1 UNK         0.0600 
    235 H235       -6.0620  -14.5066  -53.0745 H         1 UNK         0.3000 
    236 H236       -8.5811  -15.9159  -53.4446 H         1 UNK         0.0600 
    237 H237       -8.3986  -13.4776  -53.8362 H         1 UNK         0.0600 
    238 H238       -9.5276  -13.8019  -52.5317 H         1 UNK         0.0600 
    239 H239       -7.9097  -13.2151  -52.1625 H         1 UNK         0.0600 
    240 H240       -7.4672  -17.7024  -52.0629 H         1 UNK         0.3000 
    241 H241       -8.5577  -17.5838  -49.3223 H         1 UNK         0.0600 
    242 H242       -9.4384  -20.7167  -51.4017 H         1 UNK         0.3800 
    243 H243       -9.2116  -19.1056  -52.0238 H         1 UNK         0.3800 
    244 H244       -6.4763  -18.6109  -48.3827 H         1 UNK         0.0800 
    245 H245       -6.3002  -16.9714  -48.9246 H         1 UNK         0.0800 
    246 H246       -3.9129  -17.1894  -48.5936 H         1 UNK         0.0800 
    247 H247       -3.7485  -18.9009  -48.2999 H         1 UNK         0.0800 
@<TRIPOS>BOND
     1    1    2 1    
     2    1  127 1    
     3    1  128 1    
     4    1  129 1    
     5    2    3 2    
     6    2    4 am   BACKBONE|DICT|INTERRES
     7    4    5 1    
     8    4  130 1    
     9    5    6 1    
    10    5   65 1    
    11    5  131 1    
    12    6    7 1    
    13    6  132 1    
    14    6  133 1    
    15    7    8 1    
    16    8    9 1    
    17    8  134 1    
    18    8  135 1    
    19    9   10 ar   
    20    9   14 ar   
    21   10   11 ar   
    22   10  136 1    
    23   11   12 ar   
    24   11  126 1    
    25   12   13 ar   
    26   12  137 1    
    27   13   14 ar   
    28   13   15 1    
    29   14  138 1    
    30   15   16 1    
    31   15  139 1    
    32   15  140 1    
    33   16   17 1    
    34   17   18 1    
    35   17  141 1    
    36   17  142 1    
    37   18   19 1    
    38   18   67 1    
    39   18  143 1    
    40   19   20 am   BACKBONE|DICT|INTERRES
    41   19  144 1    
    42   20   21 2    
    43   20   22 1    
    44   22   23 1    
    45   22   24 1    
    46   22  145 1    
    47   23  146 1    
    48   23  147 1    
    49   23  148 1    
    50   24   25 am   BACKBONE|DICT|INTERRES
    51   24  149 1    
    52   25   26 2    
    53   25   27 1    
    54   27   28 1    
    55   27   29 1    
    56   27  150 1    
    57   28  151 1    
    58   28  152 1    
    59   28  153 1    
    60   29   30 am   BACKBONE|DICT|INTERRES
    61   29  154 1    
    62   30   31 2    
    63   30   32 1    
    64   32   33 1    
    65   32   34 1    
    66   32  155 1    
    67   33  156 1    
    68   33  157 1    
    69   33  158 1    
    70   34   35 am   BACKBONE|DICT|INTERRES
    71   34  159 1    
    72   35   36 2    
    73   35   37 1    
    74   37   38 1    
    75   37   39 1    
    76   37  160 1    
    77   38  161 1    
    78   38  162 1    
    79   38  163 1    
    80   39   40 am   BACKBONE|DICT|INTERRES
    81   39  164 1    
    82   40   41 2    
    83   40   42 1    
    84   42   43 1    
    85   42   44 1    
    86   42  165 1    
    87   43  166 1    
    88   43  167 1    
    89   43  168 1    
    90   44   45 am   BACKBONE|DICT|INTERRES
    91   44  169 1    
    92   45   46 2    
    93   45   47 1    
    94   47   48 1    
    95   47   49 1    
    96   47  170 1    
    97   48  171 1    
    98   48  172 1    
    99   48  173 1    
   100   49   50 am   BACKBONE|DICT|INTERRES
   101   49  174 1    
   102   50   51 2    
   103   50   52 1    
   104   52   53 1    
   105   52   54 1    
   106   52  175 1    
   107   53  176 1    
   108   53  177 1    
   109   53  178 1    
   110   54   55 am   BACKBONE|DICT|INTERRES
   111   54  179 1    
   112   55   56 2    
   113   55   57 1    
   114   57   58 1    
   115   57   59 1    
   116   57  180 1    
   117   58  181 1    
   118   58  182 1    
   119   58  183 1    
   120   59   60 am   BACKBONE|DICT|INTERRES
   121   59  184 1    
   122   60   61 2    
   123   60   62 1    
   124   62   63 1    
   125   62   64 1    
   126   62  185 1    
   127   63  186 1    
   128   63  187 1    
   129   63  188 1    
   130   64   65 am   BACKBONE|DICT|INTERRES
   131   64  189 1    
   132   65   66 2    
   133   67   68 2    
   134   67   69 am   BACKBONE|DICT|INTERRES
   135   69   70 1    
   136   69  190 1    
   137   70   71 1    
   138   70   72 1    
   139   70  191 1    
   140   71  192 1    
   141   71  193 1    
   142   71  194 1    
   143   72   73 2    
   144   72   74 am   BACKBONE|DICT|INTERRES
   145   74   75 1    
   146   74  195 1    
   147   75   76 1    
   148   75   77 1    
   149   75  196 1    
   150   76  197 1    
   151   76  198 1    
   152   76  199 1    
   153   77   78 2    
   154   77   79 am   BACKBONE|DICT|INTERRES
   155   79   80 1    
   156   79  200 1    
   157   80   81 1    
   158   80   82 1    
   159   80  201 1    
   160   81  202 1    
   161   81  203 1    
   162   81  204 1    
   163   82   83 2    
   164   82   84 am   BACKBONE|DICT|INTERRES
   165   84   85 1    
   166   84  205 1    
   167   85   86 1    
   168   85   87 1    
   169   85  206 1    
   170   86  207 1    
   171   86  208 1    
   172   86  209 1    
   173   87   88 2    
   174   87   89 am   BACKBONE|DICT|INTERRES
   175   89   90 1    
   176   89  210 1    
   177   90   91 1    
   178   90   92 1    
   179   90  211 1    
   180   91  212 1    
   181   91  213 1    
   182   91  214 1    
   183   92   93 2    
   184   92   94 am   BACKBONE|DICT|INTERRES
   185   94   95 1    
   186   94  215 1    
   187   95   96 1    
   188   95   97 1    
   189   95  216 1    
   190   96  217 1    
   191   96  218 1    
   192   96  219 1    
   193   97   98 2    
   194   97   99 am   BACKBONE|DICT|INTERRES
   195   99  100 1    
   196   99  220 1    
   197  100  101 1    
   198  100  102 1    
   199  100  221 1    
   200  101  222 1    
   201  101  223 1    
   202  101  224 1    
   203  102  103 2    
   204  102  104 am   BACKBONE|DICT|INTERRES
   205  104  105 1    
   206  104  225 1    
   207  105  106 1    
   208  105  107 1    
   209  105  226 1    
   210  106  227 1    
   211  106  228 1    
   212  106  229 1    
   213  107  108 2    
   214  107  109 am   BACKBONE|DICT|INTERRES
   215  109  110 1    
   216  109  230 1    
   217  110  111 1    
   218  110  112 1    
   219  110  231 1    
   220  111  232 1    
   221  111  233 1    
   222  111  234 1    
   223  112  113 2    
   224  112  114 am   BACKBONE|DICT|INTERRES
   225  114  115 1    
   226  114  235 1    
   227  115  116 1    
   228  115  117 1    
   229  115  236 1    
   230  116  237 1    
   231  116  238 1    
   232  116  239 1    
   233  117  118 2    
   234  117  119 am   BACKBONE|DICT|INTERRES
   235  119  120 1    
   236  119  240 1    
   237  120  121 1    
   238  120  124 1    
   239  120  241 1    
   240  121  122 am   BACKBONE|DICT|INTERRES
   241  121  123 2    
   242  122  242 1    
   243  122  243 1    
   244  124  125 1    
   245  124  244 1    
   246  124  245 1    
   247  125  126 1    
   248  126  246 1    
   249  126  247 1    
@<TRIPOS>SUBSTRUCTURE
     1 UNK         1 GROUP             0       ****    0 ROOT    
