@<TRIPOS>MOLECULE
3R540
247   249    1
SMALL
USER_CHARGES


@<TRIPOS>ATOM
      1 CA          0.1929  -14.4124  -46.3654 C.3       0 UNK        -0.1800 
      2 C           1.4236  -14.2713  -47.2452 C.2       0 UNK         0.5000 
      3 O           1.6259  -13.2063  -47.8266 O.2       0 UNK        -0.5000 
      4 N           2.2596  -15.3204  -47.3212 N.am      1 UNK        -0.5000 
      5 CA          3.4894  -15.3809  -48.1376 C.3       1 UNK         0.1400 
      6 C6          4.2092  -16.7551  -48.0501 C.3       23 UNK        -0.0398 
      7 S7          3.1473  -18.2006  -48.3864 S.3       23 UNK        -0.2404 
      8 C8          3.0770  -18.2045  -50.2128 C.3       23 UNK        -0.0205 
      9 C9          1.6377  -18.2800  -50.7012 C.ar      23 UNK        -0.0193 
     10 C10         1.2061  -19.3135  -51.5421 C.ar      23 UNK        -0.1150 
     11 C11        -0.1378  -19.3966  -51.9302 C.ar      23 UNK        -0.0193 
     12 C12        -1.0507  -18.4595  -51.4422 C.ar      23 UNK        -0.1150 
     13 C13        -0.6298  -17.4332  -50.5974 C.ar      23 UNK        -0.0193 
     14 C14         0.7194  -17.3218  -50.2686 C.ar      23 UNK        -0.1150 
     15 C15        -1.6428  -16.5034  -49.9583 C.3       23 UNK        -0.0205 
     16 S16        -2.5196  -17.3501  -48.6044 S.3       23 UNK        -0.2404 
     17 C17        -1.1448  -17.9004  -47.5214 C.3       23 UNK        -0.0398 
     18 CA         -0.6921  -19.3860  -47.6261 C.3       11 UNK         0.1400 
     19 N           0.1991  -19.7433  -46.5157 N.am      11 UNK        -0.5000 
     20 C           0.8257  -20.9174  -46.3483 C.2       10 UNK         0.5000 
     21 O           0.7784  -21.8414  -47.1554 O.2       10 UNK        -0.5000 
     22 CA          1.5884  -21.1257  -45.0266 C.3       10 UNK         0.1400 
     23 CB          2.9877  -20.4980  -45.0986 C.3       10 UNK        -0.1800 
     24 N           0.8572  -20.6148  -43.8637 N.am      10 UNK        -0.5000 
     25 C          -0.3332  -21.0821  -43.4546 C.2       9 UNK         0.5000 
     26 O          -0.9120  -22.0308  -43.9838 O.2       9 UNK        -0.5000 
     27 CA         -1.0244  -20.3261  -42.3034 C.3       9 UNK         0.1400 
     28 CB         -0.4810  -20.7654  -40.9359 C.3       9 UNK        -0.1800 
     29 N          -0.8999  -18.8756  -42.4490 N.am      9 UNK        -0.5000 
     30 C          -1.4555  -18.1757  -43.4488 C.2       8 UNK         0.5000 
     31 O          -2.2129  -18.6677  -44.2864 O.2       8 UNK        -0.5000 
     32 CA         -1.0368  -16.7000  -43.5743 C.3       8 UNK         0.1400 
     33 CB         -1.8719  -15.7982  -42.6545 C.3       8 UNK        -0.1800 
     34 N           0.3882  -16.5176  -43.2945 N.am      8 UNK        -0.5000 
     35 C           1.3880  -16.9659  -44.0655 C.2       7 UNK         0.5000 
     36 O           1.2151  -17.4551  -45.1802 O.2       7 UNK        -0.5000 
     37 CA          2.8173  -16.8779  -43.4995 C.3       7 UNK         0.1400 
     38 CB          3.5297  -15.6105  -43.9796 C.3       7 UNK        -0.1800 
     39 N           2.8407  -16.9263  -42.0416 N.am      7 UNK        -0.5000 
     40 C           2.6935  -18.0476  -41.3251 C.2       6 UNK         0.5000 
     41 O           2.5475  -19.1606  -41.8296 O.2       6 UNK        -0.5000 
     42 CA          2.6669  -17.8875  -39.7933 C.3       6 UNK         0.1400 
     43 CB          4.0883  -17.9714  -39.2183 C.3       6 UNK        -0.1800 
     44 N           2.0503  -16.6255  -39.3767 N.am      6 UNK        -0.5000 
     45 C           0.7482  -16.3441  -39.5224 C.2       5 UNK         0.5000 
     46 O          -0.0743  -17.1493  -39.9601 O.2       5 UNK        -0.5000 
     47 CA          0.3076  -14.9059  -39.1809 C.3       5 UNK         0.1400 
     48 CB         -0.0096  -14.7801  -37.6835 C.3       5 UNK        -0.1800 
     49 N           1.2903  -13.8808  -39.5596 N.am      5 UNK        -0.5000 
     50 C           1.7006  -13.6486  -40.8143 C.2       4 UNK         0.5000 
     51 O           1.3183  -14.3106  -41.7787 O.2       4 UNK        -0.5000 
     52 CA          2.7603  -12.5462  -41.0110 C.3       4 UNK         0.1400 
     53 CB          4.1481  -13.0770  -40.6169 C.3       4 UNK        -0.1800 
     54 N           2.8364  -12.0526  -42.3895 N.am      4 UNK        -0.5000 
     55 C           1.8668  -11.4171  -43.0585 C.2       3 UNK         0.5000 
     56 O           0.7727  -11.1443  -42.5618 O.2       3 UNK        -0.5000 
     57 CA          2.1413  -10.9950  -44.5220 C.3       3 UNK         0.1400 
     58 CB          2.4316   -9.4839  -44.6035 C.3       3 UNK        -0.1800 
     59 N           3.1635  -11.7567  -45.2624 N.am      3 UNK        -0.5000 
     60 C           4.4850  -11.8479  -45.0391 C.2       2 UNK         0.5000 
     61 O           5.0467  -11.3428  -44.0672 O.2       2 UNK        -0.5000 
     62 CA          5.3016  -12.6745  -46.0534 C.3       2 UNK         0.1400 
     63 CB          6.6051  -13.2393  -45.4577 C.3       2 UNK        -0.1800 
     64 N           4.4902  -13.7704  -46.5754 N.am      2 UNK        -0.5000 
     65 C           4.5042  -14.2528  -47.8235 C.2       1 UNK         0.5000 
     66 O           5.2596  -13.8469  -48.7073 O.2       1 UNK        -0.5000 
     67 C          -1.8655  -20.3804  -47.7370 C.2       11 UNK         0.5000 
     68 O          -2.0728  -20.9610  -48.8035 O.2       11 UNK        -0.5000 
     69 N          -2.5712  -20.5988  -46.6172 N.am      12 UNK        -0.5000 
     70 CA         -3.6793  -21.5478  -46.5142 C.3       12 UNK         0.1400 
     71 CB         -4.3252  -21.4361  -45.1255 C.3       12 UNK        -0.1800 
     72 C          -3.2595  -22.9989  -46.8122 C.2       12 UNK         0.5000 
     73 O          -3.9709  -23.6937  -47.5386 O.2       12 UNK        -0.5000 
     74 N          -2.1029  -23.4151  -46.2773 N.am      13 UNK        -0.5000 
     75 CA         -1.5093  -24.7329  -46.4997 C.3       13 UNK         0.1400 
     76 CB         -0.3309  -24.9398  -45.5366 C.3       13 UNK        -0.1800 
     77 C          -1.0716  -24.9557  -47.9585 C.2       13 UNK         0.5000 
     78 O          -1.3794  -26.0045  -48.5242 O.2       13 UNK        -0.5000 
     79 N          -0.3939  -23.9641  -48.5534 N.am      14 UNK        -0.5000 
     80 CA          0.0719  -23.9808  -49.9424 C.3       14 UNK         0.1400 
     81 CB          1.0047  -22.7851  -50.1886 C.3       14 UNK        -0.1800 
     82 C          -1.0832  -23.9905  -50.9586 C.2       14 UNK         0.5000 
     83 O          -0.9977  -24.6876  -51.9697 O.2       14 UNK        -0.5000 
     84 N          -2.1568  -23.2498  -50.6533 N.am      15 UNK        -0.5000 
     85 CA         -3.4084  -23.2459  -51.4119 C.3       15 UNK         0.1400 
     86 CB         -4.1908  -21.9700  -51.0630 C.3       15 UNK        -0.1800 
     87 C          -4.2779  -24.4967  -51.1601 C.2       15 UNK         0.5000 
     88 O          -5.2829  -24.6721  -51.8477 O.2       15 UNK        -0.5000 
     89 N          -3.9110  -25.3206  -50.1647 N.am      16 UNK        -0.5000 
     90 CA         -4.6091  -26.5201  -49.6835 C.3       16 UNK         0.1400 
     91 CB         -4.5351  -27.6434  -50.7377 C.3       16 UNK        -0.1800 
     92 C          -6.0522  -26.2322  -49.2137 C.2       16 UNK         0.5000 
     93 O          -6.9310  -27.0844  -49.3544 O.2       16 UNK        -0.5000 
     94 N          -6.2667  -25.0121  -48.6978 N.am      17 UNK        -0.5000 
     95 CA         -7.5440  -24.3997  -48.3164 C.3       17 UNK         0.1400 
     96 CB         -8.1322  -25.1094  -47.0797 C.3       17 UNK        -0.1800 
     97 C          -8.5689  -24.2751  -49.4710 C.2       17 UNK         0.5000 
     98 O          -9.7549  -24.0711  -49.2043 O.2       17 UNK        -0.5000 
     99 N          -8.1113  -24.3892  -50.7249 N.am      18 UNK        -0.5000 
    100 CA        -8.9272  -24.3051  -51.9332 C.3       18 UNK         0.1400 
    101 CB        -8.4915  -25.4256  -52.8930 C.3       18 UNK        -0.1800 
    102 C         -8.7751  -22.9278  -52.6008 C.2       18 UNK         0.5000 
    103 O         -7.8724  -22.1585  -52.2602 O.2       18 UNK        -0.5000 
    104 N         -9.6708  -22.6477  -53.5533 N.am      19 UNK        -0.5000 
    105 CA        -9.6357  -21.4627  -54.4089 C.3       19 UNK         0.1400 
    106 CB       -11.0475  -21.2340  -54.9751 C.3       19 UNK        -0.1800 
    107 C         -8.6099  -21.6113  -55.5513 C.2       19 UNK         0.5000 
    108 O         -8.1662  -22.7243  -55.8478 O.2       19 UNK        -0.5000 
    109 N         -8.3014  -20.4794  -56.1987 N.am      20 UNK        -0.5000 
    110 CA        -7.3801  -20.3249  -57.3301 C.3       20 UNK         0.1400 
    111 CB        -7.8712  -21.1240  -58.5598 C.3       20 UNK        -0.1800 
    112 C         -5.9075  -20.5999  -56.9507 C.2       20 UNK         0.5000 
    113 O         -5.5355  -20.4440  -55.7838 O.2       20 UNK        -0.5000 
    114 N         -5.0822  -20.9376  -57.9541 N.am      21 UNK        -0.5000 
    115 CA        -3.6219  -21.0676  -57.8871 C.3       21 UNK         0.1400 
    116 CB        -3.2205  -22.2992  -57.0419 C.3       21 UNK        -0.1800 
    117 C         -2.9767  -19.7394  -57.4317 C.2       21 UNK         0.5000 
    118 O         -3.3261  -18.6878  -57.9733 O.2       21 UNK        -0.5000 
    119 N         -2.0798  -19.7962  -56.4424 N.am      22 UNK        -0.5000 
    120 CA        -1.5342  -18.6285  -55.7329 C.3       22 UNK         0.1400 
    121 C         -2.5064  -17.9786  -54.7012 C.2       22 UNK         0.5000 
    122 N         -3.6813  -18.5345  -54.4263 N.am      22 UNK        -0.7600 
    123 O         -2.2002  -16.9223  -54.1563 O.2       22 UNK        -0.5000 
    124 C124       -0.1198  -18.8964  -55.1388 C.3       23 UNK        -0.0398 
    125 S125        0.1750  -20.5711  -54.4583 S.3       23 UNK        -0.2404 
    126 C126       -0.6356  -20.5198  -52.8295 C.3       23 UNK        -0.0205 
    127 H127        0.4171  -14.0991  -45.3455 H         1 UNK         0.0600 
    128 H128       -0.1557  -15.4402  -46.3445 H         1 UNK         0.0600 
    129 H129       -0.6206  -13.7936  -46.7440 H         1 UNK         0.0600 
    130 H130        2.0248  -16.1742  -46.8274 H         1 UNK         0.3000 
    131 H131        3.1775  -15.2341  -49.1734 H         1 UNK         0.0600 
    132 H132        4.6305  -16.8963  -47.0534 H         1 UNK         0.0800 
    133 H133        5.0569  -16.7881  -48.7373 H         1 UNK         0.0800 
    134 H134        3.5381  -17.3039  -50.6197 H         1 UNK         0.0800 
    135 H135        3.6590  -19.0486  -50.5853 H         1 UNK         0.0800 
    136 H136        1.9079  -20.0598  -51.8867 H         1 UNK         0.1150 
    137 H137       -2.0991  -18.5441  -51.6913 H         1 UNK         0.1150 
    138 H138        1.0445  -16.5303  -49.6094 H         1 UNK         0.1150 
    139 H139       -1.1603  -15.6033  -49.5738 H         1 UNK         0.0800 
    140 H140       -2.3645  -16.1747  -50.7077 H         1 UNK         0.0800 
    141 H141       -1.4727  -17.6927  -46.5064 H         1 UNK         0.0800 
    142 H142       -0.2810  -17.2572  -47.6796 H         1 UNK         0.0800 
    143 H143       -0.1077  -19.4928  -48.5415 H         1 UNK         0.0600 
    144 H144        0.3773  -19.0112  -45.8350 H         1 UNK         0.3000 
    145 H145        1.7140  -22.2003  -44.8806 H         1 UNK         0.0600 
    146 H146        3.5186  -20.5927  -44.1512 H         1 UNK         0.0600 
    147 H147        3.5903  -20.9918  -45.8618 H         1 UNK         0.0600 
    148 H148        2.9454  -19.4425  -45.3618 H         1 UNK         0.0600 
    149 H149        1.3006  -19.8765  -43.3295 H         1 UNK         0.3000 
    150 H150       -2.0873  -20.5746  -42.3363 H         1 UNK         0.0600 
    151 H151       -0.6218  -21.8369  -40.7891 H         1 UNK         0.0600 
    152 H152       -0.9988  -20.2543  -40.1240 H         1 UNK         0.0600 
    153 H153        0.5837  -20.5596  -40.8336 H         1 UNK         0.0600 
    154 H154       -0.3273  -18.3878  -41.7708 H         1 UNK         0.3000 
    155 H155       -1.2285  -16.3861  -44.5993 H         1 UNK         0.0600 
    156 H156       -1.5654  -14.7554  -42.7416 H         1 UNK         0.0600 
    157 H157       -1.7828  -16.0870  -41.6083 H         1 UNK         0.0600 
    158 H158       -2.9289  -15.8511  -42.9174 H         1 UNK         0.0600 
    159 H159        0.6292  -16.0019  -42.4544 H         1 UNK         0.3000 
    160 H160        3.3829  -17.7325  -43.8738 H         1 UNK         0.0600 
    161 H161        4.4762  -15.4593  -43.4601 H         1 UNK         0.0600 
    162 H162        2.9213  -14.7154  -43.8469 H         1 UNK         0.0600 
    163 H163        3.7597  -15.7154  -45.0355 H         1 UNK         0.0600 
    164 H164        2.8820  -16.0404  -41.5601 H         1 UNK         0.3000 
    165 H165        2.0802  -18.7117  -39.3819 H         1 UNK         0.0600 
    166 H166        4.0763  -17.9257  -38.1291 H         1 UNK         0.0600 
    167 H167        4.5670  -18.9109  -39.4978 H         1 UNK         0.0600 
    168 H168        4.7200  -17.1599  -39.5821 H         1 UNK         0.0600 
    169 H169        2.6618  -15.9148  -39.0029 H         1 UNK         0.3000 
    170 H170       -0.6089  -14.7054  -39.7397 H         1 UNK         0.0600 
    171 H171       -0.7530  -15.5180  -37.3786 H         1 UNK         0.0600 
    172 H172        0.8778  -14.9344  -37.0684 H         1 UNK         0.0600 
    173 H173       -0.4155  -13.7962  -37.4476 H         1 UNK         0.0600 
    174 H174        1.6560  -13.3108  -38.8104 H         1 UNK         0.3000 
    175 H175        2.5033  -11.7043  -40.3654 H         1 UNK         0.0600 
    176 H176        4.4516  -13.9148  -41.2462 H         1 UNK         0.0600 
    177 H177        4.9071  -12.2997  -40.7091 H         1 UNK         0.0600 
    178 H178        4.1637  -13.4200  -39.5817 H         1 UNK         0.0600 
    179 H179        3.7277  -12.1510  -42.8614 H         1 UNK         0.3000 
    180 H180        1.2090  -11.1747  -45.0599 H         1 UNK         0.0600 
    181 H181        2.5313   -9.1565  -45.6384 H         1 UNK         0.0600 
    182 H182        3.3482   -9.2173  -44.0766 H         1 UNK         0.0600 
    183 H183        1.6212   -8.9055  -44.1579 H         1 UNK         0.0600 
    184 H184        2.8166  -12.1992  -46.1046 H         1 UNK         0.3000 
    185 H185        5.5583  -11.9933  -46.8672 H         1 UNK         0.0600 
    186 H186        7.1665  -13.8041  -46.2020 H         1 UNK         0.0600 
    187 H187        7.2557  -12.4390  -45.1030 H         1 UNK         0.0600 
    188 H188        6.4054  -13.9018  -44.6148 H         1 UNK         0.0600 
    189 H189        3.8300  -14.1701  -45.9251 H         1 UNK         0.3000 
    190 H190       -2.3392  -20.0735  -45.7803 H         1 UNK         0.3000 
    191 H191       -4.4250  -21.2624  -47.2591 H         1 UNK         0.0600 
    192 H192       -5.1740  -22.1150  -45.0340 H         1 UNK         0.0600 
    193 H193       -4.6937  -20.4264  -44.9430 H         1 UNK         0.0600 
    194 H194       -3.6199  -21.6817  -44.3312 H         1 UNK         0.0600 
    195 H195       -1.6001  -22.7894  -45.6544 H         1 UNK         0.3000 
    196 H196       -2.2694  -25.4811  -46.2654 H         1 UNK         0.0600 
    197 H197        0.4564  -24.2036  -45.6990 H         1 UNK         0.0600 
    198 H198       -0.6526  -24.8605  -44.4980 H         1 UNK         0.0600 
    199 H199        0.1111  -25.9283  -45.6663 H         1 UNK         0.0600 
    200 H200       -0.1444  -23.1397  -48.0085 H         1 UNK         0.3000 
    201 H201        0.6487  -24.8961  -50.0895 H         1 UNK         0.0600 
    202 H202        0.4991  -21.8373  -49.9988 H         1 UNK         0.0600 
    203 H203        1.3636  -22.7703  -51.2184 H         1 UNK         0.0600 
    204 H204        1.8804  -22.8292  -49.5411 H         1 UNK         0.0600 
    205 H205       -2.1240  -22.6492  -49.8332 H         1 UNK         0.3000 
    206 H206       -3.1720  -23.2191  -52.4776 H         1 UNK         0.0600 
    207 H207       -3.6019  -21.0757  -51.2683 H         1 UNK         0.0600 
    208 H208       -5.1064  -21.8973  -51.6513 H         1 UNK         0.0600 
    209 H209       -4.4737  -21.9496  -50.0097 H         1 UNK         0.0600 
    210 H210       -3.0761  -25.0810  -49.6456 H         1 UNK         0.3000 
    211 H211       -4.0648  -26.8561  -48.8001 H         1 UNK         0.0600 
    212 H212       -4.9259  -28.5807  -50.3402 H         1 UNK         0.0600 
    213 H213       -3.5053  -27.8268  -51.0444 H         1 UNK         0.0600 
    214 H214       -5.1131  -27.3995  -51.6296 H         1 UNK         0.0600 
    215 H215       -5.4474  -24.4262  -48.5558 H         1 UNK         0.3000 
    216 H216       -7.3036  -23.3769  -48.0230 H         1 UNK         0.0600 
    217 H217       -8.9972  -24.5710  -46.6912 H         1 UNK         0.0600 
    218 H218       -8.4564  -26.1241  -47.3122 H         1 UNK         0.0600 
    219 H219       -7.4004  -25.1668  -46.2739 H         1 UNK         0.0600 
    220 H220       -7.1147  -24.4950  -50.8823 H         1 UNK         0.3000 
    221 H221       -9.9810  -24.4536  -51.6887 H         1 UNK         0.0600 
    222 H222       -8.5447  -26.4017  -52.4100 H         1 UNK         0.0600 
    223 H223       -7.4692  -25.2820  -53.2440 H         1 UNK         0.0600 
    224 H224       -9.1344  -25.4637  -53.7729 H         1 UNK         0.0600 
    225 H225      -10.3533  -23.3495  -53.7993 H         1 UNK         0.3000 
    226 H226       -9.3567  -20.5967  -53.8046 H         1 UNK         0.0600 
    227 H227      -11.3684  -22.0656  -55.6039 H         1 UNK         0.0600 
    228 H228      -11.7790  -21.1164  -54.1752 H         1 UNK         0.0600 
    229 H229      -11.0885  -20.3295  -55.5832 H         1 UNK         0.0600 
    230 H230       -8.7023  -19.6169  -55.8582 H         1 UNK         0.3000 
    231 H231       -7.4208  -19.2676  -57.5956 H         1 UNK         0.0600 
    232 H232       -7.7226  -22.1971  -58.4350 H         1 UNK         0.0600 
    233 H233       -7.3474  -20.8213  -59.4669 H         1 UNK         0.0600 
    234 H234       -8.9332  -20.9547  -58.7387 H         1 UNK         0.0600 
    235 H235       -5.4771  -21.0084  -58.8809 H         1 UNK         0.3000 
    236 H236       -3.2774  -21.2396  -58.9078 H         1 UNK         0.0600 
    237 H237       -2.1462  -22.4808  -57.0927 H         1 UNK         0.0600 
    238 H238       -3.4910  -22.1870  -55.9913 H         1 UNK         0.0600 
    239 H239       -3.7115  -23.1994  -57.4116 H         1 UNK         0.0600 
    240 H240       -1.8388  -20.6938  -56.0473 H         1 UNK         0.3000 
    241 H241       -1.3944  -17.8448  -56.4803 H         1 UNK         0.0600 
    242 H242       -4.2904  -18.0770  -53.7681 H         1 UNK         0.3800 
    243 H243       -4.0166  -19.3565  -54.9152 H         1 UNK         0.3800 
    244 H244        0.1602  -18.1449  -54.3986 H         1 UNK         0.0800 
    245 H245        0.6092  -18.7733  -55.9406 H         1 UNK         0.0800 
    246 H246       -1.7141  -20.4507  -52.9790 H         1 UNK         0.0800 
    247 H247       -0.4639  -21.4710  -52.3295 H         1 UNK         0.0800 
@<TRIPOS>BOND
     1    1    2 1    
     2    1  127 1    
     3    1  128 1    
     4    1  129 1    
     5    2    3 2    
     6    2    4 am   BACKBONE|DICT|INTERRES
     7    4    5 1    
     8    4  130 1    
     9    5    6 1    
    10    5   65 1    
    11    5  131 1    
    12    6    7 1    
    13    6  132 1    
    14    6  133 1    
    15    7    8 1    
    16    8    9 1    
    17    8  134 1    
    18    8  135 1    
    19    9   10 ar   
    20    9   14 ar   
    21   10   11 ar   
    22   10  136 1    
    23   11   12 ar   
    24   11  126 1    
    25   12   13 ar   
    26   12  137 1    
    27   13   14 ar   
    28   13   15 1    
    29   14  138 1    
    30   15   16 1    
    31   15  139 1    
    32   15  140 1    
    33   16   17 1    
    34   17   18 1    
    35   17  141 1    
    36   17  142 1    
    37   18   19 1    
    38   18   67 1    
    39   18  143 1    
    40   19   20 am   BACKBONE|DICT|INTERRES
    41   19  144 1    
    42   20   21 2    
    43   20   22 1    
    44   22   23 1    
    45   22   24 1    
    46   22  145 1    
    47   23  146 1    
    48   23  147 1    
    49   23  148 1    
    50   24   25 am   BACKBONE|DICT|INTERRES
    51   24  149 1    
    52   25   26 2    
    53   25   27 1    
    54   27   28 1    
    55   27   29 1    
    56   27  150 1    
    57   28  151 1    
    58   28  152 1    
    59   28  153 1    
    60   29   30 am   BACKBONE|DICT|INTERRES
    61   29  154 1    
    62   30   31 2    
    63   30   32 1    
    64   32   33 1    
    65   32   34 1    
    66   32  155 1    
    67   33  156 1    
    68   33  157 1    
    69   33  158 1    
    70   34   35 am   BACKBONE|DICT|INTERRES
    71   34  159 1    
    72   35   36 2    
    73   35   37 1    
    74   37   38 1    
    75   37   39 1    
    76   37  160 1    
    77   38  161 1    
    78   38  162 1    
    79   38  163 1    
    80   39   40 am   BACKBONE|DICT|INTERRES
    81   39  164 1    
    82   40   41 2    
    83   40   42 1    
    84   42   43 1    
    85   42   44 1    
    86   42  165 1    
    87   43  166 1    
    88   43  167 1    
    89   43  168 1    
    90   44   45 am   BACKBONE|DICT|INTERRES
    91   44  169 1    
    92   45   46 2    
    93   45   47 1    
    94   47   48 1    
    95   47   49 1    
    96   47  170 1    
    97   48  171 1    
    98   48  172 1    
    99   48  173 1    
   100   49   50 am   BACKBONE|DICT|INTERRES
   101   49  174 1    
   102   50   51 2    
   103   50   52 1    
   104   52   53 1    
   105   52   54 1    
   106   52  175 1    
   107   53  176 1    
   108   53  177 1    
   109   53  178 1    
   110   54   55 am   BACKBONE|DICT|INTERRES
   111   54  179 1    
   112   55   56 2    
   113   55   57 1    
   114   57   58 1    
   115   57   59 1    
   116   57  180 1    
   117   58  181 1    
   118   58  182 1    
   119   58  183 1    
   120   59   60 am   BACKBONE|DICT|INTERRES
   121   59  184 1    
   122   60   61 2    
   123   60   62 1    
   124   62   63 1    
   125   62   64 1    
   126   62  185 1    
   127   63  186 1    
   128   63  187 1    
   129   63  188 1    
   130   64   65 am   BACKBONE|DICT|INTERRES
   131   64  189 1    
   132   65   66 2    
   133   67   68 2    
   134   67   69 am   BACKBONE|DICT|INTERRES
   135   69   70 1    
   136   69  190 1    
   137   70   71 1    
   138   70   72 1    
   139   70  191 1    
   140   71  192 1    
   141   71  193 1    
   142   71  194 1    
   143   72   73 2    
   144   72   74 am   BACKBONE|DICT|INTERRES
   145   74   75 1    
   146   74  195 1    
   147   75   76 1    
   148   75   77 1    
   149   75  196 1    
   150   76  197 1    
   151   76  198 1    
   152   76  199 1    
   153   77   78 2    
   154   77   79 am   BACKBONE|DICT|INTERRES
   155   79   80 1    
   156   79  200 1    
   157   80   81 1    
   158   80   82 1    
   159   80  201 1    
   160   81  202 1    
   161   81  203 1    
   162   81  204 1    
   163   82   83 2    
   164   82   84 am   BACKBONE|DICT|INTERRES
   165   84   85 1    
   166   84  205 1    
   167   85   86 1    
   168   85   87 1    
   169   85  206 1    
   170   86  207 1    
   171   86  208 1    
   172   86  209 1    
   173   87   88 2    
   174   87   89 am   BACKBONE|DICT|INTERRES
   175   89   90 1    
   176   89  210 1    
   177   90   91 1    
   178   90   92 1    
   179   90  211 1    
   180   91  212 1    
   181   91  213 1    
   182   91  214 1    
   183   92   93 2    
   184   92   94 am   BACKBONE|DICT|INTERRES
   185   94   95 1    
   186   94  215 1    
   187   95   96 1    
   188   95   97 1    
   189   95  216 1    
   190   96  217 1    
   191   96  218 1    
   192   96  219 1    
   193   97   98 2    
   194   97   99 am   BACKBONE|DICT|INTERRES
   195   99  100 1    
   196   99  220 1    
   197  100  101 1    
   198  100  102 1    
   199  100  221 1    
   200  101  222 1    
   201  101  223 1    
   202  101  224 1    
   203  102  103 2    
   204  102  104 am   BACKBONE|DICT|INTERRES
   205  104  105 1    
   206  104  225 1    
   207  105  106 1    
   208  105  107 1    
   209  105  226 1    
   210  106  227 1    
   211  106  228 1    
   212  106  229 1    
   213  107  108 2    
   214  107  109 am   BACKBONE|DICT|INTERRES
   215  109  110 1    
   216  109  230 1    
   217  110  111 1    
   218  110  112 1    
   219  110  231 1    
   220  111  232 1    
   221  111  233 1    
   222  111  234 1    
   223  112  113 2    
   224  112  114 am   BACKBONE|DICT|INTERRES
   225  114  115 1    
   226  114  235 1    
   227  115  116 1    
   228  115  117 1    
   229  115  236 1    
   230  116  237 1    
   231  116  238 1    
   232  116  239 1    
   233  117  118 2    
   234  117  119 am   BACKBONE|DICT|INTERRES
   235  119  120 1    
   236  119  240 1    
   237  120  121 1    
   238  120  124 1    
   239  120  241 1    
   240  121  122 am   BACKBONE|DICT|INTERRES
   241  121  123 2    
   242  122  242 1    
   243  122  243 1    
   244  124  125 1    
   245  124  244 1    
   246  124  245 1    
   247  125  126 1    
   248  126  246 1    
   249  126  247 1    
@<TRIPOS>SUBSTRUCTURE
     1 UNK         1 GROUP             0       ****    0 ROOT    
