@<TRIPOS>MOLECULE
3R540
247   249    1
SMALL
USER_CHARGES


@<TRIPOS>ATOM
      1 CA          2.6457  -11.2194  -45.0498 C.3       0 UNK        -0.1800 
      2 C           2.6618  -12.3692  -46.0468 C.2       0 UNK         0.5000 
      3 O           3.1785  -13.4415  -45.7393 O.2       0 UNK        -0.5000 
      4 N           2.0946  -12.1537  -47.2409 N.am      1 UNK        -0.5000 
      5 CA          2.0221  -13.1468  -48.3217 C.3       1 UNK         0.1400 
      6 C6          1.6656  -12.4732  -49.6728 C.3       23 UNK        -0.0398 
      7 S7          2.2263  -13.4379  -51.1183 S.3       23 UNK        -0.2404 
      8 C8          0.6495  -14.0506  -51.7928 C.3       23 UNK        -0.0205 
      9 C9          0.8081  -15.4530  -52.3576 C.ar      23 UNK        -0.0193 
     10 C10         1.3260  -15.6498  -53.6403 C.ar      23 UNK        -0.1150 
     11 C11         1.4844  -16.9429  -54.1466 C.ar      23 UNK        -0.0193 
     12 C12         1.1305  -18.0414  -53.3575 C.ar      23 UNK        -0.1150 
     13 C13         0.5928  -17.8591  -52.0806 C.ar      23 UNK        -0.0193 
     14 C14         0.4327  -16.5591  -51.5912 C.ar      23 UNK        -0.1150 
     15 C15         0.1528  -19.0704  -51.2662 C.3       23 UNK        -0.0205 
     16 S16         0.9688  -19.1903  -49.6406 S.3       23 UNK        -0.2404 
     17 C17        -0.2965  -18.4578  -48.5492 C.3       23 UNK        -0.0398 
     18 CA         -1.3139  -19.5086  -48.0581 C.3       11 UNK         0.1400 
     19 N          -0.7049  -20.5514  -47.2358 N.am      11 UNK        -0.5000 
     20 C          -1.2682  -21.7415  -46.9931 C.2       10 UNK         0.5000 
     21 O          -2.3418  -22.1007  -47.4759 O.2       10 UNK        -0.5000 
     22 CA         -0.5190  -22.6642  -46.0157 C.3       10 UNK         0.1400 
     23 CB          0.5515  -23.4782  -46.7572 C.3       10 UNK        -0.1800 
     24 N           0.1023  -21.9201  -44.9162 N.am      10 UNK        -0.5000 
     25 C          -0.5909  -21.2699  -43.9710 C.2       9 UNK         0.5000 
     26 O          -1.8187  -21.2728  -43.9056 O.2       9 UNK        -0.5000 
     27 CA          0.2123  -20.4391  -42.9562 C.3       9 UNK         0.1400 
     28 CB          0.6263  -21.2997  -41.7538 C.3       9 UNK        -0.1800 
     29 N           1.3990  -19.7944  -43.5212 N.am      9 UNK        -0.5000 
     30 C           1.3950  -18.8572  -44.4802 C.2       8 UNK         0.5000 
     31 O           0.3740  -18.4896  -45.0648 O.2       8 UNK        -0.5000 
     32 CA          2.7583  -18.2200  -44.8099 C.3       8 UNK         0.1400 
     33 CB          2.6319  -16.9529  -45.6719 C.3       8 UNK        -0.1800 
     34 N           3.4609  -17.8832  -43.5715 N.am      8 UNK        -0.5000 
     35 C           4.4466  -18.6034  -43.0193 C.2       7 UNK         0.5000 
     36 O           4.8882  -19.6355  -43.5260 O.2       7 UNK        -0.5000 
     37 CA          4.9880  -18.1402  -41.6501 C.3       7 UNK         0.1400 
     38 CB          6.4946  -18.4245  -41.4738 C.3       7 UNK        -0.1800 
     39 N           4.6591  -16.7508  -41.3152 N.am      7 UNK        -0.5000 
     40 C           5.1253  -15.6274  -41.8849 C.2       6 UNK         0.5000 
     41 O           5.9549  -15.6175  -42.7947 O.2       6 UNK        -0.5000 
     42 CA          4.5670  -14.2868  -41.3588 C.3       6 UNK         0.1400 
     43 CB          4.0791  -13.3958  -42.5116 C.3       6 UNK        -0.1800 
     44 N           3.4546  -14.4823  -40.4282 N.am      6 UNK        -0.5000 
     45 C           3.5519  -14.5093  -39.0920 C.2       5 UNK         0.5000 
     46 O           4.5967  -14.2955  -38.4771 O.2       5 UNK        -0.5000 
     47 CA          2.2697  -14.8635  -38.3092 C.3       5 UNK         0.1400 
     48 CB          1.5798  -13.5864  -37.8060 C.3       5 UNK        -0.1800 
     49 N           1.3066  -15.6458  -39.0904 N.am      5 UNK        -0.5000 
     50 C           1.5067  -16.8946  -39.5367 C.2       4 UNK         0.5000 
     51 O           2.5189  -17.5511  -39.2956 O.2       4 UNK        -0.5000 
     52 CA          0.4314  -17.4768  -40.4731 C.3       4 UNK         0.1400 
     53 CB         -0.6095  -18.2823  -39.6829 C.3       4 UNK        -0.1800 
     54 N          -0.2474  -16.4520  -41.2720 N.am      4 UNK        -0.5000 
     55 C           0.3500  -15.7267  -42.2258 C.2       3 UNK         0.5000 
     56 O           1.5367  -15.8541  -42.5370 O.2       3 UNK        -0.5000 
     57 CA         -0.5011  -14.6539  -42.9125 C.3       3 UNK         0.1400 
     58 CB         -0.0693  -13.2504  -42.4595 C.3       3 UNK        -0.1800 
     59 N          -0.3258  -14.7780  -44.3547 N.am      3 UNK        -0.5000 
     60 C          -1.3220  -14.7790  -45.2473 C.2       2 UNK         0.5000 
     61 O          -2.4999  -14.5619  -44.9600 O.2       2 UNK        -0.5000 
     62 CA         -0.9199  -15.0533  -46.7025 C.3       2 UNK         0.1400 
     63 CB         -2.1051  -15.0452  -47.6880 C.3       2 UNK        -0.1800 
     64 N           0.0773  -14.0759  -47.1241 N.am      2 UNK        -0.5000 
     65 C           1.0678  -14.3193  -47.9908 C.2       1 UNK         0.5000 
     66 O           1.2499  -15.4176  -48.5126 O.2       1 UNK        -0.5000 
     67 C          -2.4997  -18.8528  -47.3279 C.2       11 UNK         0.5000 
     68 O          -3.5451  -18.6495  -47.9478 O.2       11 UNK        -0.5000 
     69 N          -2.3314  -18.5859  -46.0221 N.am      12 UNK        -0.5000 
     70 CA         -3.3682  -18.0767  -45.1190 C.3       12 UNK         0.1400 
     71 CB         -2.7713  -17.8523  -43.7206 C.3       12 UNK        -0.1800 
     72 C          -4.5923  -19.0068  -45.0370 C.2       12 UNK         0.5000 
     73 O          -5.7260  -18.5257  -45.0343 O.2       12 UNK        -0.5000 
     74 N          -4.3452  -20.3235  -45.0428 N.am      13 UNK        -0.5000 
     75 CA         -5.3388  -21.3924  -45.1404 C.3       13 UNK         0.1400 
     76 CB         -4.7102  -22.7000  -44.6262 C.3       13 UNK        -0.1800 
     77 C          -5.9159  -21.5362  -46.5671 C.2       13 UNK         0.5000 
     78 O          -5.9040  -22.6315  -47.1298 O.2       13 UNK        -0.5000 
     79 N          -6.4198  -20.4242  -47.1199 N.am      14 UNK        -0.5000 
     80 CA         -7.1372  -20.2928  -48.3911 C.3       14 UNK         0.1400 
     81 CB         -8.5493  -20.9013  -48.2558 C.3       14 UNK        -0.1800 
     82 C          -6.3684  -20.8503  -49.6071 C.2       14 UNK         0.5000 
     83 O          -6.9475  -21.5900  -50.4039 O.2       14 UNK        -0.5000 
     84 N          -5.0776  -20.5003  -49.7220 N.am      15 UNK        -0.5000 
     85 CA         -4.1605  -20.9198  -50.7914 C.3       15 UNK         0.1400 
     86 CB         -4.5339  -20.2384  -52.1240 C.3       15 UNK        -0.1800 
     87 C          -4.0527  -22.4553  -50.9081 C.2       15 UNK         0.5000 
     88 O          -4.2657  -23.0128  -51.9889 O.2       15 UNK        -0.5000 
     89 N          -3.7409  -23.0906  -49.7700 N.am      16 UNK        -0.5000 
     90 CA         -3.6649  -24.5325  -49.5343 C.3       16 UNK         0.1400 
     91 CB         -2.5347  -25.1766  -50.3628 C.3       16 UNK        -0.1800 
     92 C          -5.0309  -25.2247  -49.7045 C.2       16 UNK         0.5000 
     93 O          -5.1500  -26.1862  -50.4632 O.2       16 UNK        -0.5000 
     94 N          -6.0379  -24.7158  -48.9811 N.am      17 UNK        -0.5000 
     95 CA         -7.4118  -25.2194  -48.8898 C.3       17 UNK         0.1400 
     96 CB         -7.4415  -26.5763  -48.1559 C.3       17 UNK        -0.1800 
     97 C          -8.1341  -25.2485  -50.2516 C.2       17 UNK         0.5000 
     98 O          -8.7132  -26.2688  -50.6295 O.2       17 UNK        -0.5000 
     99 N          -8.0704  -24.1154  -50.9638 N.am      18 UNK        -0.5000 
    100 CA        -8.6610  -23.8498  -52.2784 C.3       18 UNK         0.1400 
    101 CB       -10.1987  -23.9756  -52.2401 C.3       18 UNK        -0.1800 
    102 C         -8.0197  -24.6472  -53.4333 C.2       18 UNK         0.5000 
    103 O         -8.6191  -24.7482  -54.5053 O.2       18 UNK        -0.5000 
    104 N         -6.7977  -25.1611  -53.2274 N.am      19 UNK        -0.5000 
    105 CA        -5.9874  -25.7992  -54.2694 C.3       19 UNK         0.1400 
    106 CB        -4.8797  -26.6365  -53.6158 C.3       19 UNK        -0.1800 
    107 C         -5.3756  -24.7848  -55.2558 C.2       19 UNK         0.5000 
    108 O         -4.9662  -25.1862  -56.3457 O.2       19 UNK        -0.5000 
    109 N         -5.3290  -23.5046  -54.8535 N.am      20 UNK        -0.5000 
    110 CA        -4.7637  -22.3594  -55.5679 C.3       20 UNK         0.1400 
    111 CB        -5.4917  -22.1059  -56.9049 C.3       20 UNK        -0.1800 
    112 C         -3.2395  -22.5041  -55.7133 C.2       20 UNK         0.5000 
    113 O         -2.7185  -22.5740  -56.8276 O.2       20 UNK        -0.5000 
    114 N         -2.5604  -22.5549  -54.5583 N.am      21 UNK        -0.5000 
    115 CA        -1.1166  -22.7609  -54.3849 C.3       21 UNK         0.1400 
    116 CB        -0.7868  -22.6240  -52.8905 C.3       21 UNK        -0.1800 
    117 C         -0.1824  -21.8570  -55.2217 C.2       21 UNK         0.5000 
    118 O          0.9439  -22.2666  -55.5057 O.2       21 UNK        -0.5000 
    119 N         -0.6530  -20.6639  -55.6099 N.am      22 UNK        -0.5000 
    120 CA         0.0382  -19.7597  -56.5460 C.3       22 UNK         0.1400 
    121 C          0.0083  -20.2216  -58.0369 C.2       22 UNK         0.5000 
    122 N         -0.8169  -21.1859  -58.4265 N.am      22 UNK        -0.7600 
    123 O          0.7642  -19.7107  -58.8583 O.2       22 UNK        -0.5000 
    124 C124       -0.4639  -18.2996  -56.3760 C.3       23 UNK        -0.0398 
    125 S125        0.7549  -17.0138  -56.8356 S.3       23 UNK        -0.2404 
    126 C126        2.0380  -17.1577  -55.5459 C.3       23 UNK        -0.0205 
    127 H127        2.2348  -10.3090  -45.4867 H         1 UNK         0.0600 
    128 H128        3.6586  -11.0052  -44.7087 H         1 UNK         0.0600 
    129 H129        2.0424  -11.4829  -44.1820 H         1 UNK         0.0600 
    130 H130        1.6886  -11.2501  -47.4397 H         1 UNK         0.3000 
    131 H131        3.0225  -13.5758  -48.4155 H         1 UNK         0.0600 
    132 H132        0.5999  -12.2479  -49.7400 H         1 UNK         0.0800 
    133 H133        2.1707  -11.5089  -49.7449 H         1 UNK         0.0800 
    134 H134        0.2982  -13.3692  -52.5689 H         1 UNK         0.0800 
    135 H135       -0.1179  -14.0557  -51.0173 H         1 UNK         0.0800 
    136 H136        1.6078  -14.7973  -54.2425 H         1 UNK         0.1150 
    137 H137        1.2532  -19.0408  -53.7509 H         1 UNK         0.1150 
    138 H138        0.0255  -16.3971  -50.6067 H         1 UNK         0.1150 
    139 H139       -0.9316  -19.0547  -51.1521 H         1 UNK         0.0800 
    140 H140        0.3862  -19.9857  -51.8105 H         1 UNK         0.0800 
    141 H141       -0.8080  -17.6510  -49.0724 H         1 UNK         0.0800 
    142 H142        0.2166  -17.9967  -47.7066 H         1 UNK         0.0800 
    143 H143       -1.7228  -19.9950  -48.9429 H         1 UNK         0.0600 
    144 H144        0.1626  -20.3164  -46.7772 H         1 UNK         0.3000 
    145 H145       -1.2460  -23.3600  -45.5914 H         1 UNK         0.0600 
    146 H146        1.3204  -22.8365  -47.1895 H         1 UNK         0.0600 
    147 H147        1.0412  -24.1867  -46.0888 H         1 UNK         0.0600 
    148 H148        0.1084  -24.0536  -47.5714 H         1 UNK         0.0600 
    149 H149        1.1104  -21.8724  -44.9004 H         1 UNK         0.3000 
    150 H150       -0.4458  -19.6480  -42.5940 H         1 UNK         0.0600 
    151 H151       -0.2446  -21.7624  -41.2875 H         1 UNK         0.0600 
    152 H152        1.1220  -20.7015  -40.9892 H         1 UNK         0.0600 
    153 H153        1.3066  -22.1002  -42.0467 H         1 UNK         0.0600 
    154 H154        2.2874  -20.0498  -43.1151 H         1 UNK         0.3000 
    155 H155        3.3249  -18.9543  -45.3854 H         1 UNK         0.0600 
    156 H156        2.1788  -17.1799  -46.6365 H         1 UNK         0.0600 
    157 H157        3.6091  -16.5130  -45.8720 H         1 UNK         0.0600 
    158 H158        2.0216  -16.1910  -45.1895 H         1 UNK         0.0600 
    159 H159        3.0989  -17.0770  -43.0724 H         1 UNK         0.3000 
    160 H160        4.4619  -18.7471  -40.9122 H         1 UNK         0.0600 
    161 H161        6.8489  -18.0864  -40.5001 H         1 UNK         0.0600 
    162 H162        7.0948  -17.9337  -42.2401 H         1 UNK         0.0600 
    163 H163        6.7004  -19.4936  -41.5379 H         1 UNK         0.0600 
    164 H164        3.9776  -16.6520  -40.5726 H         1 UNK         0.3000 
    165 H165        5.3874  -13.7700  -40.8571 H         1 UNK         0.0600 
    166 H166        3.2926  -13.8845  -43.0864 H         1 UNK         0.0600 
    167 H167        3.6863  -12.4486  -42.1421 H         1 UNK         0.0600 
    168 H168        4.8900  -13.1625  -43.2026 H         1 UNK         0.0600 
    169 H169        2.5661  -14.7073  -40.8551 H         1 UNK         0.3000 
    170 H170        2.5666  -15.4591  -37.4434 H         1 UNK         0.0600 
    171 H171        1.2435  -12.9584  -38.6320 H         1 UNK         0.0600 
    172 H172        0.7134  -13.8228  -37.1880 H         1 UNK         0.0600 
    173 H173        2.2591  -12.9898  -37.1955 H         1 UNK         0.0600 
    174 H174        0.4436  -15.1836  -39.3354 H         1 UNK         0.3000 
    175 H175        0.9399  -18.1551  -41.1600 H         1 UNK         0.0600 
    176 H176       -1.1610  -17.6524  -38.9840 H         1 UNK         0.0600 
    177 H177       -1.3307  -18.7567  -40.3488 H         1 UNK         0.0600 
    178 H178       -0.1325  -19.0752  -39.1052 H         1 UNK         0.0600 
    179 H179       -1.2214  -16.2885  -41.0608 H         1 UNK         0.3000 
    180 H180       -1.5467  -14.8076  -42.6371 H         1 UNK         0.0600 
    181 H181        0.9797  -13.0589  -42.6856 H         1 UNK         0.0600 
    182 H182       -0.2011  -13.1277  -41.3838 H         1 UNK         0.0600 
    183 H183       -0.6628  -12.4791  -42.9506 H         1 UNK         0.0600 
    184 H184        0.6171  -14.9864  -44.6558 H         1 UNK         0.3000 
    185 H185       -0.4794  -16.0511  -46.7023 H         1 UNK         0.0600 
    186 H186       -1.7830  -15.3084  -48.6955 H         1 UNK         0.0600 
    187 H187       -2.8684  -15.7658  -47.3946 H         1 UNK         0.0600 
    188 H188       -2.5791  -14.0643  -47.7350 H         1 UNK         0.0600 
    189 H189        0.0115  -13.1598  -46.7025 H         1 UNK         0.3000 
    190 H190       -1.4159  -18.7483  -45.6104 H         1 UNK         0.3000 
    191 H191       -3.7011  -17.1141  -45.5110 H         1 UNK         0.0600 
    192 H192       -2.5763  -18.7928  -43.2067 H         1 UNK         0.0600 
    193 H193       -1.8336  -17.3018  -43.7696 H         1 UNK         0.0600 
    194 H194       -3.4566  -17.2777  -43.0968 H         1 UNK         0.0600 
    195 H195       -3.3780  -20.6263  -44.9899 H         1 UNK         0.3000 
    196 H196       -6.1747  -21.1466  -44.4825 H         1 UNK         0.0600 
    197 H197       -4.3522  -22.5895  -43.6025 H         1 UNK         0.0600 
    198 H198       -3.8656  -23.0079  -45.2438 H         1 UNK         0.0600 
    199 H199       -5.4359  -23.5142  -44.6294 H         1 UNK         0.0600 
    200 H200       -6.3406  -19.5737  -46.5704 H         1 UNK         0.3000 
    201 H201       -7.2530  -19.2232  -48.5705 H         1 UNK         0.0600 
    202 H202       -9.1422  -20.7240  -49.1540 H         1 UNK         0.0600 
    203 H203       -9.0908  -20.4585  -47.4199 H         1 UNK         0.0600 
    204 H204       -8.5108  -21.9793  -48.0961 H         1 UNK         0.0600 
    205 H205       -4.6793  -19.8957  -49.0088 H         1 UNK         0.3000 
    206 H206       -3.1696  -20.5631  -50.5176 H         1 UNK         0.0600 
    207 H207       -5.4948  -20.5866  -52.5044 H         1 UNK         0.0600 
    208 H208       -3.7829  -20.4393  -52.8880 H         1 UNK         0.0600 
    209 H209       -4.5928  -19.1563  -52.0083 H         1 UNK         0.0600 
    210 H210       -3.5563  -22.5302  -48.9422 H         1 UNK         0.3000 
    211 H211       -3.3983  -24.6495  -48.4828 H         1 UNK         0.0600 
    212 H212       -1.5788  -24.6922  -50.1642 H         1 UNK         0.0600 
    213 H213       -2.4215  -26.2317  -50.1116 H         1 UNK         0.0600 
    214 H214       -2.7272  -25.1170  -51.4332 H         1 UNK         0.0600 
    215 H215       -5.8471  -23.9068  -48.3898 H         1 UNK         0.3000 
    216 H216       -7.9560  -24.5033  -48.2725 H         1 UNK         0.0600 
    217 H217       -8.4670  -26.9058  -47.9857 H         1 UNK         0.0600 
    218 H218       -6.9371  -27.3573  -48.7257 H         1 UNK         0.0600 
    219 H219       -6.9580  -26.5066  -47.1814 H         1 UNK         0.0600 
    220 H220       -7.5532  -23.3264  -50.5787 H         1 UNK         0.3000 
    221 H221       -8.4320  -22.8043  -52.4891 H         1 UNK         0.0600 
    222 H222      -10.5200  -25.0105  -52.1216 H         1 UNK         0.0600 
    223 H223      -10.6214  -23.3952  -51.4200 H         1 UNK         0.0600 
    224 H224      -10.6447  -23.6016  -53.1624 H         1 UNK         0.0600 
    225 H225       -6.3714  -25.0641  -52.3149 H         1 UNK         0.3000 
    226 H226       -6.6269  -26.4734  -54.8429 H         1 UNK         0.0600 
    227 H227       -5.2958  -27.3883  -52.9449 H         1 UNK         0.0600 
    228 H228       -4.2903  -27.1628  -54.3675 H         1 UNK         0.0600 
    229 H229       -4.1957  -26.0117  -53.0418 H         1 UNK         0.0600 
    230 H230       -5.6162  -23.3208  -53.9010 H         1 UNK         0.3000 
    231 H231       -4.9375  -21.4865  -54.9375 H         1 UNK         0.0600 
    232 H232       -5.1359  -21.1857  -57.3696 H         1 UNK         0.0600 
    233 H233       -6.5659  -21.9999  -56.7537 H         1 UNK         0.0600 
    234 H234       -5.3324  -22.9116  -57.6217 H         1 UNK         0.0600 
    235 H235       -3.1059  -22.5686  -53.7037 H         1 UNK         0.3000 
    236 H236       -0.9064  -23.7889  -54.6860 H         1 UNK         0.0600 
    237 H237       -1.2766  -23.4038  -52.3101 H         1 UNK         0.0600 
    238 H238        0.2851  -22.7122  -52.7073 H         1 UNK         0.0600 
    239 H239       -1.1141  -21.6621  -52.4965 H         1 UNK         0.0600 
    240 H240       -1.5945  -20.4125  -55.3503 H         1 UNK         0.3000 
    241 H241        1.0904  -19.7827  -56.2619 H         1 UNK         0.0600 
    242 H242       -0.8127  -21.4748  -59.3916 H         1 UNK         0.3800 
    243 H243       -1.4513  -21.6435  -57.7746 H         1 UNK         0.3800 
    244 H244       -1.3706  -18.1384  -56.9616 H         1 UNK         0.0800 
    245 H245       -0.7627  -18.1139  -55.3444 H         1 UNK         0.0800 
    246 H246        2.8136  -16.4168  -55.7451 H         1 UNK         0.0800 
    247 H247        2.5323  -18.1270  -55.6174 H         1 UNK         0.0800 
@<TRIPOS>BOND
     1    1    2 1    
     2    1  127 1    
     3    1  128 1    
     4    1  129 1    
     5    2    3 2    
     6    2    4 am   BACKBONE|DICT|INTERRES
     7    4    5 1    
     8    4  130 1    
     9    5    6 1    
    10    5   65 1    
    11    5  131 1    
    12    6    7 1    
    13    6  132 1    
    14    6  133 1    
    15    7    8 1    
    16    8    9 1    
    17    8  134 1    
    18    8  135 1    
    19    9   10 ar   
    20    9   14 ar   
    21   10   11 ar   
    22   10  136 1    
    23   11   12 ar   
    24   11  126 1    
    25   12   13 ar   
    26   12  137 1    
    27   13   14 ar   
    28   13   15 1    
    29   14  138 1    
    30   15   16 1    
    31   15  139 1    
    32   15  140 1    
    33   16   17 1    
    34   17   18 1    
    35   17  141 1    
    36   17  142 1    
    37   18   19 1    
    38   18   67 1    
    39   18  143 1    
    40   19   20 am   BACKBONE|DICT|INTERRES
    41   19  144 1    
    42   20   21 2    
    43   20   22 1    
    44   22   23 1    
    45   22   24 1    
    46   22  145 1    
    47   23  146 1    
    48   23  147 1    
    49   23  148 1    
    50   24   25 am   BACKBONE|DICT|INTERRES
    51   24  149 1    
    52   25   26 2    
    53   25   27 1    
    54   27   28 1    
    55   27   29 1    
    56   27  150 1    
    57   28  151 1    
    58   28  152 1    
    59   28  153 1    
    60   29   30 am   BACKBONE|DICT|INTERRES
    61   29  154 1    
    62   30   31 2    
    63   30   32 1    
    64   32   33 1    
    65   32   34 1    
    66   32  155 1    
    67   33  156 1    
    68   33  157 1    
    69   33  158 1    
    70   34   35 am   BACKBONE|DICT|INTERRES
    71   34  159 1    
    72   35   36 2    
    73   35   37 1    
    74   37   38 1    
    75   37   39 1    
    76   37  160 1    
    77   38  161 1    
    78   38  162 1    
    79   38  163 1    
    80   39   40 am   BACKBONE|DICT|INTERRES
    81   39  164 1    
    82   40   41 2    
    83   40   42 1    
    84   42   43 1    
    85   42   44 1    
    86   42  165 1    
    87   43  166 1    
    88   43  167 1    
    89   43  168 1    
    90   44   45 am   BACKBONE|DICT|INTERRES
    91   44  169 1    
    92   45   46 2    
    93   45   47 1    
    94   47   48 1    
    95   47   49 1    
    96   47  170 1    
    97   48  171 1    
    98   48  172 1    
    99   48  173 1    
   100   49   50 am   BACKBONE|DICT|INTERRES
   101   49  174 1    
   102   50   51 2    
   103   50   52 1    
   104   52   53 1    
   105   52   54 1    
   106   52  175 1    
   107   53  176 1    
   108   53  177 1    
   109   53  178 1    
   110   54   55 am   BACKBONE|DICT|INTERRES
   111   54  179 1    
   112   55   56 2    
   113   55   57 1    
   114   57   58 1    
   115   57   59 1    
   116   57  180 1    
   117   58  181 1    
   118   58  182 1    
   119   58  183 1    
   120   59   60 am   BACKBONE|DICT|INTERRES
   121   59  184 1    
   122   60   61 2    
   123   60   62 1    
   124   62   63 1    
   125   62   64 1    
   126   62  185 1    
   127   63  186 1    
   128   63  187 1    
   129   63  188 1    
   130   64   65 am   BACKBONE|DICT|INTERRES
   131   64  189 1    
   132   65   66 2    
   133   67   68 2    
   134   67   69 am   BACKBONE|DICT|INTERRES
   135   69   70 1    
   136   69  190 1    
   137   70   71 1    
   138   70   72 1    
   139   70  191 1    
   140   71  192 1    
   141   71  193 1    
   142   71  194 1    
   143   72   73 2    
   144   72   74 am   BACKBONE|DICT|INTERRES
   145   74   75 1    
   146   74  195 1    
   147   75   76 1    
   148   75   77 1    
   149   75  196 1    
   150   76  197 1    
   151   76  198 1    
   152   76  199 1    
   153   77   78 2    
   154   77   79 am   BACKBONE|DICT|INTERRES
   155   79   80 1    
   156   79  200 1    
   157   80   81 1    
   158   80   82 1    
   159   80  201 1    
   160   81  202 1    
   161   81  203 1    
   162   81  204 1    
   163   82   83 2    
   164   82   84 am   BACKBONE|DICT|INTERRES
   165   84   85 1    
   166   84  205 1    
   167   85   86 1    
   168   85   87 1    
   169   85  206 1    
   170   86  207 1    
   171   86  208 1    
   172   86  209 1    
   173   87   88 2    
   174   87   89 am   BACKBONE|DICT|INTERRES
   175   89   90 1    
   176   89  210 1    
   177   90   91 1    
   178   90   92 1    
   179   90  211 1    
   180   91  212 1    
   181   91  213 1    
   182   91  214 1    
   183   92   93 2    
   184   92   94 am   BACKBONE|DICT|INTERRES
   185   94   95 1    
   186   94  215 1    
   187   95   96 1    
   188   95   97 1    
   189   95  216 1    
   190   96  217 1    
   191   96  218 1    
   192   96  219 1    
   193   97   98 2    
   194   97   99 am   BACKBONE|DICT|INTERRES
   195   99  100 1    
   196   99  220 1    
   197  100  101 1    
   198  100  102 1    
   199  100  221 1    
   200  101  222 1    
   201  101  223 1    
   202  101  224 1    
   203  102  103 2    
   204  102  104 am   BACKBONE|DICT|INTERRES
   205  104  105 1    
   206  104  225 1    
   207  105  106 1    
   208  105  107 1    
   209  105  226 1    
   210  106  227 1    
   211  106  228 1    
   212  106  229 1    
   213  107  108 2    
   214  107  109 am   BACKBONE|DICT|INTERRES
   215  109  110 1    
   216  109  230 1    
   217  110  111 1    
   218  110  112 1    
   219  110  231 1    
   220  111  232 1    
   221  111  233 1    
   222  111  234 1    
   223  112  113 2    
   224  112  114 am   BACKBONE|DICT|INTERRES
   225  114  115 1    
   226  114  235 1    
   227  115  116 1    
   228  115  117 1    
   229  115  236 1    
   230  116  237 1    
   231  116  238 1    
   232  116  239 1    
   233  117  118 2    
   234  117  119 am   BACKBONE|DICT|INTERRES
   235  119  120 1    
   236  119  240 1    
   237  120  121 1    
   238  120  124 1    
   239  120  241 1    
   240  121  122 am   BACKBONE|DICT|INTERRES
   241  121  123 2    
   242  122  242 1    
   243  122  243 1    
   244  124  125 1    
   245  124  244 1    
   246  124  245 1    
   247  125  126 1    
   248  126  246 1    
   249  126  247 1    
@<TRIPOS>SUBSTRUCTURE
     1 UNK         1 GROUP             0       ****    0 ROOT    
