@<TRIPOS>MOLECULE
3R540
247   249    1
SMALL
USER_CHARGES


@<TRIPOS>ATOM
      1 CA          2.8631  -19.3919  -42.8592 C.3       0 UNK        -0.1800 
      2 C           3.7733  -18.5421  -43.7328 C.2       0 UNK         0.5000 
      3 O           4.9930  -18.6920  -43.6696 O.2       0 UNK        -0.5000 
      4 N           3.1756  -17.6502  -44.5345 N.am      1 UNK        -0.5000 
      5 CA          3.8359  -16.6554  -45.3903 C.3       1 UNK         0.1400 
      6 C6          4.7672  -17.2535  -46.4780 C.3       23 UNK        -0.0398 
      7 S7          3.8446  -18.2636  -47.6851 S.3       23 UNK        -0.2404 
      8 C8          4.1334  -17.3018  -49.2121 C.3       23 UNK        -0.0205 
      9 C9          3.5479  -17.9150  -50.4832 C.ar      23 UNK        -0.0193 
     10 C10         3.1661  -17.0726  -51.5347 C.ar      23 UNK        -0.1150 
     11 C11         2.7203  -17.6020  -52.7504 C.ar      23 UNK        -0.0193 
     12 C12         2.6389  -18.9883  -52.9036 C.ar      23 UNK        -0.1150 
     13 C13         2.9931  -19.8431  -51.8571 C.ar      23 UNK        -0.0193 
     14 C14         3.4548  -19.3014  -50.6551 C.ar      23 UNK        -0.1150 
     15 C15         2.8982  -21.3534  -52.0261 C.3       23 UNK        -0.0205 
     16 S16         1.2155  -21.9137  -52.4417 S.3       23 UNK        -0.2404 
     17 C17         0.2595  -21.3133  -51.0112 C.3       23 UNK        -0.0398 
     18 CA          0.1652  -22.3748  -49.8832 C.3       11 UNK         0.1400 
     19 N           0.8549  -21.9485  -48.6635 N.am      11 UNK        -0.5000 
     20 C           1.1939  -22.7654  -47.6560 C.2       10 UNK         0.5000 
     21 O           1.0121  -23.9827  -47.6691 O.2       10 UNK        -0.5000 
     22 CA          1.7801  -22.0940  -46.3994 C.3       10 UNK         0.1400 
     23 CB          3.2802  -21.8191  -46.5773 C.3       10 UNK        -0.1800 
     24 N           1.0857  -20.8476  -46.0663 N.am      10 UNK        -0.5000 
     25 C          -0.1956  -20.7953  -45.6739 C.2       9 UNK         0.5000 
     26 O          -0.8947  -21.7928  -45.5029 O.2       9 UNK        -0.5000 
     27 CA         -0.8272  -19.4051  -45.4832 C.3       9 UNK         0.1400 
     28 CB         -0.7939  -18.9919  -44.0087 C.3       9 UNK        -0.1800 
     29 N          -0.2429  -18.3450  -46.3085 N.am      9 UNK        -0.5000 
     30 C          -0.2571  -18.3291  -47.6503 C.2       8 UNK         0.5000 
     31 O          -0.6674  -19.2690  -48.3360 O.2       8 UNK        -0.5000 
     32 CA          0.2518  -17.0463  -48.3278 C.3       8 UNK         0.1400 
     33 CB         -0.3669  -16.8239  -49.7149 C.3       8 UNK        -0.1800 
     34 N           0.0095  -15.8773  -47.4814 N.am      8 UNK        -0.5000 
     35 C           0.8596  -14.8552  -47.3330 C.2       7 UNK         0.5000 
     36 O           1.9232  -14.7545  -47.9436 O.2       7 UNK        -0.5000 
     37 CA          0.4772  -13.7580  -46.3220 C.3       7 UNK         0.1400 
     38 CB         -0.2533  -12.6181  -47.0480 C.3       7 UNK        -0.1800 
     39 N          -0.3321  -14.1796  -45.1717 N.am      7 UNK        -0.5000 
     40 C          -0.0652  -15.1732  -44.3104 C.2       6 UNK         0.5000 
     41 O           0.8194  -16.0141  -44.4808 O.2       6 UNK        -0.5000 
     42 CA         -0.9338  -15.2265  -43.0419 C.3       6 UNK         0.1400 
     43 CB         -0.2492  -15.9608  -41.8721 C.3       6 UNK        -0.1800 
     44 N          -1.2907  -13.8753  -42.6119 N.am      6 UNK        -0.5000 
     45 C          -2.5180  -13.4857  -42.2486 C.2       5 UNK         0.5000 
     46 O          -3.5046  -14.2227  -42.2672 O.2       5 UNK        -0.5000 
     47 CA         -2.6800  -12.0300  -41.7756 C.3       5 UNK         0.1400 
     48 CB         -2.5235  -11.9467  -40.2490 C.3       5 UNK        -0.1800 
     49 N          -1.7462  -11.0888  -42.3967 N.am      5 UNK        -0.5000 
     50 C          -1.7907  -10.6851  -43.6751 C.2       4 UNK         0.5000 
     51 O          -2.5675  -11.1470  -44.5108 O.2       4 UNK        -0.5000 
     52 CA         -0.8108   -9.5667  -44.0823 C.3       4 UNK         0.1400 
     53 CB         -1.4814   -8.1919  -43.9381 C.3       4 UNK        -0.1800 
     54 N           0.4063   -9.5920  -43.2691 N.am      4 UNK        -0.5000 
     55 C           1.4645  -10.3680  -43.5319 C.2       3 UNK         0.5000 
     56 O           1.5907  -11.0021  -44.5815 O.2       3 UNK        -0.5000 
     57 CA          2.5657  -10.4333  -42.4474 C.3       3 UNK         0.1400 
     58 CB          2.0034  -10.3357  -41.0108 C.3       3 UNK        -0.1800 
     59 N           3.4223  -11.6198  -42.5661 N.am      3 UNK        -0.5000 
     60 C           3.0322  -12.9024  -42.5474 C.2       2 UNK         0.5000 
     61 O           1.8646  -13.2743  -42.4072 O.2       2 UNK        -0.5000 
     62 CA          4.1464  -13.9467  -42.6827 C.3       2 UNK         0.1400 
     63 CB          4.4730  -14.5795  -41.3212 C.3       2 UNK        -0.1800 
     64 N           3.7223  -14.9894  -43.6098 N.am      2 UNK        -0.5000 
     65 C           4.5078  -15.5700  -44.5253 C.2       1 UNK         0.5000 
     66 O           5.6989  -15.2931  -44.6804 O.2       1 UNK        -0.5000 
     67 C          -1.2997  -22.7387  -49.5848 C.2       11 UNK         0.5000 
     68 O          -1.7997  -23.7301  -50.1174 O.2       11 UNK        -0.5000 
     69 N          -1.9529  -21.9472  -48.7202 N.am      12 UNK        -0.5000 
     70 CA         -3.3309  -22.1738  -48.2892 C.3       12 UNK         0.1400 
     71 CB         -3.8155  -21.0139  -47.4067 C.3       12 UNK        -0.1800 
     72 C          -3.5081  -23.5229  -47.5691 C.2       12 UNK         0.5000 
     73 O          -4.4265  -24.2731  -47.9008 O.2       12 UNK        -0.5000 
     74 N          -2.5912  -23.8207  -46.6381 N.am      13 UNK        -0.5000 
     75 CA         -2.5218  -25.0799  -45.8989 C.3       13 UNK         0.1400 
     76 CB         -1.4777  -24.9554  -44.7791 C.3       13 UNK        -0.1800 
     77 C          -2.2081  -26.2892  -46.7971 C.2       13 UNK         0.5000 
     78 O          -2.7839  -27.3569  -46.5870 O.2       13 UNK        -0.5000 
     79 N          -1.3242  -26.0997  -47.7884 N.am      14 UNK        -0.5000 
     80 CA         -0.9663  -27.1168  -48.7792 C.3       14 UNK         0.1400 
     81 CB          0.2547  -26.6509  -49.5866 C.3       14 UNK        -0.1800 
     82 C          -2.1374  -27.4709  -49.7140 C.2       14 UNK         0.5000 
     83 O          -2.3471  -28.6497  -50.0031 O.2       14 UNK        -0.5000 
     84 N          -2.8879  -26.4505  -50.1523 N.am      15 UNK        -0.5000 
     85 CA         -4.0863  -26.6057  -50.9773 C.3       15 UNK         0.1400 
     86 CB         -4.4498  -25.2504  -51.6001 C.3       15 UNK        -0.1800 
     87 C          -5.2895  -27.1689  -50.2010 C.2       15 UNK         0.5000 
     88 O          -6.1388  -27.8253  -50.8040 O.2       15 UNK        -0.5000 
     89 N          -5.3679  -26.8602  -48.8978 N.am      16 UNK        -0.5000 
     90 CA         -6.4145  -27.1917  -47.9186 C.3       16 UNK         0.1400 
     91 CB         -6.6172  -28.7126  -47.7876 C.3       16 UNK        -0.1800 
     92 C          -7.7483  -26.4585  -48.1667 C.2       16 UNK         0.5000 
     93 O          -8.3322  -25.9209  -47.2258 O.2       16 UNK        -0.5000 
     94 N          -8.1751  -26.3963  -49.4336 N.am      17 UNK        -0.5000 
     95 CA         -9.2851  -25.5806  -49.9329 C.3       17 UNK         0.1400 
     96 CB         -9.7731  -26.1885  -51.2579 C.3       17 UNK        -0.1800 
     97 C          -8.8966  -24.0976  -50.1281 C.2       17 UNK         0.5000 
     98 O          -9.7580  -23.2873  -50.4696 O.2       17 UNK        -0.5000 
     99 N          -7.6074  -23.7802  -49.9320 N.am      18 UNK        -0.5000 
    100 CA        -6.9648  -22.4662  -50.0353 C.3       18 UNK         0.1400 
    101 CB        -7.5652  -21.4595  -49.0336 C.3       18 UNK        -0.1800 
    102 C         -6.8691  -21.9035  -51.4686 C.2       18 UNK         0.5000 
    103 O         -6.5894  -20.7173  -51.6388 O.2       18 UNK        -0.5000 
    104 N         -7.0562  -22.7634  -52.4790 N.am      19 UNK        -0.5000 
    105 CA        -7.0695  -22.4070  -53.9009 C.3       19 UNK         0.1400 
    106 CB        -7.5153  -23.6344  -54.7104 C.3       19 UNK        -0.1800 
    107 C         -5.7295  -21.8651  -54.4407 C.2       19 UNK         0.5000 
    108 O         -5.7354  -21.0799  -55.3892 O.2       19 UNK        -0.5000 
    109 N         -4.6121  -22.2905  -53.8361 N.am      20 UNK        -0.5000 
    110 CA        -3.2566  -21.8953  -54.2279 C.3       20 UNK         0.1400 
    111 CB        -2.2905  -23.0472  -53.9053 C.3       20 UNK        -0.1800 
    112 C         -2.7725  -20.5987  -53.5502 C.2       20 UNK         0.5000 
    113 O         -1.6944  -20.1189  -53.8997 O.2       20 UNK        -0.5000 
    114 N         -3.5286  -20.0750  -52.5735 N.am      21 UNK        -0.5000 
    115 CA        -3.1515  -18.9093  -51.7745 C.3       21 UNK         0.1400 
    116 CB        -4.1464  -18.7435  -50.6166 C.3       21 UNK        -0.1800 
    117 C         -3.0670  -17.6228  -52.6184 C.2       21 UNK         0.5000 
    118 O         -4.0285  -17.2739  -53.3066 O.2       21 UNK        -0.5000 
    119 N         -1.9217  -16.9401  -52.5271 N.am      22 UNK        -0.5000 
    120 CA        -1.6253  -15.6682  -53.2066 C.3       22 UNK         0.1400 
    121 C         -2.2661  -14.4121  -52.5429 C.2       22 UNK         0.5000 
    122 N         -2.9258  -14.5190  -51.3957 N.am      22 UNK        -0.7600 
    123 O         -2.1708  -13.3154  -53.0868 O.2       22 UNK        -0.5000 
    124 C124       -0.0978  -15.4732  -53.3982 C.3       23 UNK        -0.0398 
    125 S125        0.6471  -16.7798  -54.4287 S.3       23 UNK        -0.2404 
    126 C126        2.3961  -16.6912  -53.9277 C.3       23 UNK        -0.0205 
    127 H127        3.4447  -19.9485  -42.1242 H         1 UNK         0.0600 
    128 H128        2.1535  -18.7656  -42.3186 H         1 UNK         0.0600 
    129 H129        2.3114  -20.1089  -43.4669 H         1 UNK         0.0600 
    130 H130        2.1747  -17.5135  -44.4600 H         1 UNK         0.3000 
    131 H131        3.0364  -16.1383  -45.9178 H         1 UNK         0.0600 
    132 H132        5.5553  -17.8641  -46.0375 H         1 UNK         0.0800 
    133 H133        5.2804  -16.4531  -47.0132 H         1 UNK         0.0800 
    134 H134        3.7338  -16.2974  -49.0683 H         1 UNK         0.0800 
    135 H135        5.2084  -17.1907  -49.3595 H         1 UNK         0.0800 
    136 H136        3.2525  -16.0012  -51.4187 H         1 UNK         0.1150 
    137 H137        2.2986  -19.4039  -53.8419 H         1 UNK         0.1150 
    138 H138        3.7604  -19.9666  -49.8607 H         1 UNK         0.1150 
    139 H139        3.5797  -21.6636  -52.8193 H         1 UNK         0.0800 
    140 H140        3.2236  -21.8686  -51.1208 H         1 UNK         0.0800 
    141 H141       -0.7215  -21.0380  -51.4003 H         1 UNK         0.0800 
    142 H142        0.6752  -20.3745  -50.6447 H         1 UNK         0.0800 
    143 H143        0.6451  -23.2980  -50.2155 H         1 UNK         0.0600 
    144 H144        0.9696  -20.9529  -48.5371 H         1 UNK         0.3000 
    145 H145        1.6572  -22.7836  -45.5613 H         1 UNK         0.0600 
    146 H146        3.7024  -21.3299  -45.6992 H         1 UNK         0.0600 
    147 H147        3.8289  -22.7497  -46.7271 H         1 UNK         0.0600 
    148 H148        3.4748  -21.1853  -47.4423 H         1 UNK         0.0600 
    149 H149        1.5925  -19.9854  -46.2016 H         1 UNK         0.3000 
    150 H150       -1.8748  -19.4904  -45.7724 H         1 UNK         0.0600 
    151 H151       -1.1645  -19.7900  -43.3638 H         1 UNK         0.0600 
    152 H152       -1.4248  -18.1216  -43.8353 H         1 UNK         0.0600 
    153 H153        0.2165  -18.7495  -43.6871 H         1 UNK         0.0600 
    154 H154        0.1364  -17.5438  -45.8192 H         1 UNK         0.3000 
    155 H155        1.3236  -17.1840  -48.4609 H         1 UNK         0.0600 
    156 H156       -1.4545  -16.7746  -49.6596 H         1 UNK         0.0600 
    157 H157       -0.0946  -17.6344  -50.3922 H         1 UNK         0.0600 
    158 H158       -0.0083  -15.8946  -50.1562 H         1 UNK         0.0600 
    159 H159       -0.8490  -15.8748  -46.9489 H         1 UNK         0.3000 
    160 H160        1.4117  -13.3635  -45.9186 H         1 UNK         0.0600 
    161 H161        0.3316  -12.2512  -47.8927 H         1 UNK         0.0600 
    162 H162       -0.4224  -11.7718  -46.3840 H         1 UNK         0.0600 
    163 H163       -1.2213  -12.9414  -47.4326 H         1 UNK         0.0600 
    164 H164       -1.0980  -13.5650  -44.9348 H         1 UNK         0.3000 
    165 H165       -1.8298  -15.7848  -43.3183 H         1 UNK         0.0600 
    166 H166       -0.9085  -16.0154  -41.0058 H         1 UNK         0.0600 
    167 H167        0.0168  -16.9829  -42.1363 H         1 UNK         0.0600 
    168 H168        0.6665  -15.4585  -41.5607 H         1 UNK         0.0600 
    169 H169       -0.5229  -13.2160  -42.5653 H         1 UNK         0.3000 
    170 H170       -3.6943  -11.7149  -42.0304 H         1 UNK         0.0600 
    171 H171       -1.5173  -12.2249  -39.9320 H         1 UNK         0.0600 
    172 H172       -2.7246  -10.9388  -39.8854 H         1 UNK         0.0600 
    173 H173       -3.2228  -12.6168  -39.7468 H         1 UNK         0.0600 
    174 H174       -1.0656  -10.6665  -41.7845 H         1 UNK         0.3000 
    175 H175       -0.5552   -9.7057  -45.1347 H         1 UNK         0.0600 
    176 H176       -1.7694   -7.9878  -42.9060 H         1 UNK         0.0600 
    177 H177       -0.8156   -7.3931  -44.2653 H         1 UNK         0.0600 
    178 H178       -2.3835   -8.1323  -44.5486 H         1 UNK         0.0600 
    179 H179        0.3952   -9.0525  -42.4157 H         1 UNK         0.3000 
    180 H180        3.2123   -9.5713  -42.6152 H         1 UNK         0.0600 
    181 H181        1.2568  -11.1059  -40.8137 H         1 UNK         0.0600 
    182 H182        1.5401   -9.3668  -40.8245 H         1 UNK         0.0600 
    183 H183        2.7971  -10.4502  -40.2723 H         1 UNK         0.0600 
    184 H184        4.4022  -11.4240  -42.7129 H         1 UNK         0.3000 
    185 H185        5.0405  -13.4489  -43.0626 H         1 UNK         0.0600 
    186 H186        4.7865  -13.8214  -40.6027 H         1 UNK         0.0600 
    187 H187        3.6087  -15.0948  -40.9012 H         1 UNK         0.0600 
    188 H188        5.2836  -15.3029  -41.4080 H         1 UNK         0.0600 
    189 H189        2.7392  -15.2340  -43.5709 H         1 UNK         0.3000 
    190 H190       -1.4835  -21.1213  -48.3641 H         1 UNK         0.3000 
    191 H191       -3.9262  -22.1833  -49.1997 H         1 UNK         0.0600 
    192 H192       -3.3991  -21.0707  -46.4017 H         1 UNK         0.0600 
    193 H193       -4.9008  -21.0384  -47.3044 H         1 UNK         0.0600 
    194 H194       -3.5473  -20.0445  -47.8260 H         1 UNK         0.0600 
    195 H195       -1.8939  -23.1203  -46.3974 H         1 UNK         0.3000 
    196 H196       -3.4974  -25.2517  -45.4394 H         1 UNK         0.0600 
    197 H197       -0.4854  -24.7396  -45.1777 H         1 UNK         0.0600 
    198 H198       -1.4087  -25.8785  -44.2022 H         1 UNK         0.0600 
    199 H199       -1.7389  -24.1565  -44.0849 H         1 UNK         0.0600 
    200 H200       -0.8621  -25.2025  -47.8696 H         1 UNK         0.3000 
    201 H201       -0.6864  -28.0245  -48.2404 H         1 UNK         0.0600 
    202 H202        1.1114  -26.4708  -48.9371 H         1 UNK         0.0600 
    203 H203        0.0508  -25.7313  -50.1349 H         1 UNK         0.0600 
    204 H204        0.5526  -27.4068  -50.3142 H         1 UNK         0.0600 
    205 H205       -2.6056  -25.5011  -49.9244 H         1 UNK         0.3000 
    206 H206       -3.8615  -27.3029  -51.7874 H         1 UNK         0.0600 
    207 H207       -3.6534  -24.9115  -52.2587 H         1 UNK         0.0600 
    208 H208       -5.3585  -25.3214  -52.1991 H         1 UNK         0.0600 
    209 H209       -4.6057  -24.4854  -50.8390 H         1 UNK         0.0600 
    210 H210       -4.6579  -26.2304  -48.5394 H         1 UNK         0.3000 
    211 H211       -6.0344  -26.8313  -46.9611 H         1 UNK         0.0600 
    212 H212       -7.0336  -29.1522  -48.6941 H         1 UNK         0.0600 
    213 H213       -7.3036  -28.9422  -46.9718 H         1 UNK         0.0600 
    214 H214       -5.6748  -29.2162  -47.5717 H         1 UNK         0.0600 
    215 H215       -7.6305  -26.9040  -50.1266 H         1 UNK         0.3000 
    216 H216      -10.1046  -25.6151  -49.2123 H         1 UNK         0.0600 
    217 H217      -10.6272  -25.6371  -51.6534 H         1 UNK         0.0600 
    218 H218      -10.0913  -27.2224  -51.1228 H         1 UNK         0.0600 
    219 H219       -8.9917  -26.1752  -52.0189 H         1 UNK         0.0600 
    220 H220       -7.0009  -24.5312  -49.6359 H         1 UNK         0.3000 
    221 H221       -5.9389  -22.6439  -49.7301 H         1 UNK         0.0600 
    222 H222       -8.5830  -21.1767  -49.3029 H         1 UNK         0.0600 
    223 H223       -7.5854  -21.8725  -48.0250 H         1 UNK         0.0600 
    224 H224       -6.9731  -20.5442  -48.9951 H         1 UNK         0.0600 
    225 H225       -7.2898  -23.7176  -52.2515 H         1 UNK         0.3000 
    226 H226       -7.8147  -21.6203  -54.0365 H         1 UNK         0.0600 
    227 H227       -8.5057  -23.9718  -54.4035 H         1 UNK         0.0600 
    228 H228       -7.5685  -23.4030  -55.7752 H         1 UNK         0.0600 
    229 H229       -6.8231  -24.4688  -54.5900 H         1 UNK         0.0600 
    230 H230       -4.6961  -22.9318  -53.0627 H         1 UNK         0.3000 
    231 H231       -3.2283  -21.7291  -55.3070 H         1 UNK         0.0600 
    232 H232       -1.2933  -22.8386  -54.2951 H         1 UNK         0.0600 
    233 H233       -2.6214  -23.9838  -54.3542 H         1 UNK         0.0600 
    234 H234       -2.1888  -23.1987  -52.8304 H         1 UNK         0.0600 
    235 H235       -4.4406  -20.4723  -52.3904 H         1 UNK         0.3000 
    236 H236       -2.1711  -19.1138  -51.3394 H         1 UNK         0.0600 
    237 H237       -3.8149  -17.9702  -49.9230 H         1 UNK         0.0600 
    238 H238       -5.1378  -18.4628  -50.9748 H         1 UNK         0.0600 
    239 H239       -4.2498  -19.6685  -50.0511 H         1 UNK         0.0600 
    240 H240       -1.1696  -17.3179  -51.9718 H         1 UNK         0.3000 
    241 H241       -2.0698  -15.7210  -54.2024 H         1 UNK         0.0600 
    242 H242       -3.0375  -15.4117  -50.9468 H         1 UNK         0.3800 
    243 H243       -3.3391  -13.6957  -50.9869 H         1 UNK         0.3800 
    244 H244        0.1129  -14.5194  -53.8852 H         1 UNK         0.0800 
    245 H245        0.4090  -15.4418  -52.4331 H         1 UNK         0.0800 
    246 H246        3.0121  -16.9932  -54.7758 H         1 UNK         0.0800 
    247 H247        2.6674  -15.6564  -53.7130 H         1 UNK         0.0800 
@<TRIPOS>BOND
     1    1    2 1    
     2    1  127 1    
     3    1  128 1    
     4    1  129 1    
     5    2    3 2    
     6    2    4 am   BACKBONE|DICT|INTERRES
     7    4    5 1    
     8    4  130 1    
     9    5    6 1    
    10    5   65 1    
    11    5  131 1    
    12    6    7 1    
    13    6  132 1    
    14    6  133 1    
    15    7    8 1    
    16    8    9 1    
    17    8  134 1    
    18    8  135 1    
    19    9   10 ar   
    20    9   14 ar   
    21   10   11 ar   
    22   10  136 1    
    23   11   12 ar   
    24   11  126 1    
    25   12   13 ar   
    26   12  137 1    
    27   13   14 ar   
    28   13   15 1    
    29   14  138 1    
    30   15   16 1    
    31   15  139 1    
    32   15  140 1    
    33   16   17 1    
    34   17   18 1    
    35   17  141 1    
    36   17  142 1    
    37   18   19 1    
    38   18   67 1    
    39   18  143 1    
    40   19   20 am   BACKBONE|DICT|INTERRES
    41   19  144 1    
    42   20   21 2    
    43   20   22 1    
    44   22   23 1    
    45   22   24 1    
    46   22  145 1    
    47   23  146 1    
    48   23  147 1    
    49   23  148 1    
    50   24   25 am   BACKBONE|DICT|INTERRES
    51   24  149 1    
    52   25   26 2    
    53   25   27 1    
    54   27   28 1    
    55   27   29 1    
    56   27  150 1    
    57   28  151 1    
    58   28  152 1    
    59   28  153 1    
    60   29   30 am   BACKBONE|DICT|INTERRES
    61   29  154 1    
    62   30   31 2    
    63   30   32 1    
    64   32   33 1    
    65   32   34 1    
    66   32  155 1    
    67   33  156 1    
    68   33  157 1    
    69   33  158 1    
    70   34   35 am   BACKBONE|DICT|INTERRES
    71   34  159 1    
    72   35   36 2    
    73   35   37 1    
    74   37   38 1    
    75   37   39 1    
    76   37  160 1    
    77   38  161 1    
    78   38  162 1    
    79   38  163 1    
    80   39   40 am   BACKBONE|DICT|INTERRES
    81   39  164 1    
    82   40   41 2    
    83   40   42 1    
    84   42   43 1    
    85   42   44 1    
    86   42  165 1    
    87   43  166 1    
    88   43  167 1    
    89   43  168 1    
    90   44   45 am   BACKBONE|DICT|INTERRES
    91   44  169 1    
    92   45   46 2    
    93   45   47 1    
    94   47   48 1    
    95   47   49 1    
    96   47  170 1    
    97   48  171 1    
    98   48  172 1    
    99   48  173 1    
   100   49   50 am   BACKBONE|DICT|INTERRES
   101   49  174 1    
   102   50   51 2    
   103   50   52 1    
   104   52   53 1    
   105   52   54 1    
   106   52  175 1    
   107   53  176 1    
   108   53  177 1    
   109   53  178 1    
   110   54   55 am   BACKBONE|DICT|INTERRES
   111   54  179 1    
   112   55   56 2    
   113   55   57 1    
   114   57   58 1    
   115   57   59 1    
   116   57  180 1    
   117   58  181 1    
   118   58  182 1    
   119   58  183 1    
   120   59   60 am   BACKBONE|DICT|INTERRES
   121   59  184 1    
   122   60   61 2    
   123   60   62 1    
   124   62   63 1    
   125   62   64 1    
   126   62  185 1    
   127   63  186 1    
   128   63  187 1    
   129   63  188 1    
   130   64   65 am   BACKBONE|DICT|INTERRES
   131   64  189 1    
   132   65   66 2    
   133   67   68 2    
   134   67   69 am   BACKBONE|DICT|INTERRES
   135   69   70 1    
   136   69  190 1    
   137   70   71 1    
   138   70   72 1    
   139   70  191 1    
   140   71  192 1    
   141   71  193 1    
   142   71  194 1    
   143   72   73 2    
   144   72   74 am   BACKBONE|DICT|INTERRES
   145   74   75 1    
   146   74  195 1    
   147   75   76 1    
   148   75   77 1    
   149   75  196 1    
   150   76  197 1    
   151   76  198 1    
   152   76  199 1    
   153   77   78 2    
   154   77   79 am   BACKBONE|DICT|INTERRES
   155   79   80 1    
   156   79  200 1    
   157   80   81 1    
   158   80   82 1    
   159   80  201 1    
   160   81  202 1    
   161   81  203 1    
   162   81  204 1    
   163   82   83 2    
   164   82   84 am   BACKBONE|DICT|INTERRES
   165   84   85 1    
   166   84  205 1    
   167   85   86 1    
   168   85   87 1    
   169   85  206 1    
   170   86  207 1    
   171   86  208 1    
   172   86  209 1    
   173   87   88 2    
   174   87   89 am   BACKBONE|DICT|INTERRES
   175   89   90 1    
   176   89  210 1    
   177   90   91 1    
   178   90   92 1    
   179   90  211 1    
   180   91  212 1    
   181   91  213 1    
   182   91  214 1    
   183   92   93 2    
   184   92   94 am   BACKBONE|DICT|INTERRES
   185   94   95 1    
   186   94  215 1    
   187   95   96 1    
   188   95   97 1    
   189   95  216 1    
   190   96  217 1    
   191   96  218 1    
   192   96  219 1    
   193   97   98 2    
   194   97   99 am   BACKBONE|DICT|INTERRES
   195   99  100 1    
   196   99  220 1    
   197  100  101 1    
   198  100  102 1    
   199  100  221 1    
   200  101  222 1    
   201  101  223 1    
   202  101  224 1    
   203  102  103 2    
   204  102  104 am   BACKBONE|DICT|INTERRES
   205  104  105 1    
   206  104  225 1    
   207  105  106 1    
   208  105  107 1    
   209  105  226 1    
   210  106  227 1    
   211  106  228 1    
   212  106  229 1    
   213  107  108 2    
   214  107  109 am   BACKBONE|DICT|INTERRES
   215  109  110 1    
   216  109  230 1    
   217  110  111 1    
   218  110  112 1    
   219  110  231 1    
   220  111  232 1    
   221  111  233 1    
   222  111  234 1    
   223  112  113 2    
   224  112  114 am   BACKBONE|DICT|INTERRES
   225  114  115 1    
   226  114  235 1    
   227  115  116 1    
   228  115  117 1    
   229  115  236 1    
   230  116  237 1    
   231  116  238 1    
   232  116  239 1    
   233  117  118 2    
   234  117  119 am   BACKBONE|DICT|INTERRES
   235  119  120 1    
   236  119  240 1    
   237  120  121 1    
   238  120  124 1    
   239  120  241 1    
   240  121  122 am   BACKBONE|DICT|INTERRES
   241  121  123 2    
   242  122  242 1    
   243  122  243 1    
   244  124  125 1    
   245  124  244 1    
   246  124  245 1    
   247  125  126 1    
   248  126  246 1    
   249  126  247 1    
@<TRIPOS>SUBSTRUCTURE
     1 UNK         1 GROUP             0       ****    0 ROOT    
