@<TRIPOS>MOLECULE
3R540
247   249    1
SMALL
USER_CHARGES


@<TRIPOS>ATOM
      1 CA          2.8201   -9.3012  -47.9789 C.3       0 UNK        -0.1800 
      2 C           2.7730  -10.5017  -47.0454 C.2       0 UNK         0.5000 
      3 O           3.4117  -10.4864  -45.9936 O.2       0 UNK        -0.5000 
      4 N           2.0042  -11.5360  -47.4117 N.am      1 UNK        -0.5000 
      5 CA          1.8703  -12.8007  -46.6730 C.3       1 UNK         0.1400 
      6 C6          1.0565  -13.8505  -47.4635 C.3       23 UNK        -0.0398 
      7 S7          1.8538  -14.3336  -49.0333 S.3       23 UNK        -0.2404 
      8 C8          1.3496  -16.0804  -49.1766 C.3       23 UNK        -0.0205 
      9 C9         -0.1151  -16.2147  -49.5643 C.ar      23 UNK        -0.0193 
     10 C10        -0.4786  -16.4296  -50.8970 C.ar      23 UNK        -0.1150 
     11 C11        -1.8249  -16.5566  -51.2522 C.ar      23 UNK        -0.0193 
     12 C12        -2.8110  -16.4532  -50.2665 C.ar      23 UNK        -0.1150 
     13 C13        -2.4594  -16.2305  -48.9328 C.ar      23 UNK        -0.0193 
     14 C14        -1.1105  -16.1255  -48.5880 C.ar      23 UNK        -0.1150 
     15 C15        -3.5365  -16.0705  -47.8711 C.3       23 UNK        -0.0205 
     16 S16        -4.1596  -17.6701  -47.2726 S.3       23 UNK        -0.2404 
     17 C17        -2.7806  -18.2544  -46.2282 C.3       23 UNK        -0.0398 
     18 CA         -2.5137  -19.7664  -46.4150 C.3       11 UNK         0.1400 
     19 N          -1.1522  -20.1439  -46.0285 N.am      11 UNK        -0.5000 
     20 C          -0.5922  -21.3372  -46.2766 C.2       10 UNK         0.5000 
     21 O          -1.1284  -22.2194  -46.9452 O.2       10 UNK        -0.5000 
     22 CA          0.7762  -21.6143  -45.6260 C.3       10 UNK         0.1400 
     23 CB          1.9178  -21.1041  -46.5176 C.3       10 UNK        -0.1800 
     24 N           0.8926  -21.0391  -44.2835 N.am      10 UNK        -0.5000 
     25 C           0.1278  -21.3966  -43.2411 C.2       9 UNK         0.5000 
     26 O          -0.7104  -22.2947  -43.2908 O.2       9 UNK        -0.5000 
     27 CA          0.2788  -20.5858  -41.9422 C.3       9 UNK         0.1400 
     28 CB          1.4420  -21.1237  -41.0967 C.3       9 UNK        -0.1800 
     29 N           0.4517  -19.1522  -42.1838 N.am      9 UNK        -0.5000 
     30 C          -0.4649  -18.3605  -42.7606 C.2       8 UNK         0.5000 
     31 O          -1.5783  -18.7536  -43.1112 O.2       8 UNK        -0.5000 
     32 CA         -0.0466  -16.9053  -43.0509 C.3       8 UNK         0.1400 
     33 CB         -0.1409  -16.0345  -41.7900 C.3       8 UNK        -0.1800 
     34 N           1.3052  -16.8231  -43.6025 N.am      8 UNK        -0.5000 
     35 C           1.6669  -17.3227  -44.7921 C.2       7 UNK         0.5000 
     36 O           0.8720  -17.8154  -45.5936 O.2       7 UNK        -0.5000 
     37 CA          3.1732  -17.3320  -45.1110 C.3       7 UNK         0.1400 
     38 CB          3.6316  -16.0047  -45.7258 C.3       7 UNK        -0.1800 
     39 N           3.9789  -17.6126  -43.9234 N.am      7 UNK        -0.5000 
     40 C           4.0939  -18.8234  -43.3626 C.2       6 UNK         0.5000 
     41 O           3.5406  -19.8314  -43.8001 O.2       6 UNK        -0.5000 
     42 CA          4.9456  -18.9168  -42.0833 C.3       6 UNK         0.1400 
     43 CB          6.4312  -19.0850  -42.4350 C.3       6 UNK        -0.1800 
     44 N           4.7839  -17.7551  -41.2074 N.am      6 UNK        -0.5000 
     45 C           3.6522  -17.4519  -40.5565 C.2       5 UNK         0.5000 
     46 O           2.6299  -18.1325  -40.6125 O.2       5 UNK        -0.5000 
     47 CA          3.6457  -16.1451  -39.7430 C.3       5 UNK         0.1400 
     48 CB          4.1812  -16.3898  -38.3245 C.3       5 UNK        -0.1800 
     49 N           4.4055  -15.0599  -40.3703 N.am      5 UNK        -0.5000 
     50 C           4.1260  -14.5301  -41.5681 C.2       4 UNK         0.5000 
     51 O           3.2266  -14.9402  -42.3028 O.2       4 UNK        -0.5000 
     52 CA          5.0198  -13.3762  -42.0343 C.3       4 UNK         0.1400 
     53 CB          5.8408  -13.7797  -43.2695 C.3       4 UNK        -0.1800 
     54 N           4.1856  -12.2244  -42.3668 N.am      4 UNK        -0.5000 
     55 C           4.3161  -11.0069  -41.8230 C.2       3 UNK         0.5000 
     56 O           5.1551  -10.7359  -40.9621 O.2       3 UNK        -0.5000 
     57 CA          3.3800   -9.8860  -42.3158 C.3       3 UNK         0.1400 
     58 CB          4.1732   -8.8353  -43.1099 C.3       3 UNK        -0.1800 
     59 N           2.2748  -10.3674  -43.1458 N.am      3 UNK        -0.5000 
     60 C           1.0943  -10.7864  -42.6661 C.2       2 UNK         0.5000 
     61 O           0.8338  -10.8466  -41.4640 O.2       2 UNK        -0.5000 
     62 CA          0.0118  -11.1925  -43.6892 C.3       2 UNK         0.1400 
     63 CB         -1.0162  -10.0633  -43.8591 C.3       2 UNK        -0.1800 
     64 N           0.5501  -11.5401  -45.0053 N.am      2 UNK        -0.5000 
     65 C           1.2772  -12.6367  -45.2560 C.2       1 UNK         0.5000 
     66 O           1.5058  -13.4953  -44.4081 O.2       1 UNK        -0.5000 
     67 C          -3.5635  -20.6180  -45.6722 C.2       11 UNK         0.5000 
     68 O          -4.4426  -21.1946  -46.3141 O.2       11 UNK        -0.5000 
     69 N          -3.4256  -20.7163  -44.3408 N.am      12 UNK        -0.5000 
     70 CA         -4.3006  -21.4959  -43.4581 C.3       12 UNK         0.1400 
     71 CB         -3.9048  -21.2397  -41.9965 C.3       12 UNK        -0.1800 
     72 C          -4.3017  -23.0068  -43.7675 C.2       12 UNK         0.5000 
     73 O          -5.3349  -23.6594  -43.6192 O.2       12 UNK        -0.5000 
     74 N          -3.1586  -23.5208  -44.2378 N.am      13 UNK        -0.5000 
     75 CA         -2.9649  -24.8872  -44.7251 C.3       13 UNK         0.1400 
     76 CB         -1.4616  -25.2099  -44.6805 C.3       13 UNK        -0.1800 
     77 C          -3.5402  -25.1425  -46.1377 C.2       13 UNK         0.5000 
     78 O          -3.3966  -26.2602  -46.6341 O.2       13 UNK        -0.5000 
     79 N          -4.1706  -24.1263  -46.7487 N.am      14 UNK        -0.5000 
     80 CA         -4.7113  -24.0682  -48.1079 C.3       14 UNK         0.1400 
     81 CB         -5.7262  -25.1971  -48.3883 C.3       14 UNK        -0.1800 
     82 C          -3.5732  -24.0111  -49.1389 C.2       14 UNK         0.5000 
     83 O          -3.1237  -25.0480  -49.6320 O.2       14 UNK        -0.5000 
     84 N          -3.1170  -22.7864  -49.4325 N.am      15 UNK        -0.5000 
     85 CA         -2.0642  -22.4869  -50.4041 C.3       15 UNK         0.1400 
     86 CB         -1.7918  -20.9757  -50.4119 C.3       15 UNK        -0.1800 
     87 C          -2.4309  -22.9976  -51.8108 C.2       15 UNK         0.5000 
     88 O          -3.4961  -22.6523  -52.3285 O.2       15 UNK        -0.5000 
     89 N          -1.5741  -23.8697  -52.3619 N.am      16 UNK        -0.5000 
     90 CA         -1.7613  -24.6220  -53.6113 C.3       16 UNK         0.1400 
     91 CB         -1.7073  -23.6738  -54.8257 C.3       16 UNK        -0.1800 
     92 C          -3.0291  -25.5097  -53.6045 C.2       16 UNK         0.5000 
     93 O          -3.6424  -25.7185  -54.6517 O.2       16 UNK        -0.5000 
     94 N          -3.4218  -25.9789  -52.4091 N.am      17 UNK        -0.5000 
     95 CA         -4.6430  -26.7290  -52.0935 C.3       17 UNK         0.1400 
     96 CB         -4.6634  -28.0898  -52.8211 C.3       17 UNK        -0.1800 
     97 C          -5.9430  -25.9240  -52.3132 C.2       17 UNK         0.5000 
     98 O          -7.0167  -26.5240  -52.3785 O.2       17 UNK        -0.5000 
     99 N          -5.8334  -24.5903  -52.4360 N.am      18 UNK        -0.5000 
    100 CA        -6.8723  -23.5843  -52.7003 C.3       18 UNK         0.1400 
    101 CB        -7.9131  -23.5387  -51.5668 C.3       18 UNK        -0.1800 
    102 C         -7.5544  -23.6960  -54.0804 C.2       18 UNK         0.5000 
    103 O         -7.7898  -22.6703  -54.7195 O.2       18 UNK        -0.5000 
    104 N         -7.8345  -24.9237  -54.5345 N.am      19 UNK        -0.5000 
    105 CA        -8.4970  -25.2631  -55.7969 C.3       19 UNK         0.1400 
    106 CB        -8.7170  -26.7826  -55.8444 C.3       19 UNK        -0.1800 
    107 C         -7.7470  -24.7892  -57.0573 C.2       19 UNK         0.5000 
    108 O         -8.3832  -24.5460  -58.0831 O.2       19 UNK        -0.5000 
    109 N         -6.4200  -24.6349  -56.9538 N.am      20 UNK        -0.5000 
    110 CA        -5.5550  -24.0875  -58.0013 C.3       20 UNK         0.1400 
    111 CB        -4.1338  -24.6345  -57.8002 C.3       20 UNK        -0.1800 
    112 C         -5.5449  -22.5432  -58.0426 C.2       20 UNK         0.5000 
    113 O         -4.7609  -21.9745  -58.8040 O.2       20 UNK        -0.5000 
    114 N         -6.3689  -21.8848  -57.2099 N.am      21 UNK        -0.5000 
    115 CA        -6.5190  -20.4302  -57.0741 C.3       21 UNK         0.1400 
    116 CB        -7.1489  -19.8256  -58.3463 C.3       21 UNK        -0.1800 
    117 C         -5.2052  -19.7362  -56.6587 C.2       21 UNK         0.5000 
    118 O         -4.8846  -18.6545  -57.1541 O.2       21 UNK        -0.5000 
    119 N         -4.4606  -20.3993  -55.7642 N.am      22 UNK        -0.5000 
    120 CA        -3.1177  -20.0230  -55.2946 C.3       22 UNK         0.1400 
    121 C         -1.9756  -20.2447  -56.3365 C.2       22 UNK         0.5000 
    122 N         -2.2242  -20.8588  -57.4885 N.am      22 UNK        -0.7600 
    123 O         -0.8295  -19.8822  -56.0882 O.2       22 UNK        -0.5000 
    124 C124       -3.0838  -18.6090  -54.6425 C.3       23 UNK        -0.0398 
    125 S125       -2.0918  -18.5634  -53.1172 S.3       23 UNK        -0.2404 
    126 C126       -2.2176  -16.8002  -52.6995 C.3       23 UNK        -0.0205 
    127 H127        2.4701   -8.4090  -47.4598 H         1 UNK         0.0600 
    128 H128        3.8434   -9.1249  -48.3101 H         1 UNK         0.0600 
    129 H129        2.1971   -9.4490  -48.8613 H         1 UNK         0.0600 
    130 H130        1.5096  -11.4947  -48.2917 H         1 UNK         0.3000 
    131 H131        2.8805  -13.1918  -46.5355 H         1 UNK         0.0600 
    132 H132        0.9306  -14.7475  -46.8550 H         1 UNK         0.0800 
    133 H133        0.0528  -13.4803  -47.6799 H         1 UNK         0.0800 
    134 H134        1.5367  -16.6105  -48.2418 H         1 UNK         0.0800 
    135 H135        1.9783  -16.5635  -49.9260 H         1 UNK         0.0800 
    136 H136        0.2849  -16.5041  -51.6587 H         1 UNK         0.1150 
    137 H137       -3.8540  -16.5438  -50.5361 H         1 UNK         0.1150 
    138 H138       -0.8365  -15.9630  -47.5567 H         1 UNK         0.1150 
    139 H139       -3.1658  -15.4841  -47.0288 H         1 UNK         0.0800 
    140 H140       -4.3711  -15.5047  -48.2876 H         1 UNK         0.0800 
    141 H141       -2.9960  -18.0029  -45.1888 H         1 UNK         0.0800 
    142 H142       -1.8809  -17.6968  -46.4807 H         1 UNK         0.0800 
    143 H143       -2.6038  -19.9932  -47.4790 H         1 UNK         0.0600 
    144 H144       -0.6205  -19.4625  -45.5004 H         1 UNK         0.3000 
    145 H145        0.8823  -22.6968  -45.5303 H         1 UNK         0.0600 
    146 H146        2.8910  -21.3465  -46.0906 H         1 UNK         0.0600 
    147 H147        1.8730  -21.5627  -47.5062 H         1 UNK         0.0600 
    148 H148        1.8719  -20.0246  -46.6570 H         1 UNK         0.0600 
    149 H149        1.6165  -20.3420  -44.1447 H         1 UNK         0.3000 
    150 H150       -0.6396  -20.7127  -41.3660 H         1 UNK         0.0600 
    151 H151        1.3181  -22.1884  -40.8950 H         1 UNK         0.0600 
    152 H152        1.4969  -20.6158  -40.1338 H         1 UNK         0.0600 
    153 H153        2.4001  -20.9944  -41.5994 H         1 UNK         0.0600 
    154 H154        1.3231  -18.7415  -41.8598 H         1 UNK         0.3000 
    155 H155       -0.7368  -16.5009  -43.7943 H         1 UNK         0.0600 
    156 H156        0.5280  -16.3866  -41.0048 H         1 UNK         0.0600 
    157 H157       -1.1542  -16.0404  -41.3869 H         1 UNK         0.0600 
    158 H158        0.1189  -14.9982  -42.0093 H         1 UNK         0.0600 
    159 H159        2.0056  -16.3526  -43.0375 H         1 UNK         0.3000 
    160 H160        3.3545  -18.1204  -45.8446 H         1 UNK         0.0600 
    161 H161        4.7019  -16.0118  -45.9321 H         1 UNK         0.0600 
    162 H162        3.4228  -15.1662  -45.0636 H         1 UNK         0.0600 
    163 H163        3.1246  -15.8174  -46.6699 H         1 UNK         0.0600 
    164 H164        4.4091  -16.8212  -43.4683 H         1 UNK         0.3000 
    165 H165        4.6237  -19.8037  -41.5335 H         1 UNK         0.0600 
    166 H166        7.0344  -19.2312  -41.5388 H         1 UNK         0.0600 
    167 H167        6.5842  -19.9559  -43.0739 H         1 UNK         0.0600 
    168 H168        6.8220  -18.2158  -42.9655 H         1 UNK         0.0600 
    169 H169        5.5781  -17.1404  -41.1071 H         1 UNK         0.3000 
    170 H170        2.6076  -15.8163  -39.6619 H         1 UNK         0.0600 
    171 H171        3.6194  -17.1814  -37.8266 H         1 UNK         0.0600 
    172 H172        5.2302  -16.6884  -38.3349 H         1 UNK         0.0600 
    173 H173        4.0922  -15.4945  -37.7090 H         1 UNK         0.0600 
    174 H174        5.1650  -14.6735  -39.8284 H         1 UNK         0.3000 
    175 H175        5.7188  -13.1362  -41.2306 H         1 UNK         0.0600 
    176 H176        5.2050  -13.9704  -44.1334 H         1 UNK         0.0600 
    177 H177        6.5424  -12.9921  -43.5446 H         1 UNK         0.0600 
    178 H178        6.4228  -14.6823  -43.0793 H         1 UNK         0.0600 
    179 H179        3.4251  -12.4019  -43.0105 H         1 UNK         0.3000 
    180 H180        2.9731   -9.3923  -41.4307 H         1 UNK         0.0600 
    181 H181        4.6674   -9.2737  -43.9773 H         1 UNK         0.0600 
    182 H182        4.9468   -8.3797  -42.4906 H         1 UNK         0.0600 
    183 H183        3.5255   -8.0321  -43.4618 H         1 UNK         0.0600 
    184 H184        2.4391  -10.3777  -44.1469 H         1 UNK         0.3000 
    185 H185       -0.5047  -12.0676  -43.2886 H         1 UNK         0.0600 
    186 H186       -1.4651   -9.7956  -42.9017 H         1 UNK         0.0600 
    187 H187       -0.5594   -9.1623  -44.2708 H         1 UNK         0.0600 
    188 H188       -1.8268  -10.3636  -44.5233 H         1 UNK         0.0600 
    189 H189        0.4078  -10.8736  -45.7501 H         1 UNK         0.3000 
    190 H190       -2.6815  -20.1905  -43.8909 H         1 UNK         0.3000 
    191 H191       -5.3193  -21.1310  -43.6036 H         1 UNK         0.0600 
    192 H192       -2.8976  -21.5979  -41.7843 H         1 UNK         0.0600 
    193 H193       -4.5845  -21.7507  -41.3135 H         1 UNK         0.0600 
    194 H194       -3.9400  -20.1767  -41.7572 H         1 UNK         0.0600 
    195 H195       -2.3364  -22.9249  -44.2426 H         1 UNK         0.3000 
    196 H196       -3.4768  -25.5697  -44.0439 H         1 UNK         0.0600 
    197 H197       -0.8952  -24.5654  -45.3533 H         1 UNK         0.0600 
    198 H198       -1.2689  -26.2424  -44.9740 H         1 UNK         0.0600 
    199 H199       -1.0598  -25.0806  -43.6754 H         1 UNK         0.0600 
    200 H200       -4.1937  -23.2378  -46.2607 H         1 UNK         0.3000 
    201 H201       -5.2624  -23.1286  -48.1729 H         1 UNK         0.0600 
    202 H202       -6.2076  -25.0490  -49.3546 H         1 UNK         0.0600 
    203 H203       -6.5122  -25.2162  -47.6336 H         1 UNK         0.0600 
    204 H204       -5.2603  -26.1820  -48.4128 H         1 UNK         0.0600 
    205 H205       -3.5293  -21.9930  -48.9652 H         1 UNK         0.3000 
    206 H206       -1.1560  -22.9913  -50.0676 H         1 UNK         0.0600 
    207 H207       -1.4233  -20.6352  -49.4447 H         1 UNK         0.0600 
    208 H208       -1.0318  -20.7208  -51.1513 H         1 UNK         0.0600 
    209 H209       -2.6895  -20.4045  -50.6520 H         1 UNK         0.0600 
    210 H210       -0.7402  -24.1072  -51.8424 H         1 UNK         0.3000 
    211 H211       -0.9131  -25.3037  -53.6864 H         1 UNK         0.0600 
    212 H212       -2.6154  -23.0775  -54.9099 H         1 UNK         0.0600 
    213 H213       -1.5979  -24.2373  -55.7525 H         1 UNK         0.0600 
    214 H214       -0.8599  -22.9910  -54.7627 H         1 UNK         0.0600 
    215 H215       -2.8882  -25.7015  -51.5913 H         1 UNK         0.3000 
    216 H216       -4.5992  -26.9334  -51.0230 H         1 UNK         0.0600 
    217 H217       -4.8066  -27.9753  -53.8958 H         1 UNK         0.0600 
    218 H218       -5.4744  -28.7184  -52.4516 H         1 UNK         0.0600 
    219 H219       -3.7341  -28.6365  -52.6616 H         1 UNK         0.0600 
    220 H220       -4.8973  -24.2012  -52.3947 H         1 UNK         0.3000 
    221 H221       -6.3504  -22.6259  -52.6972 H         1 UNK         0.0600 
    222 H222       -8.4681  -24.4730  -51.4807 H         1 UNK         0.0600 
    223 H223       -7.4395  -23.3377  -50.6062 H         1 UNK         0.0600 
    224 H224       -8.6404  -22.7445  -51.7397 H         1 UNK         0.0600 
    225 H225       -7.6157  -25.6977  -53.9119 H         1 UNK         0.3000 
    226 H226       -9.4731  -24.7740  -55.7966 H         1 UNK         0.0600 
    227 H227       -9.3271  -27.1192  -55.0059 H         1 UNK         0.0600 
    228 H228       -9.2330  -27.0764  -56.7595 H         1 UNK         0.0600 
    229 H229       -7.7715  -27.3255  -55.8100 H         1 UNK         0.0600 
    230 H230       -5.9745  -24.8689  -56.0771 H         1 UNK         0.3000 
    231 H231       -5.9133  -24.4338  -58.9728 H         1 UNK         0.0600 
    232 H232       -3.6891  -24.2448  -56.8862 H         1 UNK         0.0600 
    233 H233       -3.4811  -24.3530  -58.6274 H         1 UNK         0.0600 
    234 H234       -4.1296  -25.7230  -57.7395 H         1 UNK         0.0600 
    235 H235       -6.9431  -22.4294  -56.5753 H         1 UNK         0.3000 
    236 H236       -7.2191  -20.2701  -56.2529 H         1 UNK         0.0600 
    237 H237       -8.0795  -20.3317  -58.6030 H         1 UNK         0.0600 
    238 H238       -7.3837  -18.7703  -58.2025 H         1 UNK         0.0600 
    239 H239       -6.4802  -19.8975  -59.2045 H         1 UNK         0.0600 
    240 H240       -4.8091  -21.2831  -55.4231 H         1 UNK         0.3000 
    241 H241       -2.9129  -20.7531  -54.5112 H         1 UNK         0.0600 
    242 H242       -3.1593  -21.1474  -57.7487 H         1 UNK         0.3800 
    243 H243       -1.4674  -20.9987  -58.1385 H         1 UNK         0.3800 
    244 H244       -2.7240  -17.8531  -55.3430 H         1 UNK         0.0800 
    245 H245       -4.0906  -18.2965  -54.3620 H         1 UNK         0.0800 
    246 H246       -1.5762  -16.2220  -53.3661 H         1 UNK         0.0800 
    247 H247       -3.2372  -16.4522  -52.8720 H         1 UNK         0.0800 
@<TRIPOS>BOND
     1    1    2 1    
     2    1  127 1    
     3    1  128 1    
     4    1  129 1    
     5    2    3 2    
     6    2    4 am   BACKBONE|DICT|INTERRES
     7    4    5 1    
     8    4  130 1    
     9    5    6 1    
    10    5   65 1    
    11    5  131 1    
    12    6    7 1    
    13    6  132 1    
    14    6  133 1    
    15    7    8 1    
    16    8    9 1    
    17    8  134 1    
    18    8  135 1    
    19    9   10 ar   
    20    9   14 ar   
    21   10   11 ar   
    22   10  136 1    
    23   11   12 ar   
    24   11  126 1    
    25   12   13 ar   
    26   12  137 1    
    27   13   14 ar   
    28   13   15 1    
    29   14  138 1    
    30   15   16 1    
    31   15  139 1    
    32   15  140 1    
    33   16   17 1    
    34   17   18 1    
    35   17  141 1    
    36   17  142 1    
    37   18   19 1    
    38   18   67 1    
    39   18  143 1    
    40   19   20 am   BACKBONE|DICT|INTERRES
    41   19  144 1    
    42   20   21 2    
    43   20   22 1    
    44   22   23 1    
    45   22   24 1    
    46   22  145 1    
    47   23  146 1    
    48   23  147 1    
    49   23  148 1    
    50   24   25 am   BACKBONE|DICT|INTERRES
    51   24  149 1    
    52   25   26 2    
    53   25   27 1    
    54   27   28 1    
    55   27   29 1    
    56   27  150 1    
    57   28  151 1    
    58   28  152 1    
    59   28  153 1    
    60   29   30 am   BACKBONE|DICT|INTERRES
    61   29  154 1    
    62   30   31 2    
    63   30   32 1    
    64   32   33 1    
    65   32   34 1    
    66   32  155 1    
    67   33  156 1    
    68   33  157 1    
    69   33  158 1    
    70   34   35 am   BACKBONE|DICT|INTERRES
    71   34  159 1    
    72   35   36 2    
    73   35   37 1    
    74   37   38 1    
    75   37   39 1    
    76   37  160 1    
    77   38  161 1    
    78   38  162 1    
    79   38  163 1    
    80   39   40 am   BACKBONE|DICT|INTERRES
    81   39  164 1    
    82   40   41 2    
    83   40   42 1    
    84   42   43 1    
    85   42   44 1    
    86   42  165 1    
    87   43  166 1    
    88   43  167 1    
    89   43  168 1    
    90   44   45 am   BACKBONE|DICT|INTERRES
    91   44  169 1    
    92   45   46 2    
    93   45   47 1    
    94   47   48 1    
    95   47   49 1    
    96   47  170 1    
    97   48  171 1    
    98   48  172 1    
    99   48  173 1    
   100   49   50 am   BACKBONE|DICT|INTERRES
   101   49  174 1    
   102   50   51 2    
   103   50   52 1    
   104   52   53 1    
   105   52   54 1    
   106   52  175 1    
   107   53  176 1    
   108   53  177 1    
   109   53  178 1    
   110   54   55 am   BACKBONE|DICT|INTERRES
   111   54  179 1    
   112   55   56 2    
   113   55   57 1    
   114   57   58 1    
   115   57   59 1    
   116   57  180 1    
   117   58  181 1    
   118   58  182 1    
   119   58  183 1    
   120   59   60 am   BACKBONE|DICT|INTERRES
   121   59  184 1    
   122   60   61 2    
   123   60   62 1    
   124   62   63 1    
   125   62   64 1    
   126   62  185 1    
   127   63  186 1    
   128   63  187 1    
   129   63  188 1    
   130   64   65 am   BACKBONE|DICT|INTERRES
   131   64  189 1    
   132   65   66 2    
   133   67   68 2    
   134   67   69 am   BACKBONE|DICT|INTERRES
   135   69   70 1    
   136   69  190 1    
   137   70   71 1    
   138   70   72 1    
   139   70  191 1    
   140   71  192 1    
   141   71  193 1    
   142   71  194 1    
   143   72   73 2    
   144   72   74 am   BACKBONE|DICT|INTERRES
   145   74   75 1    
   146   74  195 1    
   147   75   76 1    
   148   75   77 1    
   149   75  196 1    
   150   76  197 1    
   151   76  198 1    
   152   76  199 1    
   153   77   78 2    
   154   77   79 am   BACKBONE|DICT|INTERRES
   155   79   80 1    
   156   79  200 1    
   157   80   81 1    
   158   80   82 1    
   159   80  201 1    
   160   81  202 1    
   161   81  203 1    
   162   81  204 1    
   163   82   83 2    
   164   82   84 am   BACKBONE|DICT|INTERRES
   165   84   85 1    
   166   84  205 1    
   167   85   86 1    
   168   85   87 1    
   169   85  206 1    
   170   86  207 1    
   171   86  208 1    
   172   86  209 1    
   173   87   88 2    
   174   87   89 am   BACKBONE|DICT|INTERRES
   175   89   90 1    
   176   89  210 1    
   177   90   91 1    
   178   90   92 1    
   179   90  211 1    
   180   91  212 1    
   181   91  213 1    
   182   91  214 1    
   183   92   93 2    
   184   92   94 am   BACKBONE|DICT|INTERRES
   185   94   95 1    
   186   94  215 1    
   187   95   96 1    
   188   95   97 1    
   189   95  216 1    
   190   96  217 1    
   191   96  218 1    
   192   96  219 1    
   193   97   98 2    
   194   97   99 am   BACKBONE|DICT|INTERRES
   195   99  100 1    
   196   99  220 1    
   197  100  101 1    
   198  100  102 1    
   199  100  221 1    
   200  101  222 1    
   201  101  223 1    
   202  101  224 1    
   203  102  103 2    
   204  102  104 am   BACKBONE|DICT|INTERRES
   205  104  105 1    
   206  104  225 1    
   207  105  106 1    
   208  105  107 1    
   209  105  226 1    
   210  106  227 1    
   211  106  228 1    
   212  106  229 1    
   213  107  108 2    
   214  107  109 am   BACKBONE|DICT|INTERRES
   215  109  110 1    
   216  109  230 1    
   217  110  111 1    
   218  110  112 1    
   219  110  231 1    
   220  111  232 1    
   221  111  233 1    
   222  111  234 1    
   223  112  113 2    
   224  112  114 am   BACKBONE|DICT|INTERRES
   225  114  115 1    
   226  114  235 1    
   227  115  116 1    
   228  115  117 1    
   229  115  236 1    
   230  116  237 1    
   231  116  238 1    
   232  116  239 1    
   233  117  118 2    
   234  117  119 am   BACKBONE|DICT|INTERRES
   235  119  120 1    
   236  119  240 1    
   237  120  121 1    
   238  120  124 1    
   239  120  241 1    
   240  121  122 am   BACKBONE|DICT|INTERRES
   241  121  123 2    
   242  122  242 1    
   243  122  243 1    
   244  124  125 1    
   245  124  244 1    
   246  124  245 1    
   247  125  126 1    
   248  126  246 1    
   249  126  247 1    
@<TRIPOS>SUBSTRUCTURE
     1 UNK         1 GROUP             0       ****    0 ROOT    
