@<TRIPOS>MOLECULE
3R540
247   249    1
SMALL
USER_CHARGES


@<TRIPOS>ATOM
      1 CA         -4.5262  -16.6380  -43.1051 C.3       0 UNK        -0.1800 
      2 C          -4.3281  -15.3258  -43.8512 C.2       0 UNK         0.5000 
      3 O          -4.8034  -14.2876  -43.3919 O.2       0 UNK        -0.5000 
      4 N          -3.6409  -15.3659  -45.0009 N.am      1 UNK        -0.5000 
      5 CA         -3.3982  -14.2089  -45.8730 C.3       1 UNK         0.1400 
      6 C6         -2.9360  -14.6426  -47.2887 C.3       23 UNK        -0.0398 
      7 S7         -1.3575  -15.5596  -47.2845 S.3       23 UNK        -0.2404 
      8 C8         -0.9046  -15.5785  -49.0438 C.3       23 UNK        -0.0205 
      9 C9         -1.0822  -16.9576  -49.6622 C.ar      23 UNK        -0.0193 
     10 C10        -2.2771  -17.2943  -50.3040 C.ar      23 UNK        -0.1150 
     11 C11        -2.4157  -18.5313  -50.9403 C.ar      23 UNK        -0.0193 
     12 C12        -1.3567  -19.4434  -50.9107 C.ar      23 UNK        -0.1150 
     13 C13        -0.1498  -19.1150  -50.2863 C.ar      23 UNK        -0.0193 
     14 C14        -0.0257  -17.8752  -49.6497 C.ar      23 UNK        -0.1150 
     15 C15         1.0504  -20.0514  -50.3896 C.3       23 UNK        -0.0205 
     16 S16         0.8093  -21.6579  -49.5660 S.3       23 UNK        -0.2404 
     17 C17         0.8765  -21.1767  -47.8095 C.3       23 UNK        -0.0398 
     18 CA         -0.1350  -21.9325  -46.9140 C.3       11 UNK         0.1400 
     19 N           0.0986  -21.6529  -45.4943 N.am      11 UNK        -0.5000 
     20 C          -0.5143  -22.2648  -44.4710 C.2       10 UNK         0.5000 
     21 O          -1.3040  -23.1986  -44.6059 O.2       10 UNK        -0.5000 
     22 CA         -0.2379  -21.7060  -43.0614 C.3       10 UNK         0.1400 
     23 CB          1.0728  -22.2688  -42.4924 C.3       10 UNK        -0.1800 
     24 N          -0.1994  -20.2427  -43.0330 N.am      10 UNK        -0.5000 
     25 C          -1.2407  -19.4524  -43.3285 C.2       9 UNK         0.5000 
     26 O          -2.3663  -19.8724  -43.5886 O.2       9 UNK        -0.5000 
     27 CA         -0.9713  -17.9406  -43.4121 C.3       9 UNK         0.1400 
     28 CB         -1.0348  -17.2852  -42.0268 C.3       9 UNK        -0.1800 
     29 N           0.2952  -17.6224  -44.0719 N.am      9 UNK        -0.5000 
     30 C           0.5625  -17.9242  -45.3516 C.2       8 UNK         0.5000 
     31 O          -0.2465  -18.4672  -46.1013 O.2       8 UNK        -0.5000 
     32 CA          1.9870  -17.6320  -45.8556 C.3       8 UNK         0.1400 
     33 CB          2.1680  -16.1431  -46.1749 C.3       8 UNK        -0.1800 
     34 N           2.9956  -18.0364  -44.8798 N.am      8 UNK        -0.5000 
     35 C           3.2498  -19.3051  -44.5317 C.2       7 UNK         0.5000 
     36 O           2.7042  -20.2795  -45.0491 O.2       7 UNK        -0.5000 
     37 CA          4.2390  -19.5051  -43.3694 C.3       7 UNK         0.1400 
     38 CB          5.6860  -19.5194  -43.8827 C.3       7 UNK        -0.1800 
     39 N           4.0989  -18.4717  -42.3410 N.am      7 UNK        -0.5000 
     40 C           3.0147  -18.2950  -41.5769 C.2       6 UNK         0.5000 
     41 O           2.0252  -19.0244  -41.6318 O.2       6 UNK        -0.5000 
     42 CA          3.0023  -17.0798  -40.6329 C.3       6 UNK         0.1400 
     43 CB          3.8507  -17.3354  -39.3737 C.3       6 UNK        -0.1800 
     44 N           3.3577  -15.8091  -41.2776 N.am      6 UNK        -0.5000 
     45 C           4.5394  -15.4001  -41.7644 C.2       5 UNK         0.5000 
     46 O           5.5454  -16.1079  -41.8236 O.2       5 UNK        -0.5000 
     47 CA          4.6070  -13.9461  -42.2655 C.3       5 UNK         0.1400 
     48 CB          4.2843  -13.8716  -43.7651 C.3       5 UNK        -0.1800 
     49 N           3.6905  -13.0756  -41.5260 N.am      5 UNK        -0.5000 
     50 C           3.9563  -12.5543  -40.3188 C.2       4 UNK         0.5000 
     51 O           5.0394  -12.6760  -39.7453 O.2       4 UNK        -0.5000 
     52 CA          2.8194  -11.7760  -39.6268 C.3       4 UNK         0.1400 
     53 CB          2.8796  -10.2879  -40.0034 C.3       4 UNK        -0.1800 
     54 N           1.4903  -12.2980  -39.9495 N.am      4 UNK        -0.5000 
     55 C           1.0123  -13.4826  -39.5414 C.2       3 UNK         0.5000 
     56 O           1.6179  -14.2407  -38.7846 O.2       3 UNK        -0.5000 
     57 CA         -0.3576  -13.9127  -40.1038 C.3       3 UNK         0.1400 
     58 CB         -1.4821  -13.5652  -39.1175 C.3       3 UNK        -0.1800 
     59 N          -0.6709  -13.3295  -41.4137 N.am      3 UNK        -0.5000 
     60 C           0.0279  -13.5432  -42.5356 C.2       2 UNK         0.5000 
     61 O           1.0039  -14.2950  -42.5968 O.2       2 UNK        -0.5000 
     62 CA         -0.4657  -12.8076  -43.7866 C.3       2 UNK         0.1400 
     63 CB          0.6727  -12.4948  -44.7765 C.3       2 UNK        -0.1800 
     64 N          -1.4884  -13.6233  -44.4293 N.am      2 UNK        -0.5000 
     65 C          -2.4404  -13.1638  -45.2523 C.2       1 UNK         0.5000 
     66 O          -2.5845  -11.9724  -45.5314 O.2       1 UNK        -0.5000 
     67 C          -1.6025  -21.6609  -47.3112 C.2       11 UNK         0.5000 
     68 O          -2.2433  -22.5381  -47.8887 O.2       11 UNK        -0.5000 
     69 N          -2.1216  -20.4823  -46.9403 N.am      12 UNK        -0.5000 
     70 CA         -3.5088  -20.0805  -47.1718 C.3       12 UNK         0.1400 
     71 CB         -3.6774  -18.6006  -46.8053 C.3       12 UNK        -0.1800 
     72 C          -4.5298  -20.9562  -46.4191 C.2       12 UNK         0.5000 
     73 O          -5.5690  -21.2918  -46.9866 O.2       12 UNK        -0.5000 
     74 N          -4.2120  -21.3481  -45.1764 N.am      13 UNK        -0.5000 
     75 CA         -5.0150  -22.2624  -44.3573 C.3       13 UNK         0.1400 
     76 CB         -4.4650  -22.2898  -42.9238 C.3       13 UNK        -0.1800 
     77 C          -5.0887  -23.6883  -44.9388 C.2       13 UNK         0.5000 
     78 O          -6.1252  -24.3415  -44.8183 O.2       13 UNK        -0.5000 
     79 N          -4.0089  -24.1247  -45.6001 N.am      14 UNK        -0.5000 
     80 CA         -3.9235  -25.3716  -46.3648 C.3       14 UNK         0.1400 
     81 CB         -2.4513  -25.8142  -46.4149 C.3       14 UNK        -0.1800 
     82 C          -4.5151  -25.2540  -47.7884 C.2       14 UNK         0.5000 
     83 O          -4.4165  -26.2092  -48.5611 O.2       14 UNK        -0.5000 
     84 N          -5.1027  -24.0943  -48.1168 N.am      15 UNK        -0.5000 
     85 CA         -5.6283  -23.6568  -49.4090 C.3       15 UNK         0.1400 
     86 CB         -6.7369  -24.5871  -49.9441 C.3       15 UNK        -0.1800 
     87 C          -4.5077  -23.4142  -50.4310 C.2       15 UNK         0.5000 
     88 O          -4.2494  -22.2607  -50.7694 O.2       15 UNK        -0.5000 
     89 N          -3.8868  -24.5017  -50.9153 N.am      16 UNK        -0.5000 
     90 CA         -2.7766  -24.5518  -51.8804 C.3       16 UNK         0.1400 
     91 CB         -1.4956  -23.9829  -51.2393 C.3       16 UNK        -0.1800 
     92 C          -3.0730  -23.8844  -53.2436 C.2       16 UNK         0.5000 
     93 O          -2.1435  -23.5901  -53.9974 O.2       16 UNK        -0.5000 
     94 N          -4.3585  -23.6541  -53.5438 N.am      17 UNK        -0.5000 
     95 CA         -4.8413  -22.7923  -54.6226 C.3       17 UNK         0.1400 
     96 CB         -6.3645  -22.6463  -54.4995 C.3       17 UNK        -0.1800 
     97 C          -4.4486  -23.2401  -56.0390 C.2       17 UNK         0.5000 
     98 O          -4.2971  -22.3872  -56.9126 O.2       17 UNK        -0.5000 
     99 N          -4.2618  -24.5512  -56.2339 N.am      18 UNK        -0.5000 
    100 CA        -3.8065  -25.1412  -57.4932 C.3       18 UNK         0.1400 
    101 CB        -4.0656  -26.6551  -57.4575 C.3       18 UNK        -0.1800 
    102 C         -2.3216  -24.8566  -57.7950 C.2       18 UNK         0.5000 
    103 O         -1.9442  -24.8156  -58.9665 O.2       18 UNK        -0.5000 
    104 N         -1.5108  -24.6716  -56.7445 N.am      19 UNK        -0.5000 
    105 CA        -0.0798  -24.3868  -56.8405 C.3       19 UNK         0.1400 
    106 CB         0.6577  -25.1274  -55.7131 C.3       19 UNK        -0.1800 
    107 C          0.1911  -22.8768  -56.7612 C.2       19 UNK         0.5000 
    108 O          0.9908  -22.3574  -57.5403 O.2       19 UNK        -0.5000 
    109 N         -0.4825  -22.2005  -55.8222 N.am      20 UNK        -0.5000 
    110 CA        -0.3212  -20.7742  -55.5396 C.3       20 UNK         0.1400 
    111 CB        -0.7791  -20.5180  -54.0983 C.3       20 UNK        -0.1800 
    112 C         -1.0774  -19.8556  -56.5190 C.2       20 UNK         0.5000 
    113 O         -0.8148  -18.6527  -56.5310 O.2       20 UNK        -0.5000 
    114 N         -1.9998  -20.4294  -57.3064 N.am      21 UNK        -0.5000 
    115 CA        -2.8921  -19.7667  -58.2653 C.3       21 UNK         0.1400 
    116 CB        -2.0959  -19.0732  -59.3913 C.3       21 UNK        -0.1800 
    117 C         -3.9277  -18.8417  -57.5883 C.2       21 UNK         0.5000 
    118 O         -4.3449  -17.8440  -58.1795 O.2       21 UNK        -0.5000 
    119 N         -4.3392  -19.2025  -56.3652 N.am      22 UNK        -0.5000 
    120 CA        -5.3735  -18.5033  -55.5808 C.3       22 UNK         0.1400 
    121 C         -6.8318  -18.7969  -56.0445 C.2       22 UNK         0.5000 
    122 N         -7.0708  -19.7428  -56.9456 N.am      22 UNK        -0.7600 
    123 O         -7.7654  -18.1464  -55.5833 O.2       22 UNK        -0.5000 
    124 C124       -5.2237  -18.7466  -54.0547 C.3       23 UNK        -0.0398 
    125 S125       -3.5987  -18.2304  -53.4102 S.3       23 UNK        -0.2404 
    126 C126       -3.6885  -18.8594  -51.7045 C.3       23 UNK        -0.0205 
    127 H127       -4.1221  -17.4892  -43.6515 H         1 UNK         0.0600 
    128 H128       -5.5892  -16.8186  -42.9459 H         1 UNK         0.0600 
    129 H129       -4.0417  -16.5916  -42.1305 H         1 UNK         0.0600 
    130 H130       -3.2726  -16.2418  -45.3409 H         1 UNK         0.3000 
    131 H131       -4.3583  -13.7032  -45.9981 H         1 UNK         0.0600 
    132 H132       -3.6967  -15.2733  -47.7506 H         1 UNK         0.0800 
    133 H133       -2.8400  -13.7678  -47.9342 H         1 UNK         0.0800 
    134 H134        0.1371  -15.2681  -49.1363 H         1 UNK         0.0800 
    135 H135       -1.4849  -14.8391  -49.5971 H         1 UNK         0.0800 
    136 H136       -3.0885  -16.5810  -50.3364 H         1 UNK         0.1150 
    137 H137       -1.4589  -20.3973  -51.4077 H         1 UNK         0.1150 
    138 H138        0.9062  -17.6056  -49.1735 H         1 UNK         0.1150 
    139 H139        1.9483  -19.5786  -49.9888 H         1 UNK         0.0800 
    140 H140        1.2538  -20.2341  -51.4455 H         1 UNK         0.0800 
    141 H141        0.7313  -20.1014  -47.7285 H         1 UNK         0.0800 
    142 H142        1.8919  -21.3679  -47.4601 H         1 UNK         0.0800 
    143 H143        0.0406  -23.0017  -47.0516 H         1 UNK         0.0600 
    144 H144        0.7710  -20.9230  -45.2858 H         1 UNK         0.3000 
    145 H145       -1.0534  -22.0280  -42.4110 H         1 UNK         0.0600 
    146 H146        1.2440  -21.9166  -41.4749 H         1 UNK         0.0600 
    147 H147        1.0471  -23.3587  -42.4606 H         1 UNK         0.0600 
    148 H148        1.9332  -21.9787  -43.0949 H         1 UNK         0.0600 
    149 H149        0.6794  -19.8108  -42.7616 H         1 UNK         0.3000 
    150 H150       -1.7667  -17.5092  -44.0207 H         1 UNK         0.0600 
    151 H151       -0.1726  -17.5406  -41.4126 H         1 UNK         0.0600 
    152 H152       -1.9253  -17.6006  -41.4820 H         1 UNK         0.0600 
    153 H153       -1.0810  -16.2023  -42.1162 H         1 UNK         0.0600 
    154 H154        1.0133  -17.1950  -43.5073 H         1 UNK         0.3000 
    155 H155        2.1495  -18.2026  -46.7724 H         1 UNK         0.0600 
    156 H156        1.9201  -15.5222  -45.3154 H         1 UNK         0.0600 
    157 H157        1.5238  -15.8399  -46.9990 H         1 UNK         0.0600 
    158 H158        3.1933  -15.9193  -46.4701 H         1 UNK         0.0600 
    159 H159        3.4905  -17.3005  -44.3995 H         1 UNK         0.3000 
    160 H160        4.0257  -20.4729  -42.9110 H         1 UNK         0.0600 
    161 H161        5.9663  -18.5631  -44.3264 H         1 UNK         0.0600 
    162 H162        5.8230  -20.2889  -44.6436 H         1 UNK         0.0600 
    163 H163        6.3874  -19.7321  -43.0757 H         1 UNK         0.0600 
    164 H164        4.8574  -17.8018  -42.2386 H         1 UNK         0.3000 
    165 H165        1.9706  -16.9539  -40.3012 H         1 UNK         0.0600 
    166 H166        3.7790  -16.4990  -38.6780 H         1 UNK         0.0600 
    167 H167        4.9042  -17.4859  -39.6103 H         1 UNK         0.0600 
    168 H168        3.5053  -18.2263  -38.8477 H         1 UNK         0.0600 
    169 H169        2.5887  -15.1563  -41.3679 H         1 UNK         0.3000 
    170 H170        5.6306  -13.5925  -42.1238 H         1 UNK         0.0600 
    171 H171        4.9538  -14.5100  -44.3430 H         1 UNK         0.0600 
    172 H172        3.2646  -14.1905  -43.9736 H         1 UNK         0.0600 
    173 H173        4.3986  -12.8551  -44.1419 H         1 UNK         0.0600 
    174 H174        2.7655  -12.9604  -41.9155 H         1 UNK         0.3000 
    175 H175        2.9670  -11.8621  -38.5481 H         1 UNK         0.0600 
    176 H176        2.7193  -10.1350  -41.0714 H         1 UNK         0.0600 
    177 H177        2.1258   -9.7136  -39.4643 H         1 UNK         0.0600 
    178 H178        3.8517   -9.8611  -39.7530 H         1 UNK         0.0600 
    179 H179        0.9140  -11.7318  -40.5541 H         1 UNK         0.3000 
    180 H180       -0.3291  -14.9978  -40.2155 H         1 UNK         0.0600 
    181 H181       -1.5785  -12.4875  -38.9803 H         1 UNK         0.0600 
    182 H182       -1.2927  -14.0056  -38.1375 H         1 UNK         0.0600 
    183 H183       -2.4423  -13.9482  -39.4636 H         1 UNK         0.0600 
    184 H184       -1.4768  -12.7215  -41.4508 H         1 UNK         0.3000 
    185 H185       -0.9054  -11.8615  -43.4636 H         1 UNK         0.0600 
    186 H186        0.3244  -11.8552  -45.5874 H         1 UNK         0.0600 
    187 H187        1.4930  -11.9733  -44.2819 H         1 UNK         0.0600 
    188 H188        1.0785  -13.4006  -45.2240 H         1 UNK         0.0600 
    189 H189       -1.4433  -14.6152  -44.2454 H         1 UNK         0.3000 
    190 H190       -1.5120  -19.7956  -46.5019 H         1 UNK         0.3000 
    191 H191       -3.7078  -20.1887  -48.2405 H         1 UNK         0.0600 
    192 H192       -4.7068  -18.2712  -46.9513 H         1 UNK         0.0600 
    193 H193       -3.0428  -17.9753  -47.4320 H         1 UNK         0.0600 
    194 H194       -3.4109  -18.4157  -45.7656 H         1 UNK         0.0600 
    195 H195       -3.3734  -20.9694  -44.7429 H         1 UNK         0.3000 
    196 H196       -6.0329  -21.8690  -44.3212 H         1 UNK         0.0600 
    197 H197       -3.4361  -22.6486  -42.8953 H         1 UNK         0.0600 
    198 H198       -4.4868  -21.2971  -42.4740 H         1 UNK         0.0600 
    199 H199       -5.0602  -22.9472  -42.2889 H         1 UNK         0.0600 
    200 H200       -3.1819  -23.5377  -45.6147 H         1 UNK         0.3000 
    201 H201       -4.4905  -26.1453  -45.8438 H         1 UNK         0.0600 
    202 H202       -1.8336  -25.0925  -46.9504 H         1 UNK         0.0600 
    203 H203       -2.3443  -26.7760  -46.9177 H         1 UNK         0.0600 
    204 H204       -2.0392  -25.9261  -45.4118 H         1 UNK         0.0600 
    205 H205       -5.0862  -23.3620  -47.4179 H         1 UNK         0.3000 
    206 H206       -6.0941  -22.6880  -49.2238 H         1 UNK         0.0600 
    207 H207       -7.5480  -24.6819  -49.2222 H         1 UNK         0.0600 
    208 H208       -7.1666  -24.1851  -50.8623 H         1 UNK         0.0600 
    209 H209       -6.3746  -25.5899  -50.1693 H         1 UNK         0.0600 
    210 H210       -4.1536  -25.3908  -50.5066 H         1 UNK         0.3000 
    211 H211       -2.6025  -25.6072  -52.0922 H         1 UNK         0.0600 
    212 H212       -0.6273  -24.1351  -51.8814 H         1 UNK         0.0600 
    213 H213       -1.2824  -24.4647  -50.2849 H         1 UNK         0.0600 
    214 H214       -1.5826  -22.9114  -51.0565 H         1 UNK         0.0600 
    215 H215       -5.0477  -23.9535  -52.8708 H         1 UNK         0.3000 
    216 H216       -4.3893  -21.8113  -54.4686 H         1 UNK         0.0600 
    217 H217       -6.8681  -23.6100  -54.5837 H         1 UNK         0.0600 
    218 H218       -6.7632  -22.0001  -55.2816 H         1 UNK         0.0600 
    219 H219       -6.6423  -22.2040  -53.5424 H         1 UNK         0.0600 
    220 H220       -4.4073  -25.1787  -55.4567 H         1 UNK         0.3000 
    221 H221       -4.3967  -24.7132  -58.3064 H         1 UNK         0.0600 
    222 H222       -5.1248  -26.8709  -57.3157 H         1 UNK         0.0600 
    223 H223       -3.5124  -27.1397  -56.6520 H         1 UNK         0.0600 
    224 H224       -3.7620  -27.1256  -58.3937 H         1 UNK         0.0600 
    225 H225       -1.9108  -24.6596  -55.8143 H         1 UNK         0.3000 
    226 H226        0.3135  -24.7510  -57.7921 H         1 UNK         0.0600 
    227 H227        0.3103  -24.8168  -54.7268 H         1 UNK         0.0600 
    228 H228        0.5151  -26.2051  -55.7930 H         1 UNK         0.0600 
    229 H229        1.7308  -24.9372  -55.7583 H         1 UNK         0.0600 
    230 H230       -1.1015  -22.7134  -55.1972 H         1 UNK         0.3000 
    231 H231        0.7389  -20.5215  -55.6077 H         1 UNK         0.0600 
    232 H232       -1.8363  -20.7506  -53.9648 H         1 UNK         0.0600 
    233 H233       -0.6338  -19.4734  -53.8198 H         1 UNK         0.0600 
    234 H234       -0.2125  -21.1259  -53.3927 H         1 UNK         0.0600 
    235 H235       -2.1574  -21.4219  -57.1936 H         1 UNK         0.3000 
    236 H236       -3.4708  -20.5646  -58.7322 H         1 UNK         0.0600 
    237 H237       -1.5567  -18.1972  -59.0303 H         1 UNK         0.0600 
    238 H238       -1.3714  -19.7538  -59.8385 H         1 UNK         0.0600 
    239 H239       -2.7603  -18.7388  -60.1888 H         1 UNK         0.0600 
    240 H240       -3.9510  -20.0417  -55.9635 H         1 UNK         0.3000 
    241 H241       -5.2318  -17.4330  -55.7433 H         1 UNK         0.0600 
    242 H242       -8.0182  -19.9148  -57.2436 H         1 UNK         0.3800 
    243 H243       -6.3155  -20.2840  -57.3355 H         1 UNK         0.3800 
    244 H244       -5.3854  -19.7974  -53.8147 H         1 UNK         0.0800 
    245 H245       -5.9837  -18.1890  -53.5041 H         1 UNK         0.0800 
    246 H246       -3.8433  -19.9374  -51.7302 H         1 UNK         0.0800 
    247 H247       -4.5529  -18.4300  -51.1959 H         1 UNK         0.0800 
@<TRIPOS>BOND
     1    1    2 1    
     2    1  127 1    
     3    1  128 1    
     4    1  129 1    
     5    2    3 2    
     6    2    4 am   BACKBONE|DICT|INTERRES
     7    4    5 1    
     8    4  130 1    
     9    5    6 1    
    10    5   65 1    
    11    5  131 1    
    12    6    7 1    
    13    6  132 1    
    14    6  133 1    
    15    7    8 1    
    16    8    9 1    
    17    8  134 1    
    18    8  135 1    
    19    9   10 ar   
    20    9   14 ar   
    21   10   11 ar   
    22   10  136 1    
    23   11   12 ar   
    24   11  126 1    
    25   12   13 ar   
    26   12  137 1    
    27   13   14 ar   
    28   13   15 1    
    29   14  138 1    
    30   15   16 1    
    31   15  139 1    
    32   15  140 1    
    33   16   17 1    
    34   17   18 1    
    35   17  141 1    
    36   17  142 1    
    37   18   19 1    
    38   18   67 1    
    39   18  143 1    
    40   19   20 am   BACKBONE|DICT|INTERRES
    41   19  144 1    
    42   20   21 2    
    43   20   22 1    
    44   22   23 1    
    45   22   24 1    
    46   22  145 1    
    47   23  146 1    
    48   23  147 1    
    49   23  148 1    
    50   24   25 am   BACKBONE|DICT|INTERRES
    51   24  149 1    
    52   25   26 2    
    53   25   27 1    
    54   27   28 1    
    55   27   29 1    
    56   27  150 1    
    57   28  151 1    
    58   28  152 1    
    59   28  153 1    
    60   29   30 am   BACKBONE|DICT|INTERRES
    61   29  154 1    
    62   30   31 2    
    63   30   32 1    
    64   32   33 1    
    65   32   34 1    
    66   32  155 1    
    67   33  156 1    
    68   33  157 1    
    69   33  158 1    
    70   34   35 am   BACKBONE|DICT|INTERRES
    71   34  159 1    
    72   35   36 2    
    73   35   37 1    
    74   37   38 1    
    75   37   39 1    
    76   37  160 1    
    77   38  161 1    
    78   38  162 1    
    79   38  163 1    
    80   39   40 am   BACKBONE|DICT|INTERRES
    81   39  164 1    
    82   40   41 2    
    83   40   42 1    
    84   42   43 1    
    85   42   44 1    
    86   42  165 1    
    87   43  166 1    
    88   43  167 1    
    89   43  168 1    
    90   44   45 am   BACKBONE|DICT|INTERRES
    91   44  169 1    
    92   45   46 2    
    93   45   47 1    
    94   47   48 1    
    95   47   49 1    
    96   47  170 1    
    97   48  171 1    
    98   48  172 1    
    99   48  173 1    
   100   49   50 am   BACKBONE|DICT|INTERRES
   101   49  174 1    
   102   50   51 2    
   103   50   52 1    
   104   52   53 1    
   105   52   54 1    
   106   52  175 1    
   107   53  176 1    
   108   53  177 1    
   109   53  178 1    
   110   54   55 am   BACKBONE|DICT|INTERRES
   111   54  179 1    
   112   55   56 2    
   113   55   57 1    
   114   57   58 1    
   115   57   59 1    
   116   57  180 1    
   117   58  181 1    
   118   58  182 1    
   119   58  183 1    
   120   59   60 am   BACKBONE|DICT|INTERRES
   121   59  184 1    
   122   60   61 2    
   123   60   62 1    
   124   62   63 1    
   125   62   64 1    
   126   62  185 1    
   127   63  186 1    
   128   63  187 1    
   129   63  188 1    
   130   64   65 am   BACKBONE|DICT|INTERRES
   131   64  189 1    
   132   65   66 2    
   133   67   68 2    
   134   67   69 am   BACKBONE|DICT|INTERRES
   135   69   70 1    
   136   69  190 1    
   137   70   71 1    
   138   70   72 1    
   139   70  191 1    
   140   71  192 1    
   141   71  193 1    
   142   71  194 1    
   143   72   73 2    
   144   72   74 am   BACKBONE|DICT|INTERRES
   145   74   75 1    
   146   74  195 1    
   147   75   76 1    
   148   75   77 1    
   149   75  196 1    
   150   76  197 1    
   151   76  198 1    
   152   76  199 1    
   153   77   78 2    
   154   77   79 am   BACKBONE|DICT|INTERRES
   155   79   80 1    
   156   79  200 1    
   157   80   81 1    
   158   80   82 1    
   159   80  201 1    
   160   81  202 1    
   161   81  203 1    
   162   81  204 1    
   163   82   83 2    
   164   82   84 am   BACKBONE|DICT|INTERRES
   165   84   85 1    
   166   84  205 1    
   167   85   86 1    
   168   85   87 1    
   169   85  206 1    
   170   86  207 1    
   171   86  208 1    
   172   86  209 1    
   173   87   88 2    
   174   87   89 am   BACKBONE|DICT|INTERRES
   175   89   90 1    
   176   89  210 1    
   177   90   91 1    
   178   90   92 1    
   179   90  211 1    
   180   91  212 1    
   181   91  213 1    
   182   91  214 1    
   183   92   93 2    
   184   92   94 am   BACKBONE|DICT|INTERRES
   185   94   95 1    
   186   94  215 1    
   187   95   96 1    
   188   95   97 1    
   189   95  216 1    
   190   96  217 1    
   191   96  218 1    
   192   96  219 1    
   193   97   98 2    
   194   97   99 am   BACKBONE|DICT|INTERRES
   195   99  100 1    
   196   99  220 1    
   197  100  101 1    
   198  100  102 1    
   199  100  221 1    
   200  101  222 1    
   201  101  223 1    
   202  101  224 1    
   203  102  103 2    
   204  102  104 am   BACKBONE|DICT|INTERRES
   205  104  105 1    
   206  104  225 1    
   207  105  106 1    
   208  105  107 1    
   209  105  226 1    
   210  106  227 1    
   211  106  228 1    
   212  106  229 1    
   213  107  108 2    
   214  107  109 am   BACKBONE|DICT|INTERRES
   215  109  110 1    
   216  109  230 1    
   217  110  111 1    
   218  110  112 1    
   219  110  231 1    
   220  111  232 1    
   221  111  233 1    
   222  111  234 1    
   223  112  113 2    
   224  112  114 am   BACKBONE|DICT|INTERRES
   225  114  115 1    
   226  114  235 1    
   227  115  116 1    
   228  115  117 1    
   229  115  236 1    
   230  116  237 1    
   231  116  238 1    
   232  116  239 1    
   233  117  118 2    
   234  117  119 am   BACKBONE|DICT|INTERRES
   235  119  120 1    
   236  119  240 1    
   237  120  121 1    
   238  120  124 1    
   239  120  241 1    
   240  121  122 am   BACKBONE|DICT|INTERRES
   241  121  123 2    
   242  122  242 1    
   243  122  243 1    
   244  124  125 1    
   245  124  244 1    
   246  124  245 1    
   247  125  126 1    
   248  126  246 1    
   249  126  247 1    
@<TRIPOS>SUBSTRUCTURE
     1 UNK         1 GROUP             0       ****    0 ROOT    
