@<TRIPOS>MOLECULE
3R540
247   249    1
SMALL
USER_CHARGES


@<TRIPOS>ATOM
      1 CA         -1.9992  -15.3154  -40.1371 C.3       0 UNK        -0.1800 
      2 C          -1.6814  -14.2589  -41.1852 C.2       0 UNK         0.5000 
      3 O          -1.3813  -13.1167  -40.8358 O.2       0 UNK        -0.5000 
      4 N          -1.7377  -14.6331  -42.4695 N.am      1 UNK        -0.5000 
      5 CA         -1.4527  -13.7805  -43.6313 C.3       1 UNK         0.1400 
      6 C6         -2.1503  -14.3259  -44.9038 C.3       23 UNK        -0.0398 
      7 S7         -2.4229  -13.0369  -46.1689 S.3       23 UNK        -0.2404 
      8 C8         -4.1153  -13.4144  -46.7271 C.3       23 UNK        -0.0205 
      9 C9         -4.1821  -14.7308  -47.4886 C.ar      23 UNK        -0.0193 
     10 C10        -3.9197  -14.7654  -48.8601 C.ar      23 UNK        -0.1150 
     11 C11        -3.9803  -15.9713  -49.5636 C.ar      23 UNK        -0.0193 
     12 C12        -4.2959  -17.1507  -48.8812 C.ar      23 UNK        -0.1150 
     13 C13        -4.5697  -17.1333  -47.5078 C.ar      23 UNK        -0.0193 
     14 C14        -4.5202  -15.9139  -46.8261 C.ar      23 UNK        -0.1150 
     15 C15        -4.9513  -18.3907  -46.7252 C.3       23 UNK        -0.0205 
     16 S16        -4.2485  -19.9484  -47.3678 S.3       23 UNK        -0.2404 
     17 C17        -4.3576  -21.0312  -45.9011 C.3       23 UNK        -0.0398 
     18 CA         -3.0434  -21.8340  -45.6772 C.3       11 UNK         0.1400 
     19 N          -2.2785  -21.3701  -44.5034 N.am      11 UNK        -0.5000 
     20 C          -1.0699  -21.8156  -44.1218 C.2       10 UNK         0.5000 
     21 O          -0.4752  -22.7397  -44.6777 O.2       10 UNK        -0.5000 
     22 CA         -0.4172  -21.0956  -42.9315 C.3       10 UNK         0.1400 
     23 CB          0.7041  -21.9258  -42.2817 C.3       10 UNK        -0.1800 
     24 N           0.1471  -19.8503  -43.4294 N.am      10 UNK        -0.5000 
     25 C          -0.2033  -18.6216  -43.0344 C.2       9 UNK         0.5000 
     26 O          -0.9529  -18.3836  -42.0871 O.2       9 UNK        -0.5000 
     27 CA          0.3263  -17.4587  -43.8933 C.3       9 UNK         0.1400 
     28 CB          1.7376  -17.0445  -43.4539 C.3       9 UNK        -0.1800 
     29 N           0.3213  -17.7714  -45.3233 N.am      9 UNK        -0.5000 
     30 C          -0.7736  -18.0808  -46.0347 C.2       8 UNK         0.5000 
     31 O          -1.9086  -18.0653  -45.5621 O.2       8 UNK        -0.5000 
     32 CA         -0.5618  -18.5097  -47.4957 C.3       8 UNK         0.1400 
     33 CB         -0.5064  -17.2821  -48.4141 C.3       8 UNK        -0.1800 
     34 N           0.6749  -19.2797  -47.6365 N.am      8 UNK        -0.5000 
     35 C           0.7436  -20.6181  -47.6473 C.2       7 UNK         0.5000 
     36 O          -0.2422  -21.3489  -47.6656 O.2       7 UNK        -0.5000 
     37 CA          2.1410  -21.2700  -47.6550 C.3       7 UNK         0.1400 
     38 CB          2.4772  -21.8141  -49.0527 C.3       7 UNK        -0.1800 
     39 N           3.2165  -20.3785  -47.2215 N.am      7 UNK        -0.5000 
     40 C           3.3963  -19.9494  -45.9649 C.2       6 UNK         0.5000 
     41 O           2.6805  -20.2780  -45.0185 O.2       6 UNK        -0.5000 
     42 CA          4.5300  -18.9244  -45.7514 C.3       6 UNK         0.1400 
     43 CB          5.8611  -19.6427  -45.4852 C.3       6 UNK        -0.1800 
     44 N           4.7005  -17.9827  -46.8671 N.am      6 UNK        -0.5000 
     45 C           3.7364  -17.1848  -47.3466 C.2       5 UNK         0.5000 
     46 O           2.5791  -17.2005  -46.9252 O.2       5 UNK        -0.5000 
     47 CA          4.1052  -16.2791  -48.5372 C.3       5 UNK         0.1400 
     48 CB          4.0782  -17.0939  -49.8404 C.3       5 UNK        -0.1800 
     49 N           3.1862  -15.1471  -48.6816 N.am      5 UNK        -0.5000 
     50 C           3.0385  -14.1561  -47.7925 C.2       4 UNK         0.5000 
     51 O           3.7505  -14.0325  -46.7923 O.2       4 UNK        -0.5000 
     52 CA          1.9265  -13.1309  -48.0961 C.3       4 UNK         0.1400 
     53 CB          0.5632  -13.8075  -48.3314 C.3       4 UNK        -0.1800 
     54 N           1.7819  -12.1903  -46.9883 N.am      4 UNK        -0.5000 
     55 C           2.3011  -10.9570  -46.9445 C.2       3 UNK         0.5000 
     56 O           2.9181  -10.4420  -47.8788 O.2       3 UNK        -0.5000 
     57 CA          2.0928  -10.1472  -45.6469 C.3       3 UNK         0.1400 
     58 CB          0.9490   -9.1365  -45.8253 C.3       3 UNK        -0.1800 
     59 N           1.7993  -10.9871  -44.4844 N.am      3 UNK        -0.5000 
     60 C           2.6952  -11.7499  -43.8426 C.2       2 UNK         0.5000 
     61 O           3.9027  -11.7285  -44.0836 O.2       2 UNK        -0.5000 
     62 CA          2.1571  -12.7000  -42.7500 C.3       2 UNK         0.1400 
     63 CB          2.4990  -12.1652  -41.3504 C.3       2 UNK        -0.1800 
     64 N           0.7129  -12.9522  -42.8156 N.am      2 UNK        -0.5000 
     65 C           0.0695  -13.5691  -43.8153 C.2       1 UNK         0.5000 
     66 O           0.6383  -13.9651  -44.8318 O.2       1 UNK        -0.5000 
     67 C          -3.3066  -23.3554  -45.7270 C.2       11 UNK         0.5000 
     68 O          -3.5458  -23.8859  -46.8117 O.2       11 UNK        -0.5000 
     69 N          -3.2164  -24.0468  -44.5824 N.am      12 UNK        -0.5000 
     70 CA         -3.2505  -25.5071  -44.4788 C.3       12 UNK         0.1400 
     71 CB         -3.1941  -25.9065  -42.9975 C.3       12 UNK        -0.1800 
     72 C          -2.1258  -26.2083  -45.2709 C.2       12 UNK         0.5000 
     73 O          -2.3446  -27.3108  -45.7728 O.2       12 UNK        -0.5000 
     74 N          -0.9685  -25.5452  -45.4258 N.am      13 UNK        -0.5000 
     75 CA          0.1497  -26.0113  -46.2527 C.3       13 UNK         0.1400 
     76 CB          1.3978  -25.1763  -45.9325 C.3       13 UNK        -0.1800 
     77 C          -0.1585  -25.9628  -47.7636 C.2       13 UNK         0.5000 
     78 O           0.4282  -26.7294  -48.5274 O.2       13 UNK        -0.5000 
     79 N          -1.0957  -25.0911  -48.1572 N.am      14 UNK        -0.5000 
     80 CA         -1.6461  -24.9709  -49.5066 C.3       14 UNK         0.1400 
     81 CB         -1.7949  -23.4751  -49.8359 C.3       14 UNK        -0.1800 
     82 C          -2.9931  -25.7126  -49.6381 C.2       14 UNK         0.5000 
     83 O          -3.7291  -25.4599  -50.5923 O.2       14 UNK        -0.5000 
     84 N          -3.3216  -26.5787  -48.6641 N.am      15 UNK        -0.5000 
     85 CA         -4.5514  -27.3740  -48.5493 C.3       15 UNK         0.1400 
     86 CB         -4.5942  -28.4539  -49.6502 C.3       15 UNK        -0.1800 
     87 C          -5.8411  -26.5238  -48.5050 C.2       15 UNK         0.5000 
     88 O          -6.9046  -27.0020  -48.9024 O.2       15 UNK        -0.5000 
     89 N          -5.7140  -25.2694  -48.0453 N.am      16 UNK        -0.5000 
     90 CA         -6.7295  -24.2136  -48.0220 C.3       16 UNK         0.1400 
     91 CB         -7.8817  -24.5763  -47.0629 C.3       16 UNK        -0.1800 
     92 C          -7.2233  -23.7828  -49.4222 C.2       16 UNK         0.5000 
     93 O          -8.2861  -23.1679  -49.5242 O.2       16 UNK        -0.5000 
     94 N          -6.4482  -24.0824  -50.4775 N.am      17 UNK        -0.5000 
     95 CA         -6.7614  -23.7093  -51.8598 C.3       17 UNK         0.1400 
     96 CB         -5.9421  -24.5814  -52.8228 C.3       17 UNK        -0.1800 
     97 C          -6.5074  -22.2183  -52.1471 C.2       17 UNK         0.5000 
     98 O          -7.1132  -21.6734  -53.0708 O.2       17 UNK        -0.5000 
     99 N          -5.6131  -21.5977  -51.3607 N.am      18 UNK        -0.5000 
    100 CA        -5.1850  -20.1927  -51.3663 C.3       18 UNK         0.1400 
    101 CB        -6.3700  -19.2455  -51.0921 C.3       18 UNK        -0.1800 
    102 C         -4.4034  -19.7767  -52.6264 C.2       18 UNK         0.5000 
    103 O         -3.2687  -19.3093  -52.5154 O.2       18 UNK        -0.5000 
    104 N         -4.9954  -19.9953  -53.8062 N.am      19 UNK        -0.5000 
    105 CA        -4.4163  -19.7144  -55.1223 C.3       19 UNK         0.1400 
    106 CB        -5.4778  -19.9717  -56.2013 C.3       19 UNK        -0.1800 
    107 C         -3.1402  -20.5261  -55.4149 C.2       19 UNK         0.5000 
    108 O         -2.2813  -20.0574  -56.1605 O.2       19 UNK        -0.5000 
    109 N         -3.0132  -21.7021  -54.7842 N.am      20 UNK        -0.5000 
    110 CA        -1.8199  -22.5487  -54.8221 C.3       20 UNK         0.1400 
    111 CB        -2.1467  -23.8995  -54.1666 C.3       20 UNK        -0.1800 
    112 C         -0.5853  -21.9022  -54.1577 C.2       20 UNK         0.5000 
    113 O          0.5384  -22.2567  -54.5158 O.2       20 UNK        -0.5000 
    114 N         -0.8095  -20.9679  -53.2222 N.am      21 UNK        -0.5000 
    115 CA         0.2345  -20.1753  -52.5789 C.3       21 UNK         0.1400 
    116 CB        -0.0886  -20.0156  -51.0860 C.3       21 UNK        -0.1800 
    117 C          0.3678  -18.7989  -53.2474 C.2       21 UNK         0.5000 
    118 O          1.4791  -18.4041  -53.6029 O.2       21 UNK        -0.5000 
    119 N         -0.7592  -18.0884  -53.3864 N.am      22 UNK        -0.5000 
    120 CA        -0.7990  -16.6939  -53.8583 C.3       22 UNK         0.1400 
    121 C         -0.7052  -16.5112  -55.4007 C.2       22 UNK         0.5000 
    122 N         -0.8730  -17.5410  -56.2197 N.am      22 UNK        -0.7600 
    123 O         -0.4586  -15.4028  -55.8690 O.2       22 UNK        -0.5000 
    124 C124       -2.0139  -15.9268  -53.2795 C.3       23 UNK        -0.0398 
    125 S125       -1.9644  -15.8330  -51.4567 S.3       23 UNK        -0.2404 
    126 C126       -3.7301  -15.9908  -51.0636 C.3       23 UNK        -0.0205 
    127 H127       -1.1453  -15.4562  -39.4762 H         1 UNK         0.0600 
    128 H128       -2.2392  -16.2768  -40.5897 H         1 UNK         0.0600 
    129 H129       -2.8500  -15.0024  -39.5343 H         1 UNK         0.0600 
    130 H130       -1.9809  -15.5906  -42.6797 H         1 UNK         0.3000 
    131 H131       -1.8828  -12.7988  -43.4206 H         1 UNK         0.0600 
    132 H132       -1.6059  -15.1598  -45.3495 H         1 UNK         0.0800 
    133 H133       -3.1231  -14.7270  -44.6224 H         1 UNK         0.0800 
    134 H134       -4.4605  -12.6032  -47.3697 H         1 UNK         0.0800 
    135 H135       -4.7915  -13.4298  -45.8710 H         1 UNK         0.0800 
    136 H136       -3.6660  -13.8533  -49.3819 H         1 UNK         0.1150 
    137 H137       -4.3321  -18.0804  -49.4252 H         1 UNK         0.1150 
    138 H138       -4.7428  -15.8888  -45.7693 H         1 UNK         0.1150 
    139 H139       -6.0380  -18.4764  -46.7034 H         1 UNK         0.0800 
    140 H140       -4.6270  -18.2664  -45.6912 H         1 UNK         0.0800 
    141 H141       -5.2227  -21.6772  -46.0542 H         1 UNK         0.0800 
    142 H142       -4.6053  -20.4431  -45.0179 H         1 UNK         0.0800 
    143 H143       -2.3899  -21.6589  -46.5285 H         1 UNK         0.0600 
    144 H144       -2.6678  -20.5787  -44.0115 H         1 UNK         0.3000 
    145 H145       -1.1893  -20.9119  -42.1817 H         1 UNK         0.0600 
    146 H146        1.1225  -21.4097  -41.4177 H         1 UNK         0.0600 
    147 H147        0.3276  -22.8894  -41.9365 H         1 UNK         0.0600 
    148 H148        1.5198  -22.1203  -42.9797 H         1 UNK         0.0600 
    149 H149        0.7973  -19.9434  -44.2038 H         1 UNK         0.3000 
    150 H150       -0.3378  -16.6086  -43.7488 H         1 UNK         0.0600 
    151 H151        2.4334  -17.8816  -43.5005 H         1 UNK         0.0600 
    152 H152        1.7315  -16.6799  -42.4262 H         1 UNK         0.0600 
    153 H153        2.1300  -16.2437  -44.0816 H         1 UNK         0.0600 
    154 H154        1.2124  -17.7082  -45.8083 H         1 UNK         0.3000 
    155 H155       -1.4203  -19.1130  -47.7957 H         1 UNK         0.0600 
    156 H156        0.3840  -16.6840  -48.2319 H         1 UNK         0.0600 
    157 H157       -1.3728  -16.6373  -48.2618 H         1 UNK         0.0600 
    158 H158       -0.5007  -17.5751  -49.4625 H         1 UNK         0.0600 
    159 H159        1.5333  -18.7437  -47.5859 H         1 UNK         0.3000 
    160 H160        2.1050  -22.1119  -46.9617 H         1 UNK         0.0600 
    161 H161        2.5556  -21.0132  -49.7891 H         1 UNK         0.0600 
    162 H162        1.7081  -22.5061  -49.3987 H         1 UNK         0.0600 
    163 H163        3.4211  -22.3593  -49.0469 H         1 UNK         0.0600 
    164 H164        3.8473  -20.0465  -47.9359 H         1 UNK         0.3000 
    165 H165        4.2805  -18.3375  -44.8662 H         1 UNK         0.0600 
    166 H166        6.6498  -18.9330  -45.2347 H         1 UNK         0.0600 
    167 H167        6.1891  -20.2183  -46.3516 H         1 UNK         0.0600 
    168 H168        5.7706  -20.3344  -44.6465 H         1 UNK         0.0600 
    169 H169        5.6244  -17.9312  -47.2718 H         1 UNK         0.3000 
    170 H170        5.1114  -15.8870  -48.3786 H         1 UNK         0.0600 
    171 H171        4.7795  -17.9282  -49.7997 H         1 UNK         0.0600 
    172 H172        3.0880  -17.5078  -50.0365 H         1 UNK         0.0600 
    173 H173        4.3592  -16.4794  -50.6959 H         1 UNK         0.0600 
    174 H174        2.5563  -15.1863  -49.4679 H         1 UNK         0.3000 
    175 H175        2.2059  -12.5998  -49.0083 H         1 UNK         0.0600 
    176 H176        0.2673  -14.4215  -47.4798 H         1 UNK         0.0600 
    177 H177       -0.2201  -13.0665  -48.4904 H         1 UNK         0.0600 
    178 H178        0.5760  -14.4459  -49.2149 H         1 UNK         0.0600 
    179 H179        1.3675  -12.5814  -46.1486 H         1 UNK         0.3000 
    180 H180        3.0133   -9.5923  -45.4521 H         1 UNK         0.0600 
    181 H181       -0.0019   -9.6347  -46.0205 H         1 UNK         0.0600 
    182 H182        1.1470   -8.4666  -46.6638 H         1 UNK         0.0600 
    183 H183        0.8284   -8.5164  -44.9369 H         1 UNK         0.0600 
    184 H184        0.8317  -11.0565  -44.2062 H         1 UNK         0.3000 
    185 H185        2.6638  -13.6579  -42.8829 H         1 UNK         0.0600 
    186 H186        2.2025  -12.8720  -40.5741 H         1 UNK         0.0600 
    187 H187        3.5720  -11.9991  -41.2446 H         1 UNK         0.0600 
    188 H188        1.9982  -11.2174  -41.1510 H         1 UNK         0.0600 
    189 H189        0.1665  -12.6990  -41.9976 H         1 UNK         0.3000 
    190 H190       -3.0112  -23.5388  -43.7354 H         1 UNK         0.3000 
    191 H191       -4.2030  -25.8461  -44.8910 H         1 UNK         0.0600 
    192 H192       -3.2436  -26.9902  -42.8834 H         1 UNK         0.0600 
    193 H193       -4.0316  -25.4839  -42.4422 H         1 UNK         0.0600 
    194 H194       -2.2714  -25.5682  -42.5248 H         1 UNK         0.0600 
    195 H195       -0.8682  -24.6174  -45.0215 H         1 UNK         0.3000 
    196 H196        0.3580  -27.0506  -45.9902 H         1 UNK         0.0600 
    197 H197        1.2499  -24.1278  -46.1898 H         1 UNK         0.0600 
    198 H198        1.6487  -25.2291  -44.8727 H         1 UNK         0.0600 
    199 H199        2.2632  -25.5335  -46.4924 H         1 UNK         0.0600 
    200 H200       -1.5486  -24.5199  -47.4548 H         1 UNK         0.3000 
    201 H201       -0.9623  -25.4126  -50.2347 H         1 UNK         0.0600 
    202 H202       -2.4833  -22.9741  -49.1534 H         1 UNK         0.0600 
    203 H203       -2.1631  -23.3185  -50.8493 H         1 UNK         0.0600 
    204 H204       -0.8310  -22.9746  -49.7631 H         1 UNK         0.0600 
    205 H205       -2.6682  -26.6953  -47.9001 H         1 UNK         0.3000 
    206 H206       -4.4947  -27.8844  -47.5870 H         1 UNK         0.0600 
    207 H207       -3.6782  -29.0445  -49.6586 H         1 UNK         0.0600 
    208 H208       -5.4219  -29.1459  -49.4906 H         1 UNK         0.0600 
    209 H209       -4.7204  -28.0158  -50.6409 H         1 UNK         0.0600 
    210 H210       -4.7939  -24.9687  -47.7319 H         1 UNK         0.3000 
    211 H211       -6.2301  -23.3367  -47.6094 H         1 UNK         0.0600 
    212 H212       -8.5510  -23.7281  -46.9154 H         1 UNK         0.0600 
    213 H213       -7.5018  -24.8608  -46.0816 H         1 UNK         0.0600 
    214 H214       -8.4827  -25.4021  -47.4440 H         1 UNK         0.0600 
    215 H215       -5.5899  -24.6053  -50.3340 H         1 UNK         0.3000 
    216 H216       -7.8199  -23.9077  -52.0409 H         1 UNK         0.0600 
    217 H217       -4.8736  -24.3860  -52.7333 H         1 UNK         0.0600 
    218 H218       -6.2232  -24.3888  -53.8587 H         1 UNK         0.0600 
    219 H219       -6.1052  -25.6423  -52.6324 H         1 UNK         0.0600 
    220 H220       -5.1716  -22.1699  -50.6555 H         1 UNK         0.3000 
    221 H221       -4.4893  -20.0991  -50.5317 H         1 UNK         0.0600 
    222 H222       -6.8267  -19.4630  -50.1262 H         1 UNK         0.0600 
    223 H223       -7.1463  -19.3235  -51.8532 H         1 UNK         0.0600 
    224 H224       -6.0509  -18.2041  -51.0714 H         1 UNK         0.0600 
    225 H225       -5.9104  -20.4399  -53.7885 H         1 UNK         0.3000 
    226 H226       -4.1448  -18.6569  -55.1486 H         1 UNK         0.0600 
    227 H227       -5.8102  -21.0107  -56.1977 H         1 UNK         0.0600 
    228 H228       -6.3530  -19.3393  -56.0512 H         1 UNK         0.0600 
    229 H229       -5.0865  -19.7537  -57.1961 H         1 UNK         0.0600 
    230 H230       -3.7714  -22.0091  -54.1942 H         1 UNK         0.3000 
    231 H231       -1.5692  -22.7291  -55.8696 H         1 UNK         0.0600 
    232 H232       -2.4490  -23.7807  -53.1265 H         1 UNK         0.0600 
    233 H233       -1.2809  -24.5631  -54.1828 H         1 UNK         0.0600 
    234 H234       -2.9539  -24.4085  -54.6937 H         1 UNK         0.0600 
    235 H235       -1.7635  -20.6990  -53.0164 H         1 UNK         0.3000 
    236 H236        1.1991  -20.6826  -52.6548 H         1 UNK         0.0600 
    237 H237       -0.0987  -20.9817  -50.5848 H         1 UNK         0.0600 
    238 H238        0.6657  -19.4024  -50.5917 H         1 UNK         0.0600 
    239 H239       -1.0587  -19.5443  -50.9195 H         1 UNK         0.0600 
    240 H240       -1.6374  -18.4752  -53.0527 H         1 UNK         0.3000 
    241 H241        0.0917  -16.1972  -53.4668 H         1 UNK         0.0600 
    242 H242       -0.7953  -17.3898  -57.2128 H         1 UNK         0.3800 
    243 H243       -1.1386  -18.4602  -55.8840 H         1 UNK         0.3800 
    244 H244       -2.9420  -16.4017  -53.6028 H         1 UNK         0.0800 
    245 H245       -2.0443  -14.9027  -53.6564 H         1 UNK         0.0800 
    246 H246       -4.1099  -16.9133  -51.5006 H         1 UNK         0.0800 
    247 H247       -4.2799  -15.1751  -51.5349 H         1 UNK         0.0800 
@<TRIPOS>BOND
     1    1    2 1    
     2    1  127 1    
     3    1  128 1    
     4    1  129 1    
     5    2    3 2    
     6    2    4 am   BACKBONE|DICT|INTERRES
     7    4    5 1    
     8    4  130 1    
     9    5    6 1    
    10    5   65 1    
    11    5  131 1    
    12    6    7 1    
    13    6  132 1    
    14    6  133 1    
    15    7    8 1    
    16    8    9 1    
    17    8  134 1    
    18    8  135 1    
    19    9   10 ar   
    20    9   14 ar   
    21   10   11 ar   
    22   10  136 1    
    23   11   12 ar   
    24   11  126 1    
    25   12   13 ar   
    26   12  137 1    
    27   13   14 ar   
    28   13   15 1    
    29   14  138 1    
    30   15   16 1    
    31   15  139 1    
    32   15  140 1    
    33   16   17 1    
    34   17   18 1    
    35   17  141 1    
    36   17  142 1    
    37   18   19 1    
    38   18   67 1    
    39   18  143 1    
    40   19   20 am   BACKBONE|DICT|INTERRES
    41   19  144 1    
    42   20   21 2    
    43   20   22 1    
    44   22   23 1    
    45   22   24 1    
    46   22  145 1    
    47   23  146 1    
    48   23  147 1    
    49   23  148 1    
    50   24   25 am   BACKBONE|DICT|INTERRES
    51   24  149 1    
    52   25   26 2    
    53   25   27 1    
    54   27   28 1    
    55   27   29 1    
    56   27  150 1    
    57   28  151 1    
    58   28  152 1    
    59   28  153 1    
    60   29   30 am   BACKBONE|DICT|INTERRES
    61   29  154 1    
    62   30   31 2    
    63   30   32 1    
    64   32   33 1    
    65   32   34 1    
    66   32  155 1    
    67   33  156 1    
    68   33  157 1    
    69   33  158 1    
    70   34   35 am   BACKBONE|DICT|INTERRES
    71   34  159 1    
    72   35   36 2    
    73   35   37 1    
    74   37   38 1    
    75   37   39 1    
    76   37  160 1    
    77   38  161 1    
    78   38  162 1    
    79   38  163 1    
    80   39   40 am   BACKBONE|DICT|INTERRES
    81   39  164 1    
    82   40   41 2    
    83   40   42 1    
    84   42   43 1    
    85   42   44 1    
    86   42  165 1    
    87   43  166 1    
    88   43  167 1    
    89   43  168 1    
    90   44   45 am   BACKBONE|DICT|INTERRES
    91   44  169 1    
    92   45   46 2    
    93   45   47 1    
    94   47   48 1    
    95   47   49 1    
    96   47  170 1    
    97   48  171 1    
    98   48  172 1    
    99   48  173 1    
   100   49   50 am   BACKBONE|DICT|INTERRES
   101   49  174 1    
   102   50   51 2    
   103   50   52 1    
   104   52   53 1    
   105   52   54 1    
   106   52  175 1    
   107   53  176 1    
   108   53  177 1    
   109   53  178 1    
   110   54   55 am   BACKBONE|DICT|INTERRES
   111   54  179 1    
   112   55   56 2    
   113   55   57 1    
   114   57   58 1    
   115   57   59 1    
   116   57  180 1    
   117   58  181 1    
   118   58  182 1    
   119   58  183 1    
   120   59   60 am   BACKBONE|DICT|INTERRES
   121   59  184 1    
   122   60   61 2    
   123   60   62 1    
   124   62   63 1    
   125   62   64 1    
   126   62  185 1    
   127   63  186 1    
   128   63  187 1    
   129   63  188 1    
   130   64   65 am   BACKBONE|DICT|INTERRES
   131   64  189 1    
   132   65   66 2    
   133   67   68 2    
   134   67   69 am   BACKBONE|DICT|INTERRES
   135   69   70 1    
   136   69  190 1    
   137   70   71 1    
   138   70   72 1    
   139   70  191 1    
   140   71  192 1    
   141   71  193 1    
   142   71  194 1    
   143   72   73 2    
   144   72   74 am   BACKBONE|DICT|INTERRES
   145   74   75 1    
   146   74  195 1    
   147   75   76 1    
   148   75   77 1    
   149   75  196 1    
   150   76  197 1    
   151   76  198 1    
   152   76  199 1    
   153   77   78 2    
   154   77   79 am   BACKBONE|DICT|INTERRES
   155   79   80 1    
   156   79  200 1    
   157   80   81 1    
   158   80   82 1    
   159   80  201 1    
   160   81  202 1    
   161   81  203 1    
   162   81  204 1    
   163   82   83 2    
   164   82   84 am   BACKBONE|DICT|INTERRES
   165   84   85 1    
   166   84  205 1    
   167   85   86 1    
   168   85   87 1    
   169   85  206 1    
   170   86  207 1    
   171   86  208 1    
   172   86  209 1    
   173   87   88 2    
   174   87   89 am   BACKBONE|DICT|INTERRES
   175   89   90 1    
   176   89  210 1    
   177   90   91 1    
   178   90   92 1    
   179   90  211 1    
   180   91  212 1    
   181   91  213 1    
   182   91  214 1    
   183   92   93 2    
   184   92   94 am   BACKBONE|DICT|INTERRES
   185   94   95 1    
   186   94  215 1    
   187   95   96 1    
   188   95   97 1    
   189   95  216 1    
   190   96  217 1    
   191   96  218 1    
   192   96  219 1    
   193   97   98 2    
   194   97   99 am   BACKBONE|DICT|INTERRES
   195   99  100 1    
   196   99  220 1    
   197  100  101 1    
   198  100  102 1    
   199  100  221 1    
   200  101  222 1    
   201  101  223 1    
   202  101  224 1    
   203  102  103 2    
   204  102  104 am   BACKBONE|DICT|INTERRES
   205  104  105 1    
   206  104  225 1    
   207  105  106 1    
   208  105  107 1    
   209  105  226 1    
   210  106  227 1    
   211  106  228 1    
   212  106  229 1    
   213  107  108 2    
   214  107  109 am   BACKBONE|DICT|INTERRES
   215  109  110 1    
   216  109  230 1    
   217  110  111 1    
   218  110  112 1    
   219  110  231 1    
   220  111  232 1    
   221  111  233 1    
   222  111  234 1    
   223  112  113 2    
   224  112  114 am   BACKBONE|DICT|INTERRES
   225  114  115 1    
   226  114  235 1    
   227  115  116 1    
   228  115  117 1    
   229  115  236 1    
   230  116  237 1    
   231  116  238 1    
   232  116  239 1    
   233  117  118 2    
   234  117  119 am   BACKBONE|DICT|INTERRES
   235  119  120 1    
   236  119  240 1    
   237  120  121 1    
   238  120  124 1    
   239  120  241 1    
   240  121  122 am   BACKBONE|DICT|INTERRES
   241  121  123 2    
   242  122  242 1    
   243  122  243 1    
   244  124  125 1    
   245  124  244 1    
   246  124  245 1    
   247  125  126 1    
   248  126  246 1    
   249  126  247 1    
@<TRIPOS>SUBSTRUCTURE
     1 UNK         1 GROUP             0       ****    0 ROOT    
