@<TRIPOS>MOLECULE
3R540
247   249    1
SMALL
USER_CHARGES


@<TRIPOS>ATOM
      1 CA          1.8707  -18.4785  -41.3186 C.3       0 UNK        -0.1800 
      2 C           1.7778  -16.9672  -41.4762 C.2       0 UNK         0.5000 
      3 O           2.6528  -16.2421  -41.0022 O.2       0 UNK        -0.5000 
      4 N           0.7253  -16.4883  -42.1489 N.am      1 UNK        -0.5000 
      5 CA          0.4232  -15.0786  -42.4238 C.3       1 UNK         0.1400 
      6 C6         -1.0919  -14.8594  -42.6852 C.3       23 UNK        -0.0398 
      7 S7         -1.8079  -16.0081  -43.9153 S.3       23 UNK        -0.2404 
      8 C8         -3.1204  -16.7990  -42.9344 C.3       23 UNK        -0.0205 
      9 C9         -3.7849  -17.9412  -43.6893 C.ar      23 UNK        -0.0193 
     10 C10        -4.5484  -17.6800  -44.8309 C.ar      23 UNK        -0.1150 
     11 C11        -5.1851  -18.7214  -45.5095 C.ar      23 UNK        -0.0193 
     12 C12        -5.0473  -20.0314  -45.0431 C.ar      23 UNK        -0.1150 
     13 C13        -4.2942  -20.3135  -43.8995 C.ar      23 UNK        -0.0193 
     14 C14        -3.6681  -19.2558  -43.2250 C.ar      23 UNK        -0.1150 
     15 C15        -4.2441  -21.7640  -43.4129 C.3       23 UNK        -0.0205 
     16 S16        -2.9516  -22.1741  -42.1863 S.3       23 UNK        -0.2404 
     17 C17        -1.3919  -21.9373  -43.1101 C.3       23 UNK        -0.0398 
     18 CA         -1.2328  -22.7231  -44.4361 C.3       11 UNK         0.1400 
     19 N           0.0330  -22.3669  -45.0743 N.am      11 UNK        -0.5000 
     20 C           0.4080  -22.6308  -46.3303 C.2       10 UNK         0.5000 
     21 O          -0.2648  -23.3108  -47.1084 O.2       10 UNK        -0.5000 
     22 CA          1.7573  -22.0162  -46.7723 C.3       10 UNK         0.1400 
     23 CB          2.0540  -22.2579  -48.2623 C.3       10 UNK        -0.1800 
     24 N           1.8139  -20.5760  -46.4990 N.am      10 UNK        -0.5000 
     25 C           1.9453  -20.0094  -45.2893 C.2       9 UNK         0.5000 
     26 O           2.1697  -20.6548  -44.2643 O.2       9 UNK        -0.5000 
     27 CA          1.7185  -18.4902  -45.1747 C.3       9 UNK         0.1400 
     28 CB          3.0582  -17.7605  -45.0178 C.3       9 UNK        -0.1800 
     29 N           0.9673  -17.9073  -46.2874 N.am      9 UNK        -0.5000 
     30 C          -0.2965  -18.2141  -46.6208 C.2       8 UNK         0.5000 
     31 O          -0.9901  -19.0207  -46.0029 O.2       8 UNK        -0.5000 
     32 CA         -0.8494  -17.5503  -47.8945 C.3       8 UNK         0.1400 
     33 CB         -1.5488  -16.2216  -47.5705 C.3       8 UNK        -0.1800 
     34 N           0.2052  -17.3251  -48.8876 N.am      8 UNK        -0.5000 
     35 C           0.7381  -18.2919  -49.6502 C.2       7 UNK         0.5000 
     36 O           0.3483  -19.4577  -49.6410 O.2       7 UNK        -0.5000 
     37 CA          1.9236  -17.9035  -50.5546 C.3       7 UNK         0.1400 
     38 CB          1.4273  -17.3712  -51.9042 C.3       7 UNK        -0.1800 
     39 N           2.7963  -16.9021  -49.9470 N.am      7 UNK        -0.5000 
     40 C           3.6107  -17.1261  -48.9071 C.2       6 UNK         0.5000 
     41 O           3.7860  -18.2356  -48.4057 O.2       6 UNK        -0.5000 
     42 CA          4.3124  -15.8900  -48.3047 C.3       6 UNK         0.1400 
     43 CB          5.7186  -15.7219  -48.8978 C.3       6 UNK        -0.1800 
     44 N           3.5525  -14.6489  -48.4998 N.am      6 UNK        -0.5000 
     45 C           2.3513  -14.4133  -47.9576 C.2       5 UNK         0.5000 
     46 O           1.7824  -15.2042  -47.2042 O.2       5 UNK        -0.5000 
     47 CA          1.6270  -13.1408  -48.4049 C.3       5 UNK         0.1400 
     48 CB          0.6872  -13.4686  -49.5839 C.3       5 UNK        -0.1800 
     49 N           0.8806  -12.5929  -47.2769 N.am      5 UNK        -0.5000 
     50 C           0.2973  -11.3873  -47.2494 C.2       4 UNK         0.5000 
     51 O           0.2821  -10.6062  -48.2016 O.2       4 UNK        -0.5000 
     52 CA         -0.3281  -10.9574  -45.9140 C.3       4 UNK         0.1400 
     53 CB         -1.5475  -11.8234  -45.5514 C.3       4 UNK        -0.1800 
     54 N           0.6790  -11.0266  -44.8574 N.am      4 UNK        -0.5000 
     55 C           1.5622  -10.0507  -44.5951 C.2       3 UNK         0.5000 
     56 O           1.5308   -8.9415  -45.1298 O.2       3 UNK        -0.5000 
     57 CA          2.6770  -10.3533  -43.5720 C.3       3 UNK         0.1400 
     58 CB          2.2780   -9.8466  -42.1776 C.3       3 UNK        -0.1800 
     59 N           3.0095  -11.7745  -43.4821 N.am      3 UNK        -0.5000 
     60 C           3.6018  -12.4918  -44.4474 C.2       2 UNK         0.5000 
     61 O           4.0368  -12.0078  -45.4924 O.2       2 UNK        -0.5000 
     62 CA          3.6832  -14.0152  -44.2247 C.3       2 UNK         0.1400 
     63 CB          5.0671  -14.4192  -43.6975 C.3       2 UNK        -0.1800 
     64 N           2.6526  -14.5455  -43.3232 N.am      2 UNK        -0.5000 
     65 C           1.3298  -14.4745  -43.5241 C.2       1 UNK         0.5000 
     66 O           0.8369  -13.9207  -44.5074 O.2       1 UNK        -0.5000 
     67 C          -1.3828  -24.2502  -44.2671 C.2       11 UNK         0.5000 
     68 O          -2.4960  -24.7634  -44.3739 O.2       11 UNK        -0.5000 
     69 N          -0.2574  -24.9622  -44.1021 N.am      12 UNK        -0.5000 
     70 CA         -0.1878  -26.4268  -44.0612 C.3       12 UNK         0.1400 
     71 CB          1.2411  -26.8480  -43.6864 C.3       12 UNK        -0.1800 
     72 C          -0.6211  -27.1032  -45.3797 C.2       12 UNK         0.5000 
     73 O          -1.1073  -28.2339  -45.3479 O.2       12 UNK        -0.5000 
     74 N          -0.4609  -26.3907  -46.5030 N.am      13 UNK        -0.5000 
     75 CA         -0.9290  -26.7867  -47.8320 C.3       13 UNK         0.1400 
     76 CB          0.1859  -26.4789  -48.8467 C.3       13 UNK        -0.1800 
     77 C          -2.2279  -26.0538  -48.2246 C.2       13 UNK         0.5000 
     78 O          -2.6998  -26.2338  -49.3477 O.2       13 UNK        -0.5000 
     79 N          -2.7546  -25.2041  -47.3283 N.am      14 UNK        -0.5000 
     80 CA         -3.8871  -24.2919  -47.5144 C.3       14 UNK         0.1400 
     81 CB         -5.2091  -25.0849  -47.5571 C.3       14 UNK        -0.1800 
     82 C          -3.7058  -23.3560  -48.7281 C.2       14 UNK         0.5000 
     83 O          -4.6503  -23.1583  -49.4909 O.2       14 UNK        -0.5000 
     84 N          -2.4787  -22.8444  -48.9152 N.am      15 UNK        -0.5000 
     85 CA         -2.0293  -22.0507  -50.0661 C.3       15 UNK         0.1400 
     86 CB         -2.7265  -20.6780  -50.0972 C.3       15 UNK        -0.1800 
     87 C          -2.1658  -22.8250  -51.3943 C.2       15 UNK         0.5000 
     88 O          -2.6953  -22.2991  -52.3771 O.2       15 UNK        -0.5000 
     89 N          -1.7087  -24.0858  -51.3742 N.am      16 UNK        -0.5000 
     90 CA         -1.7944  -25.0788  -52.4506 C.3       16 UNK         0.1400 
     91 CB         -0.9256  -24.6544  -53.6539 C.3       16 UNK        -0.1800 
     92 C          -3.2562  -25.3950  -52.8317 C.2       16 UNK         0.5000 
     93 O          -3.5969  -25.4156  -54.0141 O.2       16 UNK        -0.5000 
     94 N          -4.0932  -25.6092  -51.8055 N.am      17 UNK        -0.5000 
     95 CA         -5.5493  -25.7810  -51.8699 C.3       17 UNK         0.1400 
     96 CB         -5.9171  -27.1102  -52.5616 C.3       17 UNK        -0.1800 
     97 C          -6.2536  -24.5520  -52.4866 C.2       17 UNK         0.5000 
     98 O          -7.0762  -24.6906  -53.3942 O.2       17 UNK        -0.5000 
     99 N          -5.8938  -23.3699  -51.9685 N.am      18 UNK        -0.5000 
    100 CA        -6.3448  -22.0318  -52.3525 C.3       18 UNK         0.1400 
    101 CB        -7.8082  -21.8086  -51.9207 C.3       18 UNK        -0.1800 
    102 C         -6.0862  -21.7039  -53.8383 C.2       18 UNK         0.5000 
    103 O         -6.9768  -21.1969  -54.5246 O.2       18 UNK        -0.5000 
    104 N         -4.8731  -22.0182  -54.3099 N.am      19 UNK        -0.5000 
    105 CA        -4.4262  -21.7737  -55.6816 C.3       19 UNK         0.1400 
    106 CB        -3.9619  -23.0942  -56.3127 C.3       19 UNK        -0.1800 
    107 C         -3.2962  -20.7349  -55.7336 C.2       19 UNK         0.5000 
    108 O         -3.2567  -19.9403  -56.6740 O.2       19 UNK        -0.5000 
    109 N         -2.3972  -20.7486  -54.7393 N.am      20 UNK        -0.5000 
    110 CA        -1.2698  -19.8191  -54.6437 C.3       20 UNK         0.1400 
    111 CB        -0.1611  -20.4665  -53.7978 C.3       20 UNK        -0.1800 
    112 C         -1.6892  -18.4629  -54.0466 C.2       20 UNK         0.5000 
    113 O         -1.0878  -17.4391  -54.3715 O.2       20 UNK        -0.5000 
    114 N         -2.7154  -18.4883  -53.1924 N.am      21 UNK        -0.5000 
    115 CA        -3.3236  -17.3638  -52.4923 C.3       21 UNK         0.1400 
    116 CB        -2.3914  -16.8536  -51.3739 C.3       21 UNK        -0.1800 
    117 C         -4.6818  -17.8425  -51.9510 C.2       21 UNK         0.5000 
    118 O         -5.1420  -18.9179  -52.3406 O.2       21 UNK        -0.5000 
    119 N         -5.2958  -17.0509  -51.0631 N.am      22 UNK        -0.5000 
    120 CA        -6.5593  -17.3602  -50.3632 C.3       22 UNK         0.1400 
    121 C         -7.8323  -17.3338  -51.2666 C.2       22 UNK         0.5000 
    122 N         -7.7781  -16.7844  -52.4737 N.am      22 UNK        -0.7600 
    123 O         -8.8991  -17.7842  -50.8576 O.2       22 UNK        -0.5000 
    124 C124       -6.4827  -18.6500  -49.4934 C.3       23 UNK        -0.0398 
    125 S125       -5.1232  -18.6252  -48.2718 S.3       23 UNK        -0.2404 
    126 C126       -6.0548  -18.4366  -46.7229 C.3       23 UNK        -0.0205 
    127 H127        2.7805  -18.8511  -41.7889 H         1 UNK         0.0600 
    128 H128        1.0209  -18.9882  -41.7735 H         1 UNK         0.0600 
    129 H129        1.8993  -18.7439  -40.2619 H         1 UNK         0.0600 
    130 H130        0.0513  -17.1334  -42.5360 H         1 UNK         0.3000 
    131 H131        0.6603  -14.5145  -41.5193 H         1 UNK         0.0600 
    132 H132       -1.6279  -14.9737  -41.7423 H         1 UNK         0.0800 
    133 H133       -1.2959  -13.8348  -43.0010 H         1 UNK         0.0800 
    134 H134       -2.6991  -17.1584  -41.9943 H         1 UNK         0.0800 
    135 H135       -3.8736  -16.0542  -42.6735 H         1 UNK         0.0800 
    136 H136       -4.6501  -16.6640  -45.1857 H         1 UNK         0.1150 
    137 H137       -5.5477  -20.8346  -45.5662 H         1 UNK         0.1150 
    138 H138       -3.0989  -19.4437  -42.3270 H         1 UNK         0.1150 
    139 H139       -5.2089  -21.9905  -42.9575 H         1 UNK         0.0800 
    140 H140       -4.1551  -22.4394  -44.2639 H         1 UNK         0.0800 
    141 H141       -0.5735  -22.1864  -42.4323 H         1 UNK         0.0800 
    142 H142       -1.2874  -20.8703  -43.3129 H         1 UNK         0.0800 
    143 H143       -2.0184  -22.3973  -45.1199 H         1 UNK         0.0600 
    144 H144        0.6714  -21.8004  -44.5233 H         1 UNK         0.3000 
    145 H145        2.5408  -22.5089  -46.1934 H         1 UNK         0.0600 
    146 H146        3.0112  -21.8230  -48.5504 H         1 UNK         0.0600 
    147 H147        2.1018  -23.3248  -48.4837 H         1 UNK         0.0600 
    148 H148        1.2846  -21.8256  -48.9012 H         1 UNK         0.0600 
    149 H149        1.6029  -19.9688  -47.2786 H         1 UNK         0.3000 
    150 H150        1.1269  -18.3192  -44.2751 H         1 UNK         0.0600 
    151 H151        3.5374  -18.0213  -44.0739 H         1 UNK         0.0600 
    152 H152        2.9184  -16.6831  -45.0276 H         1 UNK         0.0600 
    153 H153        3.7549  -18.0155  -45.8149 H         1 UNK         0.0600 
    154 H154        1.4260  -17.1653  -46.8043 H         1 UNK         0.3000 
    155 H155       -1.5952  -18.2226  -48.3217 H         1 UNK         0.0600 
    156 H156       -0.8786  -15.5168  -47.0769 H         1 UNK         0.0600 
    157 H157       -2.3959  -16.3884  -46.9041 H         1 UNK         0.0600 
    158 H158       -1.9368  -15.7466  -48.4709 H         1 UNK         0.0600 
    159 H159        0.6173  -16.4045  -48.9029 H         1 UNK         0.3000 
    160 H160        2.5072  -18.8084  -50.7380 H         1 UNK         0.0600 
    161 H161        0.9440  -16.3990  -51.8042 H         1 UNK         0.0600 
    162 H162        0.7024  -18.0530  -52.3447 H         1 UNK         0.0600 
    163 H163        2.2484  -17.2656  -52.6133 H         1 UNK         0.0600 
    164 H164        2.7387  -15.9647  -50.3147 H         1 UNK         0.3000 
    165 H165        4.4135  -16.0581  -47.2307 H         1 UNK         0.0600 
    166 H166        6.2501  -14.8963  -48.4240 H         1 UNK         0.0600 
    167 H167        6.3163  -16.6216  -48.7453 H         1 UNK         0.0600 
    168 H168        5.6835  -15.5288  -49.9707 H         1 UNK         0.0600 
    169 H169        3.9623  -13.9608  -49.1155 H         1 UNK         0.3000 
    170 H170        2.3699  -12.4055  -48.7204 H         1 UNK         0.0600 
    171 H171        1.2289  -13.9491  -50.3993 H         1 UNK         0.0600 
    172 H172       -0.1167  -14.1400  -49.2815 H         1 UNK         0.0600 
    173 H173        0.2296  -12.5700  -49.9966 H         1 UNK         0.0600 
    174 H174        0.8608  -13.1832  -46.4481 H         1 UNK         0.3000 
    175 H175       -0.6766   -9.9272  -46.0150 H         1 UNK         0.0600 
    176 H176       -1.3052  -12.8846  -45.4974 H         1 UNK         0.0600 
    177 H177       -1.9683  -11.5279  -44.5904 H         1 UNK         0.0600 
    178 H178       -2.3337  -11.7114  -46.2987 H         1 UNK         0.0600 
    179 H179        0.8116  -11.9387  -44.4353 H         1 UNK         0.3000 
    180 H180        3.5721   -9.8145  -43.8898 H         1 UNK         0.0600 
    181 H181        1.3949  -10.3629  -41.7990 H         1 UNK         0.0600 
    182 H182        2.0500   -8.7801  -42.2003 H         1 UNK         0.0600 
    183 H183        3.0856   -9.9893  -41.4594 H         1 UNK         0.0600 
    184 H184        2.7014  -12.2601  -42.6530 H         1 UNK         0.3000 
    185 H185        3.5441  -14.4812  -45.2004 H         1 UNK         0.0600 
    186 H186        5.8577  -14.0635  -44.3597 H         1 UNK         0.0600 
    187 H187        5.2555  -14.0052  -42.7062 H         1 UNK         0.0600 
    188 H188        5.1620  -15.5034  -43.6328 H         1 UNK         0.0600 
    189 H189        2.9714  -15.0261  -42.4866 H         1 UNK         0.3000 
    190 H190        0.6194  -24.4657  -44.0386 H         1 UNK         0.3000 
    191 H191       -0.8650  -26.7723  -43.2773 H         1 UNK         0.0600 
    192 H192        1.9680  -26.5083  -44.4253 H         1 UNK         0.0600 
    193 H193        1.5312  -26.4422  -42.7171 H         1 UNK         0.0600 
    194 H194        1.3236  -27.9337  -43.6200 H         1 UNK         0.0600 
    195 H195       -0.0736  -25.4583  -46.4369 H         1 UNK         0.3000 
    196 H196       -1.1362  -27.8581  -47.8630 H         1 UNK         0.0600 
    197 H197        1.1083  -26.9979  -48.5857 H         1 UNK         0.0600 
    198 H198        0.4053  -25.4115  -48.8941 H         1 UNK         0.0600 
    199 H199       -0.0926  -26.8037  -49.8499 H         1 UNK         0.0600 
    200 H200       -2.3197  -25.1562  -46.4156 H         1 UNK         0.3000 
    201 H201       -3.9153  -23.6466  -46.6356 H         1 UNK         0.0600 
    202 H202       -6.0683  -24.4146  -47.6018 H         1 UNK         0.0600 
    203 H203       -5.3254  -25.7002  -46.6649 H         1 UNK         0.0600 
    204 H204       -5.2591  -25.7421  -48.4253 H         1 UNK         0.0600 
    205 H205       -1.7549  -23.0744  -48.2375 H         1 UNK         0.3000 
    206 H206       -0.9633  -21.8745  -49.9203 H         1 UNK         0.0600 
    207 H207       -2.6226  -20.1690  -49.1402 H         1 UNK         0.0600 
    208 H208       -3.7903  -20.7586  -50.3208 H         1 UNK         0.0600 
    209 H209       -2.2781  -20.0374  -50.8554 H         1 UNK         0.0600 
    210 H210       -1.3534  -24.4361  -50.4966 H         1 UNK         0.3000 
    211 H211       -1.3767  -26.0044  -52.0523 H         1 UNK         0.0600 
    212 H212        0.1039  -24.4674  -53.3488 H         1 UNK         0.0600 
    213 H213       -0.9019  -25.4368  -54.4131 H         1 UNK         0.0600 
    214 H214       -1.3013  -23.7492  -54.1308 H         1 UNK         0.0600 
    215 H215       -3.6903  -25.6237  -50.8717 H         1 UNK         0.3000 
    216 H216       -5.8948  -25.8434  -50.8373 H         1 UNK         0.0600 
    217 H217       -6.9906  -27.2937  -52.5052 H         1 UNK         0.0600 
    218 H218       -5.6414  -27.1111  -53.6165 H         1 UNK         0.0600 
    219 H219       -5.4184  -27.9534  -52.0837 H         1 UNK         0.0600 
    220 H220       -5.2473  -23.3783  -51.1809 H         1 UNK         0.3000 
    221 H221       -5.7267  -21.3458  -51.7749 H         1 UNK         0.0600 
    222 H222       -8.4952  -22.4515  -52.4715 H         1 UNK         0.0600 
    223 H223       -7.9384  -22.0083  -50.8570 H         1 UNK         0.0600 
    224 H224       -8.1110  -20.7750  -52.0943 H         1 UNK         0.0600 
    225 H225       -4.1921  -22.4058  -53.6645 H         1 UNK         0.3000 
    226 H226       -5.2474  -21.3888  -56.2893 H         1 UNK         0.0600 
    227 H227       -4.7476  -23.8489  -56.2715 H         1 UNK         0.0600 
    228 H228       -3.6976  -22.9534  -57.3614 H         1 UNK         0.0600 
    229 H229       -3.0848  -23.4966  -55.8061 H         1 UNK         0.0600 
    230 H230       -2.5026  -21.4083  -53.9723 H         1 UNK         0.3000 
    231 H231       -0.8700  -19.6405  -55.6443 H         1 UNK         0.0600 
    232 H232        0.7523  -19.8728  -53.8363 H         1 UNK         0.0600 
    233 H233        0.0878  -21.4621  -54.1654 H         1 UNK         0.0600 
    234 H234       -0.4511  -20.5588  -52.7503 H         1 UNK         0.0600 
    235 H235       -3.2076  -19.3617  -53.0465 H         1 UNK         0.3000 
    236 H236       -3.5106  -16.5622  -53.2089 H         1 UNK         0.0600 
    237 H237       -1.4211  -16.5584  -51.7685 H         1 UNK         0.0600 
    238 H238       -2.8040  -15.9762  -50.8761 H         1 UNK         0.0600 
    239 H239       -2.2264  -17.6175  -50.6147 H         1 UNK         0.0600 
    240 H240       -4.8580  -16.1799  -50.8017 H         1 UNK         0.3000 
    241 H241       -6.7093  -16.5289  -49.6737 H         1 UNK         0.0600 
    242 H242       -8.6073  -16.7617  -53.0461 H         1 UNK         0.3800 
    243 H243       -6.9152  -16.4021  -52.8248 H         1 UNK         0.3800 
    244 H244       -7.4246  -18.8072  -48.9665 H         1 UNK         0.0800 
    245 H245       -6.3549  -19.5313  -50.1222 H         1 UNK         0.0800 
    246 H246       -6.9064  -19.1186  -46.7185 H         1 UNK         0.0800 
    247 H247       -6.4666  -17.4276  -46.6698 H         1 UNK         0.0800 
@<TRIPOS>BOND
     1    1    2 1    
     2    1  127 1    
     3    1  128 1    
     4    1  129 1    
     5    2    3 2    
     6    2    4 am   BACKBONE|DICT|INTERRES
     7    4    5 1    
     8    4  130 1    
     9    5    6 1    
    10    5   65 1    
    11    5  131 1    
    12    6    7 1    
    13    6  132 1    
    14    6  133 1    
    15    7    8 1    
    16    8    9 1    
    17    8  134 1    
    18    8  135 1    
    19    9   10 ar   
    20    9   14 ar   
    21   10   11 ar   
    22   10  136 1    
    23   11   12 ar   
    24   11  126 1    
    25   12   13 ar   
    26   12  137 1    
    27   13   14 ar   
    28   13   15 1    
    29   14  138 1    
    30   15   16 1    
    31   15  139 1    
    32   15  140 1    
    33   16   17 1    
    34   17   18 1    
    35   17  141 1    
    36   17  142 1    
    37   18   19 1    
    38   18   67 1    
    39   18  143 1    
    40   19   20 am   BACKBONE|DICT|INTERRES
    41   19  144 1    
    42   20   21 2    
    43   20   22 1    
    44   22   23 1    
    45   22   24 1    
    46   22  145 1    
    47   23  146 1    
    48   23  147 1    
    49   23  148 1    
    50   24   25 am   BACKBONE|DICT|INTERRES
    51   24  149 1    
    52   25   26 2    
    53   25   27 1    
    54   27   28 1    
    55   27   29 1    
    56   27  150 1    
    57   28  151 1    
    58   28  152 1    
    59   28  153 1    
    60   29   30 am   BACKBONE|DICT|INTERRES
    61   29  154 1    
    62   30   31 2    
    63   30   32 1    
    64   32   33 1    
    65   32   34 1    
    66   32  155 1    
    67   33  156 1    
    68   33  157 1    
    69   33  158 1    
    70   34   35 am   BACKBONE|DICT|INTERRES
    71   34  159 1    
    72   35   36 2    
    73   35   37 1    
    74   37   38 1    
    75   37   39 1    
    76   37  160 1    
    77   38  161 1    
    78   38  162 1    
    79   38  163 1    
    80   39   40 am   BACKBONE|DICT|INTERRES
    81   39  164 1    
    82   40   41 2    
    83   40   42 1    
    84   42   43 1    
    85   42   44 1    
    86   42  165 1    
    87   43  166 1    
    88   43  167 1    
    89   43  168 1    
    90   44   45 am   BACKBONE|DICT|INTERRES
    91   44  169 1    
    92   45   46 2    
    93   45   47 1    
    94   47   48 1    
    95   47   49 1    
    96   47  170 1    
    97   48  171 1    
    98   48  172 1    
    99   48  173 1    
   100   49   50 am   BACKBONE|DICT|INTERRES
   101   49  174 1    
   102   50   51 2    
   103   50   52 1    
   104   52   53 1    
   105   52   54 1    
   106   52  175 1    
   107   53  176 1    
   108   53  177 1    
   109   53  178 1    
   110   54   55 am   BACKBONE|DICT|INTERRES
   111   54  179 1    
   112   55   56 2    
   113   55   57 1    
   114   57   58 1    
   115   57   59 1    
   116   57  180 1    
   117   58  181 1    
   118   58  182 1    
   119   58  183 1    
   120   59   60 am   BACKBONE|DICT|INTERRES
   121   59  184 1    
   122   60   61 2    
   123   60   62 1    
   124   62   63 1    
   125   62   64 1    
   126   62  185 1    
   127   63  186 1    
   128   63  187 1    
   129   63  188 1    
   130   64   65 am   BACKBONE|DICT|INTERRES
   131   64  189 1    
   132   65   66 2    
   133   67   68 2    
   134   67   69 am   BACKBONE|DICT|INTERRES
   135   69   70 1    
   136   69  190 1    
   137   70   71 1    
   138   70   72 1    
   139   70  191 1    
   140   71  192 1    
   141   71  193 1    
   142   71  194 1    
   143   72   73 2    
   144   72   74 am   BACKBONE|DICT|INTERRES
   145   74   75 1    
   146   74  195 1    
   147   75   76 1    
   148   75   77 1    
   149   75  196 1    
   150   76  197 1    
   151   76  198 1    
   152   76  199 1    
   153   77   78 2    
   154   77   79 am   BACKBONE|DICT|INTERRES
   155   79   80 1    
   156   79  200 1    
   157   80   81 1    
   158   80   82 1    
   159   80  201 1    
   160   81  202 1    
   161   81  203 1    
   162   81  204 1    
   163   82   83 2    
   164   82   84 am   BACKBONE|DICT|INTERRES
   165   84   85 1    
   166   84  205 1    
   167   85   86 1    
   168   85   87 1    
   169   85  206 1    
   170   86  207 1    
   171   86  208 1    
   172   86  209 1    
   173   87   88 2    
   174   87   89 am   BACKBONE|DICT|INTERRES
   175   89   90 1    
   176   89  210 1    
   177   90   91 1    
   178   90   92 1    
   179   90  211 1    
   180   91  212 1    
   181   91  213 1    
   182   91  214 1    
   183   92   93 2    
   184   92   94 am   BACKBONE|DICT|INTERRES
   185   94   95 1    
   186   94  215 1    
   187   95   96 1    
   188   95   97 1    
   189   95  216 1    
   190   96  217 1    
   191   96  218 1    
   192   96  219 1    
   193   97   98 2    
   194   97   99 am   BACKBONE|DICT|INTERRES
   195   99  100 1    
   196   99  220 1    
   197  100  101 1    
   198  100  102 1    
   199  100  221 1    
   200  101  222 1    
   201  101  223 1    
   202  101  224 1    
   203  102  103 2    
   204  102  104 am   BACKBONE|DICT|INTERRES
   205  104  105 1    
   206  104  225 1    
   207  105  106 1    
   208  105  107 1    
   209  105  226 1    
   210  106  227 1    
   211  106  228 1    
   212  106  229 1    
   213  107  108 2    
   214  107  109 am   BACKBONE|DICT|INTERRES
   215  109  110 1    
   216  109  230 1    
   217  110  111 1    
   218  110  112 1    
   219  110  231 1    
   220  111  232 1    
   221  111  233 1    
   222  111  234 1    
   223  112  113 2    
   224  112  114 am   BACKBONE|DICT|INTERRES
   225  114  115 1    
   226  114  235 1    
   227  115  116 1    
   228  115  117 1    
   229  115  236 1    
   230  116  237 1    
   231  116  238 1    
   232  116  239 1    
   233  117  118 2    
   234  117  119 am   BACKBONE|DICT|INTERRES
   235  119  120 1    
   236  119  240 1    
   237  120  121 1    
   238  120  124 1    
   239  120  241 1    
   240  121  122 am   BACKBONE|DICT|INTERRES
   241  121  123 2    
   242  122  242 1    
   243  122  243 1    
   244  124  125 1    
   245  124  244 1    
   246  124  245 1    
   247  125  126 1    
   248  126  246 1    
   249  126  247 1    
@<TRIPOS>SUBSTRUCTURE
     1 UNK         1 GROUP             0       ****    0 ROOT    
