@<TRIPOS>MOLECULE
3R540
247   249    1
SMALL
USER_CHARGES


@<TRIPOS>ATOM
      1 CA          0.3025  -11.7185  -50.0633 C.3       0 UNK        -0.1800 
      2 C           0.0742  -12.4610  -48.7557 C.2       0 UNK         0.5000 
      3 O           0.0246  -11.8387  -47.6942 O.2       0 UNK        -0.5000 
      4 N          -0.0907  -13.7887  -48.8206 N.am      1 UNK        -0.5000 
      5 CA         -0.2880  -14.6694  -47.6606 C.3       1 UNK         0.1400 
      6 C6         -0.0479  -16.1533  -48.0238 C.3       23 UNK        -0.0398 
      7 S7         -1.3402  -16.8997  -49.0781 S.3       23 UNK        -0.2404 
      8 C8         -1.4119  -18.6006  -48.4301 C.3       23 UNK        -0.0205 
      9 C9         -0.3782  -19.5057  -49.0855 C.ar      23 UNK        -0.0193 
     10 C10        -0.7888  -20.5212  -49.9532 C.ar      23 UNK        -0.1150 
     11 C11         0.1506  -21.3549  -50.5664 C.ar      23 UNK        -0.0193 
     12 C12         1.5121  -21.1544  -50.3244 C.ar      23 UNK        -0.1150 
     13 C13         1.9370  -20.1361  -49.4672 C.ar      23 UNK        -0.0193 
     14 C14         0.9861  -19.3319  -48.8326 C.ar      23 UNK        -0.1150 
     15 C15         3.4227  -19.8714  -49.2657 C.3       23 UNK        -0.0205 
     16 S16         4.2565  -21.1806  -48.3171 S.3       23 UNK        -0.2404 
     17 C17         3.4704  -21.0100  -46.6803 C.3       23 UNK        -0.0398 
     18 CA          3.0177  -22.3631  -46.0811 C.3       11 UNK         0.1400 
     19 N           2.8636  -22.2536  -44.6302 N.am      11 UNK        -0.5000 
     20 C           2.9440  -23.2799  -43.7738 C.2       10 UNK         0.5000 
     21 O           2.9935  -24.4593  -44.1240 O.2       10 UNK        -0.5000 
     22 CA          3.0267  -22.9300  -42.2775 C.3       10 UNK         0.1400 
     23 CB          4.4509  -22.4809  -41.9129 C.3       10 UNK        -0.1800 
     24 N           2.0909  -21.8656  -41.9225 N.am      10 UNK        -0.5000 
     25 C           0.9360  -22.0556  -41.2708 C.2       9 UNK         0.5000 
     26 O           0.5757  -23.1425  -40.8164 O.2       9 UNK        -0.5000 
     27 CA          0.0089  -20.8320  -41.1063 C.3       9 UNK         0.1400 
     28 CB          0.2428  -20.1641  -39.7426 C.3       9 UNK        -0.1800 
     29 N           0.1378  -19.8173  -42.1553 N.am      9 UNK        -0.5000 
     30 C           0.0143  -20.0323  -43.4724 C.2       8 UNK         0.5000 
     31 O          -0.2156  -21.1304  -43.9731 O.2       8 UNK        -0.5000 
     32 CA          0.2559  -18.8263  -44.3938 C.3       8 UNK         0.1400 
     33 CB         -1.0350  -18.0068  -44.5096 C.3       8 UNK        -0.1800 
     34 N           1.3599  -17.9651  -43.9547 N.am      8 UNK        -0.5000 
     35 C           2.6185  -18.3755  -43.7260 C.2       7 UNK         0.5000 
     36 O           2.9922  -19.5432  -43.8429 O.2       7 UNK        -0.5000 
     37 CA          3.6122  -17.3129  -43.2350 C.3       7 UNK         0.1400 
     38 CB          4.1078  -16.4413  -44.3998 C.3       7 UNK        -0.1800 
     39 N           3.0016  -16.4775  -42.2027 N.am      7 UNK        -0.5000 
     40 C           2.8775  -16.8494  -40.9195 C.2       6 UNK         0.5000 
     41 O           3.3623  -17.8829  -40.4583 O.2       6 UNK        -0.5000 
     42 CA          2.0548  -15.9287  -39.9965 C.3       6 UNK         0.1400 
     43 CB          2.9657  -14.8982  -39.3129 C.3       6 UNK        -0.1800 
     44 N           0.9772  -15.2265  -40.6947 N.am      6 UNK        -0.5000 
     45 C          -0.0867  -15.8190  -41.2551 C.2       5 UNK         0.5000 
     46 O          -0.3039  -17.0292  -41.1932 O.2       5 UNK        -0.5000 
     47 CA         -1.0393  -14.9124  -42.0598 C.3       5 UNK         0.1400 
     48 CB         -2.1981  -14.4266  -41.1779 C.3       5 UNK        -0.1800 
     49 N          -0.3819  -13.7534  -42.6693 N.am      5 UNK        -0.5000 
     50 C           0.6071  -13.8038  -43.5707 C.2       4 UNK         0.5000 
     51 O           1.1198  -14.8576  -43.9562 O.2       4 UNK        -0.5000 
     52 CA          1.0962  -12.4451  -44.1135 C.3       4 UNK         0.1400 
     53 CB          2.3135  -12.5758  -45.0462 C.3       4 UNK        -0.1800 
     54 N           0.0289  -11.7255  -44.8117 N.am      4 UNK        -0.5000 
     55 C          -0.9498  -11.0238  -44.2218 C.2       3 UNK         0.5000 
     56 O          -1.0554  -10.8995  -43.0005 O.2       3 UNK        -0.5000 
     57 CA         -2.0035  -10.3914  -45.1450 C.3       3 UNK         0.1400 
     58 CB         -1.4267   -9.1788  -45.8931 C.3       3 UNK        -0.1800 
     59 N          -2.4886  -11.3778  -46.1076 N.am      3 UNK        -0.5000 
     60 C          -3.5654  -12.1560  -45.9231 C.2       2 UNK         0.5000 
     61 O          -4.3380  -12.0416  -44.9710 O.2       2 UNK        -0.5000 
     62 CA         -3.8160  -13.2651  -46.9674 C.3       2 UNK         0.1400 
     63 CB         -4.7543  -12.7668  -48.0769 C.3       2 UNK        -0.1800 
     64 N          -2.5807  -13.7601  -47.5752 N.am      2 UNK        -0.5000 
     65 C          -1.6228  -14.4275  -46.9153 C.2       1 UNK         0.5000 
     66 O          -1.7454  -14.8018  -45.7509 O.2       1 UNK        -0.5000 
     67 C           1.7761  -22.9349  -46.7997 C.2       11 UNK         0.5000 
     68 O           1.9375  -23.6446  -47.7951 O.2       11 UNK        -0.5000 
     69 N           0.5633  -22.6514  -46.3010 N.am      12 UNK        -0.5000 
     70 CA         -0.7011  -23.0584  -46.9229 C.3       12 UNK         0.1400 
     71 CB         -1.8227  -22.0949  -46.4965 C.3       12 UNK        -0.1800 
     72 C          -1.0449  -24.5369  -46.6415 C.2       12 UNK         0.5000 
     73 O          -2.0747  -24.8369  -46.0357 O.2       12 UNK        -0.5000 
     74 N          -0.1651  -25.4394  -47.0914 N.am      13 UNK        -0.5000 
     75 CA         -0.3498  -26.8920  -47.0537 C.3       13 UNK         0.1400 
     76 CB          1.0233  -27.5680  -47.1876 C.3       13 UNK        -0.1800 
     77 C          -1.3118  -27.3927  -48.1511 C.2       13 UNK         0.5000 
     78 O          -1.8873  -28.4729  -48.0107 O.2       13 UNK        -0.5000 
     79 N          -1.4646  -26.5990  -49.2196 N.am      14 UNK        -0.5000 
     80 CA         -2.4230  -26.7993  -50.3056 C.3       14 UNK         0.1400 
     81 CB         -1.9135  -26.0320  -51.5391 C.3       14 UNK        -0.1800 
     82 C          -3.8422  -26.3390  -49.9060 C.2       14 UNK         0.5000 
     83 O          -4.0787  -25.9548  -48.7585 O.2       14 UNK        -0.5000 
     84 N          -4.7663  -26.3598  -50.8762 N.am      15 UNK        -0.5000 
     85 CA         -6.1545  -25.9121  -50.7212 C.3       15 UNK         0.1400 
     86 CB         -6.9412  -26.2921  -51.9859 C.3       15 UNK        -0.1800 
     87 C          -6.3024  -24.4020  -50.4388 C.2       15 UNK         0.5000 
     88 O          -7.3182  -23.9961  -49.8730 O.2       15 UNK        -0.5000 
     89 N          -5.2991  -23.6094  -50.8491 N.am      16 UNK        -0.5000 
     90 CA         -5.2306  -22.1456  -50.7649 C.3       16 UNK         0.1400 
     91 CB         -5.1992  -21.6668  -49.2994 C.3       16 UNK        -0.1800 
     92 C          -6.3227  -21.4590  -51.6107 C.2       16 UNK         0.5000 
     93 O          -6.8502  -20.4147  -51.2200 O.2       16 UNK        -0.5000 
     94 N          -6.6448  -22.0672  -52.7619 N.am      17 UNK        -0.5000 
     95 CA         -7.5936  -21.5545  -53.7462 C.3       17 UNK         0.1400 
     96 CB         -7.8568  -22.6328  -54.8087 C.3       17 UNK        -0.1800 
     97 C          -7.0486  -20.2604  -54.3715 C.2       17 UNK         0.5000 
     98 O          -6.0145  -20.3000  -55.0384 O.2       17 UNK        -0.5000 
     99 N          -7.7234  -19.1391  -54.0826 N.am      18 UNK        -0.5000 
    100 CA        -7.2930  -17.7654  -54.3656 C.3       18 UNK         0.1400 
    101 CB        -7.3150  -17.4697  -55.8801 C.3       18 UNK        -0.1800 
    102 C         -5.9582  -17.4091  -53.6708 C.2       18 UNK         0.5000 
    103 O         -5.1020  -16.7475  -54.2615 O.2       18 UNK        -0.5000 
    104 N         -5.8217  -17.8593  -52.4132 N.am      19 UNK        -0.5000 
    105 CA        -4.7035  -17.6313  -51.4970 C.3       19 UNK         0.1400 
    106 CB        -4.6519  -16.1457  -51.0698 C.3       19 UNK        -0.1800 
    107 C         -3.3810  -18.1815  -52.0655 C.2       19 UNK         0.5000 
    108 O         -3.2526  -19.3978  -52.2130 O.2       19 UNK        -0.5000 
    109 N         -2.4368  -17.2869  -52.3858 N.am      20 UNK        -0.5000 
    110 CA        -1.0846  -17.5875  -52.8632 C.3       20 UNK         0.1400 
    111 CB        -0.2577  -16.2919  -52.8357 C.3       20 UNK        -0.1800 
    112 C         -1.0202  -18.2495  -54.2557 C.2       20 UNK         0.5000 
    113 O          0.0479  -18.7231  -54.6441 O.2       20 UNK        -0.5000 
    114 N         -2.1469  -18.2882  -54.9821 N.am      21 UNK        -0.5000 
    115 CA        -2.3125  -19.0847  -56.2009 C.3       21 UNK         0.1400 
    116 CB        -3.5370  -18.5725  -56.9691 C.3       21 UNK        -0.1800 
    117 C         -2.4299  -20.5992  -55.9152 C.2       21 UNK         0.5000 
    118 O         -2.2274  -21.4016  -56.8282 O.2       21 UNK        -0.5000 
    119 N         -2.7321  -20.9595  -54.6607 N.am      22 UNK        -0.5000 
    120 CA        -2.7484  -22.3042  -54.0624 C.3       22 UNK         0.1400 
    121 C         -3.8491  -23.2690  -54.5788 C.2       22 UNK         0.5000 
    122 N         -4.1437  -23.3011  -55.8691 N.am      22 UNK        -0.7600 
    123 O         -4.4550  -23.9829  -53.7830 O.2       22 UNK        -0.5000 
    124 C124       -1.3599  -22.9969  -54.0556 C.3       23 UNK        -0.0398 
    125 S125       -0.0853  -21.9803  -53.2366 S.3       23 UNK        -0.2404 
    126 C126       -0.3078  -22.4622  -51.4987 C.3       23 UNK        -0.0205 
    127 H127       -0.4822  -10.9775  -50.2148 H         1 UNK         0.0600 
    128 H128        0.3038  -12.3946  -50.9186 H         1 UNK         0.0600 
    129 H129        1.2612  -11.2008  -50.0361 H         1 UNK         0.0600 
    130 H130       -0.0629  -14.2510  -49.7183 H         1 UNK         0.3000 
    131 H131        0.4898  -14.4077  -46.9424 H         1 UNK         0.0600 
    132 H132        0.9078  -16.2501  -48.5406 H         1 UNK         0.0800 
    133 H133        0.0597  -16.7340  -47.1088 H         1 UNK         0.0800 
    134 H134       -1.2763  -18.6053  -47.3497 H         1 UNK         0.0800 
    135 H135       -2.4165  -18.9879  -48.6070 H         1 UNK         0.0800 
    136 H136       -1.8413  -20.6604  -50.1570 H         1 UNK         0.1150 
    137 H137        2.2425  -21.7840  -50.8129 H         1 UNK         0.1150 
    138 H138        1.3133  -18.5529  -48.1614 H         1 UNK         0.1150 
    139 H139        3.5839  -18.9128  -48.7699 H         1 UNK         0.0800 
    140 H140        3.9012  -19.7901  -50.2426 H         1 UNK         0.0800 
    141 H141        2.6409  -20.3028  -46.7118 H         1 UNK         0.0800 
    142 H142        4.2209  -20.5527  -46.0339 H         1 UNK         0.0800 
    143 H143        3.8272  -23.0768  -46.2518 H         1 UNK         0.0600 
    144 H144        2.8430  -21.3057  -44.2624 H         1 UNK         0.3000 
    145 H145        2.8092  -23.8386  -41.7123 H         1 UNK         0.0600 
    146 H146        4.5409  -22.2937  -40.8428 H         1 UNK         0.0600 
    147 H147        5.1815  -23.2485  -42.1715 H         1 UNK         0.0600 
    148 H148        4.7338  -21.5665  -42.4364 H         1 UNK         0.0600 
    149 H149        2.2943  -20.9420  -42.2829 H         1 UNK         0.3000 
    150 H150       -1.0188  -21.1991  -41.1370 H         1 UNK         0.0600 
    151 H151        0.1381  -20.8832  -38.9292 H         1 UNK         0.0600 
    152 H152       -0.4786  -19.3663  -39.5648 H         1 UNK         0.0600 
    153 H153        1.2424  -19.7324  -39.6750 H         1 UNK         0.0600 
    154 H154        0.2733  -18.8616  -41.8407 H         1 UNK         0.3000 
    155 H155        0.5155  -19.2043  -45.3848 H         1 UNK         0.0600 
    156 H156       -1.8173  -18.5804  -45.0076 H         1 UNK         0.0600 
    157 H157       -0.8777  -17.0961  -45.0805 H         1 UNK         0.0600 
    158 H158       -1.4225  -17.7232  -43.5320 H         1 UNK         0.0600 
    159 H159        1.1512  -16.9795  -43.8417 H         1 UNK         0.3000 
    160 H160        4.4777  -17.8281  -42.8125 H         1 UNK         0.0600 
    161 H161        4.6240  -17.0491  -45.1440 H         1 UNK         0.0600 
    162 H162        4.8116  -15.6844  -44.0536 H         1 UNK         0.0600 
    163 H163        3.2911  -15.9303  -44.9095 H         1 UNK         0.0600 
    164 H164        2.5249  -15.6439  -42.5223 H         1 UNK         0.3000 
    165 H165        1.6032  -16.5548  -39.2239 H         1 UNK         0.0600 
    166 H166        2.4087  -14.2909  -38.5991 H         1 UNK         0.0600 
    167 H167        3.7677  -15.3912  -38.7618 H         1 UNK         0.0600 
    168 H168        3.4293  -14.2269  -40.0369 H         1 UNK         0.0600 
    169 H169        1.0724  -14.2266  -40.7925 H         1 UNK         0.3000 
    170 H170       -1.4583  -15.5079  -42.8718 H         1 UNK         0.0600 
    171 H171       -2.7287  -15.2685  -40.7310 H         1 UNK         0.0600 
    172 H172       -1.8459  -13.7899  -40.3654 H         1 UNK         0.0600 
    173 H173       -2.9239  -13.8581  -41.7602 H         1 UNK         0.0600 
    174 H174       -0.7574  -12.8393  -42.4398 H         1 UNK         0.3000 
    175 H175        1.4128  -11.8536  -43.2520 H         1 UNK         0.0600 
    176 H176        2.0794  -13.1364  -45.9499 H         1 UNK         0.0600 
    177 H177        2.6802  -11.5956  -45.3509 H         1 UNK         0.0600 
    178 H178        3.1366  -13.0884  -44.5465 H         1 UNK         0.0600 
    179 H179        0.0400  -11.7829  -45.8270 H         1 UNK         0.3000 
    180 H180       -2.8289  -10.0370  -44.5239 H         1 UNK         0.0600 
    181 H181       -0.5910   -9.4540  -46.5372 H         1 UNK         0.0600 
    182 H182       -1.0658   -8.4252  -45.1921 H         1 UNK         0.0600 
    183 H183       -2.1857   -8.7058  -46.5163 H         1 UNK         0.0600 
    184 H184       -1.8781  -11.5687  -46.8931 H         1 UNK         0.3000 
    185 H185       -4.3009  -14.0994  -46.4562 H         1 UNK         0.0600 
    186 H186       -5.6985  -12.4142  -47.6598 H         1 UNK         0.0600 
    187 H187       -4.3136  -11.9407  -48.6365 H         1 UNK         0.0600 
    188 H188       -4.9893  -13.5641  -48.7825 H         1 UNK         0.0600 
    189 H189       -2.4055  -13.4990  -48.5340 H         1 UNK         0.3000 
    190 H190        0.4826  -22.1268  -45.4336 H         1 UNK         0.3000 
    191 H191       -0.5968  -22.9571  -48.0054 H         1 UNK         0.0600 
    192 H192       -1.5473  -21.0577  -46.6836 H         1 UNK         0.0600 
    193 H193       -2.7372  -22.2956  -47.0542 H         1 UNK         0.0600 
    194 H194       -2.0623  -22.1941  -45.4378 H         1 UNK         0.0600 
    195 H195        0.6849  -25.0881  -47.5243 H         1 UNK         0.3000 
    196 H196       -0.7753  -27.1677  -46.0866 H         1 UNK         0.0600 
    197 H197        0.9313  -28.6538  -47.1368 H         1 UNK         0.0600 
    198 H198        1.6932  -27.2607  -46.3841 H         1 UNK         0.0600 
    199 H199        1.5022  -27.3219  -48.1362 H         1 UNK         0.0600 
    200 H200       -0.9644  -25.7239  -49.2206 H         1 UNK         0.3000 
    201 H201       -2.4679  -27.8631  -50.5477 H         1 UNK         0.0600 
    202 H202       -0.8815  -26.2957  -51.7722 H         1 UNK         0.0600 
    203 H203       -1.9568  -24.9556  -51.3795 H         1 UNK         0.0600 
    204 H204       -2.5062  -26.2567  -52.4265 H         1 UNK         0.0600 
    205 H205       -4.5028  -26.6793  -51.7973 H         1 UNK         0.3000 
    206 H206       -6.5878  -26.4470  -49.8736 H         1 UNK         0.0600 
    207 H207       -6.9198  -27.3685  -52.1567 H         1 UNK         0.0600 
    208 H208       -7.9884  -25.9992  -51.8985 H         1 UNK         0.0600 
    209 H209       -6.5373  -25.8017  -52.8729 H         1 UNK         0.0600 
    210 H210       -4.5526  -24.0542  -51.3647 H         1 UNK         0.3000 
    211 H211       -4.2795  -21.8556  -51.2083 H         1 UNK         0.0600 
    212 H212       -6.1538  -21.8267  -48.7979 H         1 UNK         0.0600 
    213 H213       -4.9745  -20.6011  -49.2432 H         1 UNK         0.0600 
    214 H214       -4.4306  -22.1914  -48.7332 H         1 UNK         0.0600 
    215 H215       -6.1210  -22.8920  -53.0304 H         1 UNK         0.3000 
    216 H216       -8.5355  -21.3438  -53.2356 H         1 UNK         0.0600 
    217 H217       -8.5819  -22.2840  -55.5449 H         1 UNK         0.0600 
    218 H218       -8.2589  -23.5406  -54.3584 H         1 UNK         0.0600 
    219 H219       -6.9473  -22.9010  -55.3462 H         1 UNK         0.0600 
    220 H220       -8.5517  -19.2201  -53.5090 H         1 UNK         0.3000 
    221 H221       -8.0385  -17.1151  -53.9057 H         1 UNK         0.0600 
    222 H222       -6.6275  -18.1047  -56.4356 H         1 UNK         0.0600 
    223 H223       -8.3120  -17.6253  -56.2920 H         1 UNK         0.0600 
    224 H224       -7.0413  -16.4337  -56.0828 H         1 UNK         0.0600 
    225 H225       -6.5315  -18.4903  -52.0580 H         1 UNK         0.3000 
    226 H226       -4.9132  -18.2210  -50.6033 H         1 UNK         0.0600 
    227 H227       -5.5908  -15.8453  -50.6046 H         1 UNK         0.0600 
    228 H228       -3.8665  -15.9711  -50.3345 H         1 UNK         0.0600 
    229 H229       -4.4763  -15.4751  -51.9115 H         1 UNK         0.0600 
    230 H230       -2.6538  -16.3096  -52.2589 H         1 UNK         0.3000 
    231 H231       -0.6372  -18.2917  -52.1580 H         1 UNK         0.0600 
    232 H232       -0.6713  -15.5378  -53.5062 H         1 UNK         0.0600 
    233 H233        0.7721  -16.4773  -53.1440 H         1 UNK         0.0600 
    234 H234       -0.2207  -15.8681  -51.8323 H         1 UNK         0.0600 
    235 H235       -2.9794  -17.8516  -54.6067 H         1 UNK         0.3000 
    236 H236       -1.4340  -18.9404  -56.8330 H         1 UNK         0.0600 
    237 H237       -3.4229  -17.5239  -57.2440 H         1 UNK         0.0600 
    238 H238       -3.6915  -19.1385  -57.8885 H         1 UNK         0.0600 
    239 H239       -4.4397  -18.6648  -56.3691 H         1 UNK         0.0600 
    240 H240       -2.9121  -20.2180  -53.9919 H         1 UNK         0.3000 
    241 H241       -3.0028  -22.1175  -53.0214 H         1 UNK         0.0600 
    242 H242       -4.8573  -23.9212  -56.2143 H         1 UNK         0.3800 
    243 H243       -3.6274  -22.7000  -56.5031 H         1 UNK         0.3800 
    244 H244       -1.0313  -23.1970  -55.0765 H         1 UNK         0.0800 
    245 H245       -1.4066  -23.9676  -53.5608 H         1 UNK         0.0800 
    246 H246       -1.3575  -22.6863  -51.3083 H         1 UNK         0.0800 
    247 H247        0.2505  -23.3779  -51.2978 H         1 UNK         0.0800 
@<TRIPOS>BOND
     1    1    2 1    
     2    1  127 1    
     3    1  128 1    
     4    1  129 1    
     5    2    3 2    
     6    2    4 am   BACKBONE|DICT|INTERRES
     7    4    5 1    
     8    4  130 1    
     9    5    6 1    
    10    5   65 1    
    11    5  131 1    
    12    6    7 1    
    13    6  132 1    
    14    6  133 1    
    15    7    8 1    
    16    8    9 1    
    17    8  134 1    
    18    8  135 1    
    19    9   10 ar   
    20    9   14 ar   
    21   10   11 ar   
    22   10  136 1    
    23   11   12 ar   
    24   11  126 1    
    25   12   13 ar   
    26   12  137 1    
    27   13   14 ar   
    28   13   15 1    
    29   14  138 1    
    30   15   16 1    
    31   15  139 1    
    32   15  140 1    
    33   16   17 1    
    34   17   18 1    
    35   17  141 1    
    36   17  142 1    
    37   18   19 1    
    38   18   67 1    
    39   18  143 1    
    40   19   20 am   BACKBONE|DICT|INTERRES
    41   19  144 1    
    42   20   21 2    
    43   20   22 1    
    44   22   23 1    
    45   22   24 1    
    46   22  145 1    
    47   23  146 1    
    48   23  147 1    
    49   23  148 1    
    50   24   25 am   BACKBONE|DICT|INTERRES
    51   24  149 1    
    52   25   26 2    
    53   25   27 1    
    54   27   28 1    
    55   27   29 1    
    56   27  150 1    
    57   28  151 1    
    58   28  152 1    
    59   28  153 1    
    60   29   30 am   BACKBONE|DICT|INTERRES
    61   29  154 1    
    62   30   31 2    
    63   30   32 1    
    64   32   33 1    
    65   32   34 1    
    66   32  155 1    
    67   33  156 1    
    68   33  157 1    
    69   33  158 1    
    70   34   35 am   BACKBONE|DICT|INTERRES
    71   34  159 1    
    72   35   36 2    
    73   35   37 1    
    74   37   38 1    
    75   37   39 1    
    76   37  160 1    
    77   38  161 1    
    78   38  162 1    
    79   38  163 1    
    80   39   40 am   BACKBONE|DICT|INTERRES
    81   39  164 1    
    82   40   41 2    
    83   40   42 1    
    84   42   43 1    
    85   42   44 1    
    86   42  165 1    
    87   43  166 1    
    88   43  167 1    
    89   43  168 1    
    90   44   45 am   BACKBONE|DICT|INTERRES
    91   44  169 1    
    92   45   46 2    
    93   45   47 1    
    94   47   48 1    
    95   47   49 1    
    96   47  170 1    
    97   48  171 1    
    98   48  172 1    
    99   48  173 1    
   100   49   50 am   BACKBONE|DICT|INTERRES
   101   49  174 1    
   102   50   51 2    
   103   50   52 1    
   104   52   53 1    
   105   52   54 1    
   106   52  175 1    
   107   53  176 1    
   108   53  177 1    
   109   53  178 1    
   110   54   55 am   BACKBONE|DICT|INTERRES
   111   54  179 1    
   112   55   56 2    
   113   55   57 1    
   114   57   58 1    
   115   57   59 1    
   116   57  180 1    
   117   58  181 1    
   118   58  182 1    
   119   58  183 1    
   120   59   60 am   BACKBONE|DICT|INTERRES
   121   59  184 1    
   122   60   61 2    
   123   60   62 1    
   124   62   63 1    
   125   62   64 1    
   126   62  185 1    
   127   63  186 1    
   128   63  187 1    
   129   63  188 1    
   130   64   65 am   BACKBONE|DICT|INTERRES
   131   64  189 1    
   132   65   66 2    
   133   67   68 2    
   134   67   69 am   BACKBONE|DICT|INTERRES
   135   69   70 1    
   136   69  190 1    
   137   70   71 1    
   138   70   72 1    
   139   70  191 1    
   140   71  192 1    
   141   71  193 1    
   142   71  194 1    
   143   72   73 2    
   144   72   74 am   BACKBONE|DICT|INTERRES
   145   74   75 1    
   146   74  195 1    
   147   75   76 1    
   148   75   77 1    
   149   75  196 1    
   150   76  197 1    
   151   76  198 1    
   152   76  199 1    
   153   77   78 2    
   154   77   79 am   BACKBONE|DICT|INTERRES
   155   79   80 1    
   156   79  200 1    
   157   80   81 1    
   158   80   82 1    
   159   80  201 1    
   160   81  202 1    
   161   81  203 1    
   162   81  204 1    
   163   82   83 2    
   164   82   84 am   BACKBONE|DICT|INTERRES
   165   84   85 1    
   166   84  205 1    
   167   85   86 1    
   168   85   87 1    
   169   85  206 1    
   170   86  207 1    
   171   86  208 1    
   172   86  209 1    
   173   87   88 2    
   174   87   89 am   BACKBONE|DICT|INTERRES
   175   89   90 1    
   176   89  210 1    
   177   90   91 1    
   178   90   92 1    
   179   90  211 1    
   180   91  212 1    
   181   91  213 1    
   182   91  214 1    
   183   92   93 2    
   184   92   94 am   BACKBONE|DICT|INTERRES
   185   94   95 1    
   186   94  215 1    
   187   95   96 1    
   188   95   97 1    
   189   95  216 1    
   190   96  217 1    
   191   96  218 1    
   192   96  219 1    
   193   97   98 2    
   194   97   99 am   BACKBONE|DICT|INTERRES
   195   99  100 1    
   196   99  220 1    
   197  100  101 1    
   198  100  102 1    
   199  100  221 1    
   200  101  222 1    
   201  101  223 1    
   202  101  224 1    
   203  102  103 2    
   204  102  104 am   BACKBONE|DICT|INTERRES
   205  104  105 1    
   206  104  225 1    
   207  105  106 1    
   208  105  107 1    
   209  105  226 1    
   210  106  227 1    
   211  106  228 1    
   212  106  229 1    
   213  107  108 2    
   214  107  109 am   BACKBONE|DICT|INTERRES
   215  109  110 1    
   216  109  230 1    
   217  110  111 1    
   218  110  112 1    
   219  110  231 1    
   220  111  232 1    
   221  111  233 1    
   222  111  234 1    
   223  112  113 2    
   224  112  114 am   BACKBONE|DICT|INTERRES
   225  114  115 1    
   226  114  235 1    
   227  115  116 1    
   228  115  117 1    
   229  115  236 1    
   230  116  237 1    
   231  116  238 1    
   232  116  239 1    
   233  117  118 2    
   234  117  119 am   BACKBONE|DICT|INTERRES
   235  119  120 1    
   236  119  240 1    
   237  120  121 1    
   238  120  124 1    
   239  120  241 1    
   240  121  122 am   BACKBONE|DICT|INTERRES
   241  121  123 2    
   242  122  242 1    
   243  122  243 1    
   244  124  125 1    
   245  124  244 1    
   246  124  245 1    
   247  125  126 1    
   248  126  246 1    
   249  126  247 1    
@<TRIPOS>SUBSTRUCTURE
     1 UNK         1 GROUP             0       ****    0 ROOT    
