@<TRIPOS>MOLECULE
3R540
247   249    1
SMALL
USER_CHARGES


@<TRIPOS>ATOM
      1 CA          1.7243  -15.3372  -50.8789 C.3       0 UNK        -0.1800 
      2 C           1.5202  -14.9333  -49.4254 C.2       0 UNK         0.5000 
      3 O           2.4755  -14.9338  -48.6495 O.2       0 UNK        -0.5000 
      4 N           0.2741  -14.6139  -49.0545 N.am      1 UNK        -0.5000 
      5 CA         -0.1394  -14.2130  -47.7072 C.3       1 UNK         0.1400 
      6 C6         -1.6858  -14.1627  -47.5842 C.3       23 UNK        -0.0398 
      7 S7         -2.4370  -15.7552  -47.0966 S.3       23 UNK        -0.2404 
      8 C8         -2.7728  -16.5842  -48.6968 C.3       23 UNK        -0.0205 
      9 C9         -1.6663  -17.5038  -49.2258 C.ar      23 UNK        -0.0193 
     10 C10        -1.8865  -18.2158  -50.4100 C.ar      23 UNK        -0.1150 
     11 C11        -0.8993  -19.0577  -50.9358 C.ar      23 UNK        -0.0193 
     12 C12         0.3196  -19.1930  -50.2665 C.ar      23 UNK        -0.1150 
     13 C13         0.5568  -18.4904  -49.0849 C.ar      23 UNK        -0.0193 
     14 C14        -0.4404  -17.6619  -48.5714 C.ar      23 UNK        -0.1150 
     15 C15         1.9065  -18.5738  -48.3892 C.3       23 UNK        -0.0205 
     16 S16         1.9925  -19.9226  -47.1718 S.3       23 UNK        -0.2404 
     17 C17         0.8139  -19.3912  -45.8811 C.3       23 UNK        -0.0398 
     18 CA         -0.3480  -20.4002  -45.7688 C.3       11 UNK         0.1400 
     19 N           0.1404  -21.6594  -45.2122 N.am      11 UNK        -0.5000 
     20 C          -0.5336  -22.8031  -45.0640 C.2       10 UNK         0.5000 
     21 O          -1.6822  -22.9760  -45.4721 O.2       10 UNK        -0.5000 
     22 CA          0.1914  -23.9015  -44.2599 C.3       10 UNK         0.1400 
     23 CB          0.8845  -24.8862  -45.2121 C.3       10 UNK        -0.1800 
     24 N           1.1837  -23.3597  -43.3175 N.am      10 UNK        -0.5000 
     25 C           0.9152  -22.5211  -42.3060 C.2       9 UNK         0.5000 
     26 O          -0.2244  -22.1511  -42.0264 O.2       9 UNK        -0.5000 
     27 CA          2.1023  -21.9261  -41.5273 C.3       9 UNK         0.1400 
     28 CB          2.5911  -22.8846  -40.4252 C.3       9 UNK        -0.1800 
     29 N           3.2068  -21.4473  -42.3713 N.am      9 UNK        -0.5000 
     30 C           4.0945  -22.1582  -43.0851 C.2       8 UNK         0.5000 
     31 O           4.0435  -23.3831  -43.2038 O.2       8 UNK        -0.5000 
     32 CA          5.2202  -21.3849  -43.8085 C.3       8 UNK         0.1400 
     33 CB          5.0616  -21.4953  -45.3314 C.3       8 UNK        -0.1800 
     34 N           5.3015  -19.9672  -43.4440 N.am      8 UNK        -0.5000 
     35 C           5.7565  -19.5016  -42.2728 C.2       7 UNK         0.5000 
     36 O           6.2183  -20.2261  -41.3905 O.2       7 UNK        -0.5000 
     37 CA          5.6724  -17.9796  -42.0260 C.3       7 UNK         0.1400 
     38 CB          7.0646  -17.3424  -42.1596 C.3       7 UNK        -0.1800 
     39 N           4.7332  -17.2335  -42.8755 N.am      7 UNK        -0.5000 
     40 C           3.4131  -17.4385  -42.9700 C.2       6 UNK         0.5000 
     41 O           2.8258  -18.3975  -42.4565 O.2       6 UNK        -0.5000 
     42 CA          2.6207  -16.4030  -43.7873 C.3       6 UNK         0.1400 
     43 CB          2.9704  -16.4660  -45.2838 C.3       6 UNK        -0.1800 
     44 N           1.2021  -16.6656  -43.5794 N.am      6 UNK        -0.5000 
     45 C           0.2086  -15.7780  -43.6724 C.2       5 UNK         0.5000 
     46 O           0.3513  -14.6300  -44.1069 O.2       5 UNK        -0.5000 
     47 CA         -1.1676  -16.2457  -43.1654 C.3       5 UNK         0.1400 
     48 CB         -1.0632  -17.0980  -41.8825 C.3       5 UNK        -0.1800 
     49 N          -1.9909  -15.0739  -42.9002 N.am      5 UNK        -0.5000 
     50 C          -3.3277  -15.0205  -42.9038 C.2       4 UNK         0.5000 
     51 O          -4.0485  -15.9922  -43.1324 O.2       4 UNK        -0.5000 
     52 CA         -3.9741  -13.6574  -42.5695 C.3       4 UNK         0.1400 
     53 CB         -4.6676  -13.7125  -41.1986 C.3       4 UNK        -0.1800 
     54 N          -3.0063  -12.5552  -42.5590 N.am      4 UNK        -0.5000 
     55 C          -2.5354  -11.9500  -43.6561 C.2       3 UNK         0.5000 
     56 O          -2.9519  -12.1842  -44.7905 O.2       3 UNK        -0.5000 
     57 CA         -1.3705  -10.9641  -43.4792 C.3       3 UNK         0.1400 
     58 CB         -0.9656  -10.6925  -42.0141 C.3       3 UNK        -0.1800 
     59 N          -0.2392  -11.5153  -44.2134 N.am      3 UNK        -0.5000 
     60 C           0.7431  -10.8156  -44.7904 C.2       2 UNK         0.5000 
     61 O           0.8483   -9.5903  -44.7238 O.2       2 UNK        -0.5000 
     62 CA          1.7747  -11.6301  -45.5909 C.3       2 UNK         0.1400 
     63 CB          2.9434  -12.0543  -44.6879 C.3       2 UNK        -0.1800 
     64 N           1.1715  -12.8284  -46.1730 N.am      2 UNK        -0.5000 
     65 C           0.5004  -12.8610  -47.3298 C.2       1 UNK         0.5000 
     66 O           0.3659  -11.8896  -48.0778 O.2       1 UNK        -0.5000 
     67 C          -1.5500  -19.8074  -44.9974 C.2       11 UNK         0.5000 
     68 O          -2.2948  -19.0282  -45.5869 O.2       11 UNK        -0.5000 
     69 N          -1.7815  -20.2181  -43.7383 N.am      12 UNK        -0.5000 
     70 CA         -3.0009  -19.8965  -42.9833 C.3       12 UNK         0.1400 
     71 CB         -2.8198  -20.3071  -41.5141 C.3       12 UNK        -0.1800 
     72 C          -4.2660  -20.5602  -43.5670 C.2       12 UNK         0.5000 
     73 O          -5.3637  -20.0317  -43.3935 O.2       12 UNK        -0.5000 
     74 N          -4.0842  -21.6838  -44.2735 N.am      13 UNK        -0.5000 
     75 CA         -5.1053  -22.3763  -45.0592 C.3       13 UNK         0.1400 
     76 CB         -5.0346  -23.8796  -44.7357 C.3       13 UNK        -0.1800 
     77 C          -4.9079  -22.1078  -46.5665 C.2       13 UNK         0.5000 
     78 O          -5.3513  -22.9093  -47.3906 O.2       13 UNK        -0.5000 
     79 N          -4.2024  -21.0136  -46.9014 N.am      14 UNK        -0.5000 
     80 CA         -3.8221  -20.5618  -48.2446 C.3       14 UNK         0.1400 
     81 CB         -5.0565  -20.0330  -49.0010 C.3       14 UNK        -0.1800 
     82 C          -3.0154  -21.6054  -49.0467 C.2       14 UNK         0.5000 
     83 O          -3.0919  -21.6295  -50.2744 O.2       14 UNK        -0.5000 
     84 N          -2.2719  -22.4637  -48.3291 N.am      15 UNK        -0.5000 
     85 CA         -1.4847  -23.5868  -48.8411 C.3       15 UNK         0.1400 
     86 CB         -0.2379  -23.0764  -49.5915 C.3       15 UNK        -0.1800 
     87 C          -2.3308  -24.6227  -49.6179 C.2       15 UNK         0.5000 
     88 O          -1.8420  -25.2429  -50.5647 O.2       15 UNK        -0.5000 
     89 N          -3.5860  -24.8028  -49.1747 N.am      16 UNK        -0.5000 
     90 CA         -4.5847  -25.7478  -49.6759 C.3       16 UNK         0.1400 
     91 CB         -4.1800  -27.1961  -49.3190 C.3       16 UNK        -0.1800 
     92 C          -4.8920  -25.5239  -51.1706 C.2       16 UNK         0.5000 
     93 O          -5.4220  -24.4704  -51.5233 O.2       16 UNK        -0.5000 
     94 N          -4.5543  -26.5007  -52.0243 N.am      17 UNK        -0.5000 
     95 CA         -4.7934  -26.4907  -53.4708 C.3       17 UNK         0.1400 
     96 CB         -4.3754  -27.8494  -54.0528 C.3       17 UNK        -0.1800 
     97 C          -4.0937  -25.3436  -54.2271 C.2       17 UNK         0.5000 
     98 O          -4.5587  -24.9582  -55.3008 O.2       17 UNK        -0.5000 
     99 N          -3.0149  -24.7943  -53.6500 N.am      18 UNK        -0.5000 
    100 CA        -2.2809  -23.6468  -54.1848 C.3       18 UNK         0.1400 
    101 CB        -0.9648  -23.4870  -53.4161 C.3       18 UNK        -0.1800 
    102 C         -3.0829  -22.3305  -54.1653 C.2       18 UNK         0.5000 
    103 O         -2.7268  -21.4081  -54.8985 O.2       18 UNK        -0.5000 
    104 N         -4.1686  -22.2610  -53.3786 N.am      19 UNK        -0.5000 
    105 CA        -5.0790  -21.1144  -53.2965 C.3       19 UNK         0.1400 
    106 CB        -6.1873  -21.4201  -52.2809 C.3       19 UNK        -0.1800 
    107 C         -5.6986  -20.7203  -54.6513 C.2       19 UNK         0.5000 
    108 O         -5.9424  -19.5367  -54.8855 O.2       19 UNK        -0.5000 
    109 N         -5.8928  -21.7094  -55.5356 N.am      20 UNK        -0.5000 
    110 CA        -6.3591  -21.5241  -56.9096 C.3       20 UNK         0.1400 
    111 CB        -6.6965  -22.8978  -57.5084 C.3       20 UNK        -0.1800 
    112 C         -5.3496  -20.7776  -57.8059 C.2       20 UNK         0.5000 
    113 O         -5.7677  -20.1295  -58.7662 O.2       20 UNK        -0.5000 
    114 N         -4.0523  -20.8735  -57.4822 N.am      21 UNK        -0.5000 
    115 CA        -2.9781  -20.1487  -58.1572 C.3       21 UNK         0.1400 
    116 CB        -1.6959  -20.9971  -58.1466 C.3       21 UNK        -0.1800 
    117 C         -2.7373  -18.7802  -57.4989 C.2       21 UNK         0.5000 
    118 O         -2.5557  -17.7933  -58.2135 O.2       21 UNK        -0.5000 
    119 N         -2.7402  -18.7417  -56.1587 N.am      22 UNK        -0.5000 
    120 CA        -2.5362  -17.5158  -55.3675 C.3       22 UNK         0.1400 
    121 C         -3.7080  -16.4973  -55.4551 C.2       22 UNK         0.5000 
    122 N         -4.9548  -16.9323  -55.5873 N.am      22 UNK        -0.7600 
    123 O         -3.4801  -15.2917  -55.4065 O.2       22 UNK        -0.5000 
    124 C124       -2.1989  -17.8137  -53.8858 C.3       23 UNK        -0.0398 
    125 S125       -0.7064  -18.8462  -53.6924 S.3       23 UNK        -0.2404 
    126 C126       -1.1410  -19.8278  -52.2240 C.3       23 UNK        -0.0205 
    127 H127        2.1630  -16.3338  -50.9311 H         1 UNK         0.0600 
    128 H128        2.3989  -14.6383  -51.3732 H         1 UNK         0.0600 
    129 H129        0.7840  -15.3553  -51.4307 H         1 UNK         0.0600 
    130 H130       -0.4581  -14.6247  -49.7484 H         1 UNK         0.3000 
    131 H131        0.2413  -14.9590  -47.0069 H         1 UNK         0.0600 
    132 H132       -2.1481  -13.7899  -48.4993 H         1 UNK         0.0800 
    133 H133       -1.9851  -13.4580  -46.8080 H         1 UNK         0.0800 
    134 H134       -3.0135  -15.8359  -49.4527 H         1 UNK         0.0800 
    135 H135       -3.6738  -17.1851  -48.5667 H         1 UNK         0.0800 
    136 H136       -2.8301  -18.1137  -50.9265 H         1 UNK         0.1150 
    137 H137        1.0892  -19.8342  -50.6726 H         1 UNK         0.1150 
    138 H138       -0.2337  -17.1117  -47.6700 H         1 UNK         0.1150 
    139 H139        2.6906  -18.7258  -49.1323 H         1 UNK         0.0800 
    140 H140        2.1386  -17.6259  -47.9035 H         1 UNK         0.0800 
    141 H141        0.4585  -18.3841  -46.0870 H         1 UNK         0.0800 
    142 H142        1.3496  -19.3202  -44.9332 H         1 UNK         0.0800 
    143 H143       -0.7149  -20.6098  -46.7757 H         1 UNK         0.0600 
    144 H144        1.0857  -21.6404  -44.8604 H         1 UNK         0.3000 
    145 H145       -0.5628  -24.4418  -43.6847 H         1 UNK         0.0600 
    146 H146        1.3470  -25.7062  -44.6624 H         1 UNK         0.0600 
    147 H147        0.1696  -25.3255  -45.9093 H         1 UNK         0.0600 
    148 H148        1.6615  -24.3970  -45.8011 H         1 UNK         0.0600 
    149 H149        2.1579  -23.6074  -43.4690 H         1 UNK         0.3000 
    150 H150        1.7231  -21.0330  -41.0276 H         1 UNK         0.0600 
    151 H151        1.7824  -23.1224  -39.7331 H         1 UNK         0.0600 
    152 H152        3.3961  -22.4364  -39.8428 H         1 UNK         0.0600 
    153 H153        2.9557  -23.8281  -40.8320 H         1 UNK         0.0600 
    154 H154        3.3058  -20.4373  -42.3896 H         1 UNK         0.3000 
    155 H155        6.1625  -21.8629  -43.5332 H         1 UNK         0.0600 
    156 H156        4.1339  -21.0361  -45.6666 H         1 UNK         0.0600 
    157 H157        5.0465  -22.5377  -45.6525 H         1 UNK         0.0600 
    158 H158        5.8861  -21.0083  -45.8524 H         1 UNK         0.0600 
    159 H159        4.9417  -19.3033  -44.1134 H         1 UNK         0.3000 
    160 H160        5.3401  -17.8505  -40.9939 H         1 UNK         0.0600 
    161 H161        7.4368  -17.4038  -43.1830 H         1 UNK         0.0600 
    162 H162        7.7900  -17.8425  -41.5162 H         1 UNK         0.0600 
    163 H163        7.0487  -16.2917  -41.8692 H         1 UNK         0.0600 
    164 H164        5.1264  -16.4377  -43.3570 H         1 UNK         0.3000 
    165 H165        2.8560  -15.4097  -43.3989 H         1 UNK         0.0600 
    166 H166        2.2973  -15.8536  -45.8831 H         1 UNK         0.0600 
    167 H167        3.9810  -16.0992  -45.4644 H         1 UNK         0.0600 
    168 H168        2.9263  -17.4855  -45.6619 H         1 UNK         0.0600 
    169 H169        1.0328  -17.5574  -43.1303 H         1 UNK         0.3000 
    170 H170       -1.6285  -16.8324  -43.9623 H         1 UNK         0.0600 
    171 H171       -0.4986  -16.5824  -41.1046 H         1 UNK         0.0600 
    172 H172       -2.0474  -17.3244  -41.4733 H         1 UNK         0.0600 
    173 H173       -0.5699  -18.0513  -42.0733 H         1 UNK         0.0600 
    174 H174       -1.4705  -14.2202  -42.7597 H         1 UNK         0.3000 
    175 H175       -4.7339  -13.4594  -43.3285 H         1 UNK         0.0600 
    176 H176       -3.9578  -13.9176  -40.3963 H         1 UNK         0.0600 
    177 H177       -5.1692  -12.7715  -40.9722 H         1 UNK         0.0600 
    178 H178       -5.4255  -14.4966  -41.1745 H         1 UNK         0.0600 
    179 H179       -2.6194  -12.3035  -41.6606 H         1 UNK         0.3000 
    180 H180       -1.6805  -10.0235  -43.9391 H         1 UNK         0.0600 
    181 H181       -0.1691   -9.9499  -41.9632 H         1 UNK         0.0600 
    182 H182       -0.6037  -11.5929  -41.5161 H         1 UNK         0.0600 
    183 H183       -1.8032  -10.2973  -41.4380 H         1 UNK         0.0600 
    184 H184       -0.2466  -12.5199  -44.3450 H         1 UNK         0.3000 
    185 H185        2.1676  -10.9953  -46.3881 H         1 UNK         0.0600 
    186 H186        3.6976  -12.6031  -45.2523 H         1 UNK         0.0600 
    187 H187        3.4334  -11.1843  -44.2490 H         1 UNK         0.0600 
    188 H188        2.6087  -12.6922  -43.8685 H         1 UNK         0.0600 
    189 H189        1.1716  -13.6543  -45.5821 H         1 UNK         0.3000 
    190 H190       -1.1483  -20.8775  -43.2969 H         1 UNK         0.3000 
    191 H191       -3.1520  -18.8162  -43.0251 H         1 UNK         0.0600 
    192 H192       -3.6651  -19.9738  -40.9110 H         1 UNK         0.0600 
    193 H193       -1.9197  -19.8706  -41.0822 H         1 UNK         0.0600 
    194 H194       -2.7487  -21.3901  -41.4064 H         1 UNK         0.0600 
    195 H195       -3.1421  -22.0410  -44.3890 H         1 UNK         0.3000 
    196 H196       -6.1018  -22.0171  -44.7954 H         1 UNK         0.0600 
    197 H197       -4.0822  -24.3132  -45.0432 H         1 UNK         0.0600 
    198 H198       -5.1539  -24.0578  -43.6669 H         1 UNK         0.0600 
    199 H199       -5.8266  -24.4302  -45.2446 H         1 UNK         0.0600 
    200 H200       -3.8678  -20.4214  -46.1512 H         1 UNK         0.3000 
    201 H201       -3.1437  -19.7212  -48.0991 H         1 UNK         0.0600 
    202 H202       -4.7829  -19.6343  -49.9785 H         1 UNK         0.0600 
    203 H203       -5.5373  -19.2263  -48.4481 H         1 UNK         0.0600 
    204 H204       -5.7973  -20.8167  -49.1575 H         1 UNK         0.0600 
    205 H205       -2.3011  -22.3971  -47.3176 H         1 UNK         0.3000 
    206 H206       -1.1245  -24.1254  -47.9640 H         1 UNK         0.0600 
    207 H207        0.4144  -22.5189  -48.9188 H         1 UNK         0.0600 
    208 H208        0.3492  -23.8983  -50.0022 H         1 UNK         0.0600 
    209 H209       -0.4999  -22.4102  -50.4109 H         1 UNK         0.0600 
    210 H210       -3.9233  -24.1763  -48.4529 H         1 UNK         0.3000 
    211 H211       -5.5096  -25.5245  -49.1421 H         1 UNK         0.0600 
    212 H212       -4.9452  -27.9078  -49.6315 H         1 UNK         0.0600 
    213 H213       -4.0623  -27.3093  -48.2412 H         1 UNK         0.0600 
    214 H214       -3.2382  -27.4910  -49.7829 H         1 UNK         0.0600 
    215 H215       -4.0965  -27.3196  -51.6513 H         1 UNK         0.3000 
    216 H216       -5.8674  -26.3684  -53.6250 H         1 UNK         0.0600 
    217 H217       -3.3126  -28.0416  -53.9006 H         1 UNK         0.0600 
    218 H218       -4.5661  -27.8909  -55.1262 H         1 UNK         0.0600 
    219 H219       -4.9345  -28.6651  -53.5940 H         1 UNK         0.0600 
    220 H220       -2.7112  -25.1482  -52.7509 H         1 UNK         0.3000 
    221 H221       -2.0388  -23.8601  -55.2280 H         1 UNK         0.0600 
    222 H222       -0.3625  -24.3943  -53.4631 H         1 UNK         0.0600 
    223 H223       -1.1540  -23.2623  -52.3686 H         1 UNK         0.0600 
    224 H224       -0.3655  -22.6738  -53.8276 H         1 UNK         0.0600 
    225 H225       -4.3953  -23.0524  -52.7868 H         1 UNK         0.3000 
    226 H226       -4.5039  -20.2628  -52.9302 H         1 UNK         0.0600 
    227 H227       -6.8293  -22.2343  -52.6193 H         1 UNK         0.0600 
    228 H228       -5.7667  -21.7109  -51.3192 H         1 UNK         0.0600 
    229 H229       -6.8186  -20.5467  -52.1136 H         1 UNK         0.0600 
    230 H230       -5.6412  -22.6511  -55.2663 H         1 UNK         0.3000 
    231 H231       -7.2742  -20.9292  -56.8780 H         1 UNK         0.0600 
    232 H232       -5.8197  -23.5459  -57.5449 H         1 UNK         0.0600 
    233 H233       -7.0753  -22.7988  -58.5265 H         1 UNK         0.0600 
    234 H234       -7.4642  -23.4055  -56.9243 H         1 UNK         0.0600 
    235 H235       -3.7916  -21.3733  -56.6406 H         1 UNK         0.3000 
    236 H236       -3.2513  -19.9777  -59.2007 H         1 UNK         0.0600 
    237 H237       -1.3365  -21.1842  -57.1346 H         1 UNK         0.0600 
    238 H238       -1.8582  -21.9615  -58.6279 H         1 UNK         0.0600 
    239 H239       -0.8944  -20.4937  -58.6885 H         1 UNK         0.0600 
    240 H240       -2.8316  -19.6099  -55.6405 H         1 UNK         0.3000 
    241 H241       -1.6664  -17.0105  -55.7926 H         1 UNK         0.0600 
    242 H242       -5.7041  -16.2622  -55.6502 H         1 UNK         0.3800 
    243 H243       -5.1790  -17.9224  -55.5362 H         1 UNK         0.3800 
    244 H244       -3.0484  -18.3030  -53.4081 H         1 UNK         0.0800 
    245 H245       -2.0289  -16.8865  -53.3354 H         1 UNK         0.0800 
    246 H246       -2.1780  -20.1562  -52.2805 H         1 UNK         0.0800 
    247 H247       -0.5403  -20.7372  -52.2261 H         1 UNK         0.0800 
@<TRIPOS>BOND
     1    1    2 1    
     2    1  127 1    
     3    1  128 1    
     4    1  129 1    
     5    2    3 2    
     6    2    4 am   BACKBONE|DICT|INTERRES
     7    4    5 1    
     8    4  130 1    
     9    5    6 1    
    10    5   65 1    
    11    5  131 1    
    12    6    7 1    
    13    6  132 1    
    14    6  133 1    
    15    7    8 1    
    16    8    9 1    
    17    8  134 1    
    18    8  135 1    
    19    9   10 ar   
    20    9   14 ar   
    21   10   11 ar   
    22   10  136 1    
    23   11   12 ar   
    24   11  126 1    
    25   12   13 ar   
    26   12  137 1    
    27   13   14 ar   
    28   13   15 1    
    29   14  138 1    
    30   15   16 1    
    31   15  139 1    
    32   15  140 1    
    33   16   17 1    
    34   17   18 1    
    35   17  141 1    
    36   17  142 1    
    37   18   19 1    
    38   18   67 1    
    39   18  143 1    
    40   19   20 am   BACKBONE|DICT|INTERRES
    41   19  144 1    
    42   20   21 2    
    43   20   22 1    
    44   22   23 1    
    45   22   24 1    
    46   22  145 1    
    47   23  146 1    
    48   23  147 1    
    49   23  148 1    
    50   24   25 am   BACKBONE|DICT|INTERRES
    51   24  149 1    
    52   25   26 2    
    53   25   27 1    
    54   27   28 1    
    55   27   29 1    
    56   27  150 1    
    57   28  151 1    
    58   28  152 1    
    59   28  153 1    
    60   29   30 am   BACKBONE|DICT|INTERRES
    61   29  154 1    
    62   30   31 2    
    63   30   32 1    
    64   32   33 1    
    65   32   34 1    
    66   32  155 1    
    67   33  156 1    
    68   33  157 1    
    69   33  158 1    
    70   34   35 am   BACKBONE|DICT|INTERRES
    71   34  159 1    
    72   35   36 2    
    73   35   37 1    
    74   37   38 1    
    75   37   39 1    
    76   37  160 1    
    77   38  161 1    
    78   38  162 1    
    79   38  163 1    
    80   39   40 am   BACKBONE|DICT|INTERRES
    81   39  164 1    
    82   40   41 2    
    83   40   42 1    
    84   42   43 1    
    85   42   44 1    
    86   42  165 1    
    87   43  166 1    
    88   43  167 1    
    89   43  168 1    
    90   44   45 am   BACKBONE|DICT|INTERRES
    91   44  169 1    
    92   45   46 2    
    93   45   47 1    
    94   47   48 1    
    95   47   49 1    
    96   47  170 1    
    97   48  171 1    
    98   48  172 1    
    99   48  173 1    
   100   49   50 am   BACKBONE|DICT|INTERRES
   101   49  174 1    
   102   50   51 2    
   103   50   52 1    
   104   52   53 1    
   105   52   54 1    
   106   52  175 1    
   107   53  176 1    
   108   53  177 1    
   109   53  178 1    
   110   54   55 am   BACKBONE|DICT|INTERRES
   111   54  179 1    
   112   55   56 2    
   113   55   57 1    
   114   57   58 1    
   115   57   59 1    
   116   57  180 1    
   117   58  181 1    
   118   58  182 1    
   119   58  183 1    
   120   59   60 am   BACKBONE|DICT|INTERRES
   121   59  184 1    
   122   60   61 2    
   123   60   62 1    
   124   62   63 1    
   125   62   64 1    
   126   62  185 1    
   127   63  186 1    
   128   63  187 1    
   129   63  188 1    
   130   64   65 am   BACKBONE|DICT|INTERRES
   131   64  189 1    
   132   65   66 2    
   133   67   68 2    
   134   67   69 am   BACKBONE|DICT|INTERRES
   135   69   70 1    
   136   69  190 1    
   137   70   71 1    
   138   70   72 1    
   139   70  191 1    
   140   71  192 1    
   141   71  193 1    
   142   71  194 1    
   143   72   73 2    
   144   72   74 am   BACKBONE|DICT|INTERRES
   145   74   75 1    
   146   74  195 1    
   147   75   76 1    
   148   75   77 1    
   149   75  196 1    
   150   76  197 1    
   151   76  198 1    
   152   76  199 1    
   153   77   78 2    
   154   77   79 am   BACKBONE|DICT|INTERRES
   155   79   80 1    
   156   79  200 1    
   157   80   81 1    
   158   80   82 1    
   159   80  201 1    
   160   81  202 1    
   161   81  203 1    
   162   81  204 1    
   163   82   83 2    
   164   82   84 am   BACKBONE|DICT|INTERRES
   165   84   85 1    
   166   84  205 1    
   167   85   86 1    
   168   85   87 1    
   169   85  206 1    
   170   86  207 1    
   171   86  208 1    
   172   86  209 1    
   173   87   88 2    
   174   87   89 am   BACKBONE|DICT|INTERRES
   175   89   90 1    
   176   89  210 1    
   177   90   91 1    
   178   90   92 1    
   179   90  211 1    
   180   91  212 1    
   181   91  213 1    
   182   91  214 1    
   183   92   93 2    
   184   92   94 am   BACKBONE|DICT|INTERRES
   185   94   95 1    
   186   94  215 1    
   187   95   96 1    
   188   95   97 1    
   189   95  216 1    
   190   96  217 1    
   191   96  218 1    
   192   96  219 1    
   193   97   98 2    
   194   97   99 am   BACKBONE|DICT|INTERRES
   195   99  100 1    
   196   99  220 1    
   197  100  101 1    
   198  100  102 1    
   199  100  221 1    
   200  101  222 1    
   201  101  223 1    
   202  101  224 1    
   203  102  103 2    
   204  102  104 am   BACKBONE|DICT|INTERRES
   205  104  105 1    
   206  104  225 1    
   207  105  106 1    
   208  105  107 1    
   209  105  226 1    
   210  106  227 1    
   211  106  228 1    
   212  106  229 1    
   213  107  108 2    
   214  107  109 am   BACKBONE|DICT|INTERRES
   215  109  110 1    
   216  109  230 1    
   217  110  111 1    
   218  110  112 1    
   219  110  231 1    
   220  111  232 1    
   221  111  233 1    
   222  111  234 1    
   223  112  113 2    
   224  112  114 am   BACKBONE|DICT|INTERRES
   225  114  115 1    
   226  114  235 1    
   227  115  116 1    
   228  115  117 1    
   229  115  236 1    
   230  116  237 1    
   231  116  238 1    
   232  116  239 1    
   233  117  118 2    
   234  117  119 am   BACKBONE|DICT|INTERRES
   235  119  120 1    
   236  119  240 1    
   237  120  121 1    
   238  120  124 1    
   239  120  241 1    
   240  121  122 am   BACKBONE|DICT|INTERRES
   241  121  123 2    
   242  122  242 1    
   243  122  243 1    
   244  124  125 1    
   245  124  244 1    
   246  124  245 1    
   247  125  126 1    
   248  126  246 1    
   249  126  247 1    
@<TRIPOS>SUBSTRUCTURE
     1 UNK         1 GROUP             0       ****    0 ROOT    
