@<TRIPOS>MOLECULE
3R540
247   249    1
SMALL
USER_CHARGES


@<TRIPOS>ATOM
      1 CA          0.3975  -13.1148  -48.9248 C.3       0 UNK        -0.1800 
      2 C           1.7063  -13.8260  -48.6091 C.2       0 UNK         0.5000 
      3 O           2.4538  -14.1738  -49.5233 O.2       0 UNK        -0.5000 
      4 N           1.9773  -14.0404  -47.3181 N.am      1 UNK        -0.5000 
      5 CA          3.2078  -14.6312  -46.7944 C.3       1 UNK         0.1400 
      6 C6          2.9770  -15.2115  -45.3709 C.3       23 UNK        -0.0398 
      7 S7          3.9938  -16.6984  -45.0633 S.3       23 UNK        -0.2404 
      8 C8          2.7973  -18.0551  -45.2978 C.3       23 UNK        -0.0205 
      9 C9          2.1387  -18.0096  -46.6696 C.ar      23 UNK        -0.0193 
     10 C10         0.8717  -17.4401  -46.8113 C.ar      23 UNK        -0.1150 
     11 C11         0.2836  -17.3122  -48.0693 C.ar      23 UNK        -0.0193 
     12 C12         0.9614  -17.7858  -49.1925 C.ar      23 UNK        -0.1150 
     13 C13         2.2087  -18.4004  -49.0634 C.ar      23 UNK        -0.0193 
     14 C14         2.7982  -18.5047  -47.7990 C.ar      23 UNK        -0.1150 
     15 C15         2.9235  -18.9239  -50.2982 C.3       23 UNK        -0.0205 
     16 S16         2.7327  -20.7233  -50.4961 S.3       23 UNK        -0.2404 
     17 C17         0.9404  -20.9202  -50.8025 C.3       23 UNK        -0.0398 
     18 CA          0.3127  -21.9485  -49.8345 C.3       11 UNK         0.1400 
     19 N           0.4217  -21.5593  -48.4233 N.am      11 UNK        -0.5000 
     20 C           0.3192  -22.4359  -47.4154 C.2       10 UNK         0.5000 
     21 O           0.0781  -23.6310  -47.5768 O.2       10 UNK        -0.5000 
     22 CA          0.4704  -21.8925  -45.9863 C.3       10 UNK         0.1400 
     23 CB          1.9527  -21.7086  -45.6316 C.3       10 UNK        -0.1800 
     24 N          -0.2553  -20.6469  -45.7357 N.am      10 UNK        -0.5000 
     25 C          -1.5780  -20.4801  -45.8824 C.2       9 UNK         0.5000 
     26 O          -2.3182  -21.3212  -46.3959 O.2       9 UNK        -0.5000 
     27 CA         -2.1539  -19.1664  -45.3095 C.3       9 UNK         0.1400 
     28 CB         -3.6947  -19.1262  -45.3022 C.3       9 UNK        -0.1800 
     29 N          -1.6168  -18.8530  -43.9785 N.am      9 UNK        -0.5000 
     30 C          -1.6735  -19.6221  -42.8774 C.2       8 UNK         0.5000 
     31 O          -2.2653  -20.7008  -42.8253 O.2       8 UNK        -0.5000 
     32 CA         -0.9146  -19.1382  -41.6237 C.3       8 UNK         0.1400 
     33 CB          0.2968  -20.0471  -41.3555 C.3       8 UNK        -0.1800 
     34 N          -0.4379  -17.7583  -41.7179 N.am      8 UNK        -0.5000 
     35 C          -1.1862  -16.6669  -41.5158 C.2       7 UNK         0.5000 
     36 O          -2.3735  -16.7038  -41.1880 O.2       7 UNK        -0.5000 
     37 CA         -0.5019  -15.2975  -41.7282 C.3       7 UNK         0.1400 
     38 CB          1.0090  -15.3857  -42.0477 C.3       7 UNK        -0.1800 
     39 N          -1.1720  -14.4963  -42.7559 N.am      7 UNK        -0.5000 
     40 C          -1.4527  -14.8663  -44.0153 C.2       6 UNK         0.5000 
     41 O          -1.2361  -15.9886  -44.4697 O.2       6 UNK        -0.5000 
     42 CA         -2.0342  -13.7795  -44.9403 C.3       6 UNK         0.1400 
     43 CB         -3.5684  -13.7806  -44.8788 C.3       6 UNK        -0.1800 
     44 N          -1.5278  -12.4349  -44.6401 N.am      6 UNK        -0.5000 
     45 C          -0.2439  -12.0765  -44.7700 C.2       5 UNK         0.5000 
     46 O           0.6341  -12.8355  -45.1903 O.2       5 UNK        -0.5000 
     47 CA          0.1303  -10.6503  -44.3432 C.3       5 UNK         0.1400 
     48 CB          0.1096  -10.5075  -42.8106 C.3       5 UNK        -0.1800 
     49 N           1.4717  -10.3779  -44.8411 N.am      5 UNK        -0.5000 
     50 C           2.0108   -9.1823  -45.0936 C.2       4 UNK         0.5000 
     51 O           1.4257   -8.1133  -44.9098 O.2       4 UNK        -0.5000 
     52 CA          3.4495   -9.2120  -45.6494 C.3       4 UNK         0.1400 
     53 CB          4.1421   -7.8325  -45.6503 C.3       4 UNK        -0.1800 
     54 N           4.2732  -10.2339  -44.9912 N.am      4 UNK        -0.5000 
     55 C           4.6810  -10.2576  -43.7109 C.2       3 UNK         0.5000 
     56 O           4.4554   -9.3535  -42.9058 O.2       3 UNK        -0.5000 
     57 CA          5.4513  -11.5068  -43.2222 C.3       3 UNK         0.1400 
     58 CB          4.6128  -12.2751  -42.1862 C.3       3 UNK        -0.1800 
     59 N           5.8205  -12.4397  -44.2878 N.am      3 UNK        -0.5000 
     60 C           6.7416  -12.2330  -45.2391 C.2       2 UNK         0.5000 
     61 O           7.4919  -11.2573  -45.2624 O.2       2 UNK        -0.5000 
     62 CA          6.8033  -13.2734  -46.3805 C.3       2 UNK         0.1400 
     63 CB          7.9975  -14.2189  -46.1812 C.3       2 UNK        -0.1800 
     64 N           5.5826  -14.0785  -46.5315 N.am      2 UNK        -0.5000 
     65 C           4.3587  -13.6010  -46.7989 C.2       1 UNK         0.5000 
     66 O           4.1253  -12.3997  -46.9640 O.2       1 UNK        -0.5000 
     67 C          -1.1335  -22.3069  -50.2382 C.2       11 UNK         0.5000 
     68 O          -1.3132  -23.1413  -51.1244 O.2       11 UNK        -0.5000 
     69 N          -2.1339  -21.7206  -49.5627 N.am      12 UNK        -0.5000 
     70 CA         -3.5493  -22.0595  -49.7358 C.3       12 UNK         0.1400 
     71 CB         -4.4191  -20.9909  -49.0549 C.3       12 UNK        -0.1800 
     72 C          -3.8713  -23.4568  -49.1730 C.2       12 UNK         0.5000 
     73 O          -4.6457  -24.2008  -49.7766 O.2       12 UNK        -0.5000 
     74 N          -3.2514  -23.7932  -48.0331 N.am      13 UNK        -0.5000 
     75 CA         -3.3339  -25.1092  -47.4042 C.3       13 UNK         0.1400 
     76 CB         -2.8160  -25.0217  -45.9606 C.3       13 UNK        -0.1800 
     77 C          -2.5715  -26.1803  -48.2050 C.2       13 UNK         0.5000 
     78 O          -3.1149  -27.2594  -48.4433 O.2       13 UNK        -0.5000 
     79 N          -1.3410  -25.8551  -48.6303 N.am      14 UNK        -0.5000 
     80 CA         -0.4512  -26.7375  -49.3920 C.3       14 UNK         0.1400 
     81 CB          0.9299  -26.0828  -49.5352 C.3       14 UNK        -0.1800 
     82 C          -0.9966  -27.1347  -50.7754 C.2       14 UNK         0.5000 
     83 O          -0.6760  -28.2215  -51.2590 O.2       14 UNK        -0.5000 
     84 N          -1.8442  -26.2846  -51.3705 N.am      15 UNK        -0.5000 
     85 CA         -2.5795  -26.5303  -52.6130 C.3       15 UNK         0.1400 
     86 CB         -3.0455  -25.1782  -53.1830 C.3       15 UNK        -0.1800 
     87 C          -3.7483  -27.5241  -52.4188 C.2       15 UNK         0.5000 
     88 O          -4.8870  -27.2137  -52.7680 O.2       15 UNK        -0.5000 
     89 N          -3.4532  -28.6942  -51.8321 N.am      16 UNK        -0.5000 
     90 CA         -4.3547  -29.8188  -51.5427 C.3       16 UNK         0.1400 
     91 CB         -4.7357  -30.5324  -52.8562 C.3       16 UNK        -0.1800 
     92 C          -5.5951  -29.4383  -50.7013 C.2       16 UNK         0.5000 
     93 O          -6.6413  -30.0768  -50.8293 O.2       16 UNK        -0.5000 
     94 N          -5.4637  -28.3833  -49.8822 N.am      17 UNK        -0.5000 
     95 CA         -6.5156  -27.7111  -49.1126 C.3       17 UNK         0.1400 
     96 CB         -7.0202  -28.6188  -47.9723 C.3       17 UNK        -0.1800 
     97 C          -7.6652  -27.1385  -49.9766 C.2       17 UNK         0.5000 
     98 O          -8.7603  -26.9139  -49.4584 O.2       17 UNK        -0.5000 
     99 N          -7.4052  -26.8884  -51.2692 N.am      18 UNK        -0.5000 
    100 CA        -8.3701  -26.3465  -52.2311 C.3       18 UNK         0.1400 
    101 CB        -8.0063  -26.8459  -53.6393 C.3       18 UNK        -0.1800 
    102 C         -8.4567  -24.8067  -52.1992 C.2       18 UNK         0.5000 
    103 O         -9.2347  -24.2348  -52.9644 O.2       18 UNK        -0.5000 
    104 N         -7.6658  -24.1699  -51.3247 N.am      19 UNK        -0.5000 
    105 CA        -7.5061  -22.7281  -51.1494 C.3       19 UNK         0.1400 
    106 CB        -8.8370  -22.0442  -50.7586 C.3       19 UNK        -0.1800 
    107 C         -6.7700  -22.0885  -52.3444 C.2       19 UNK         0.5000 
    108 O         -5.8308  -22.6950  -52.8636 O.2       19 UNK        -0.5000 
    109 N         -7.1704  -20.8652  -52.7221 N.am      20 UNK        -0.5000 
    110 CA        -6.4785  -19.9599  -53.6478 C.3       20 UNK         0.1400 
    111 CB        -6.4084  -20.5532  -55.0731 C.3       20 UNK        -0.1800 
    112 C         -5.1077  -19.5235  -53.0829 C.2       20 UNK         0.5000 
    113 O         -4.9319  -19.5334  -51.8632 O.2       20 UNK        -0.5000 
    114 N         -4.1807  -19.1103  -53.9597 N.am      21 UNK        -0.5000 
    115 CA        -2.8018  -18.6619  -53.7015 C.3       21 UNK         0.1400 
    116 CB        -1.9635  -19.7749  -53.0403 C.3       21 UNK        -0.1800 
    117 C         -2.6858  -17.3430  -52.9086 C.2       21 UNK         0.5000 
    118 O         -1.9908  -16.4280  -53.3512 O.2       21 UNK        -0.5000 
    119 N         -3.3655  -17.2699  -51.7619 N.am      22 UNK        -0.5000 
    120 CA        -3.3862  -16.1298  -50.8334 C.3       22 UNK         0.1400 
    121 C         -4.3910  -15.0051  -51.2198 C.2       22 UNK         0.5000 
    122 N         -5.1973  -15.1568  -52.2635 N.am      22 UNK        -0.7600 
    123 O         -4.4320  -13.9666  -50.5662 O.2       22 UNK        -0.5000 
    124 C124       -3.6040  -16.5961  -49.3690 C.3       23 UNK        -0.0398 
    125 S125       -2.3310  -17.7804  -48.8163 S.3       23 UNK        -0.2404 
    126 C126       -1.0594  -16.6240  -48.2304 C.3       23 UNK        -0.0205 
    127 H127        0.5959  -12.0905  -49.2401 H         1 UNK         0.0600 
    128 H128       -0.2632  -13.0842  -48.0578 H         1 UNK         0.0600 
    129 H129       -0.1264  -13.6252  -49.7329 H         1 UNK         0.0600 
    130 H130        1.3567  -13.6573  -46.6073 H         1 UNK         0.3000 
    131 H131        3.4869  -15.4427  -47.4705 H         1 UNK         0.0600 
    132 H132        1.9297  -15.4752  -45.2272 H         1 UNK         0.0800 
    133 H133        3.1767  -14.4729  -44.5925 H         1 UNK         0.0800 
    134 H134        3.3188  -19.0042  -45.1704 H         1 UNK         0.0800 
    135 H135        2.0455  -18.0110  -44.5084 H         1 UNK         0.0800 
    136 H136        0.3615  -17.0587  -45.9428 H         1 UNK         0.1150 
    137 H137        0.5110  -17.6738  -50.1688 H         1 UNK         0.1150 
    138 H138        3.7756  -18.9551  -47.6967 H         1 UNK         0.1150 
    139 H139        2.5618  -18.4209  -51.1965 H         1 UNK         0.0800 
    140 H140        3.9863  -18.6885  -50.2269 H         1 UNK         0.0800 
    141 H141        0.8249  -21.2529  -51.8357 H         1 UNK         0.0800 
    142 H142        0.4233  -19.9641  -50.7368 H         1 UNK         0.0800 
    143 H143        0.8889  -22.8676  -49.9544 H         1 UNK         0.0600 
    144 H144        0.6265  -20.5905  -48.2237 H         1 UNK         0.3000 
    145 H145        0.0545  -22.6415  -45.3091 H         1 UNK         0.0600 
    146 H146        2.4922  -22.6523  -45.7220 H         1 UNK         0.0600 
    147 H147        2.4390  -20.9935  -46.2946 H         1 UNK         0.0600 
    148 H148        2.0771  -21.3614  -44.6058 H         1 UNK         0.0600 
    149 H149        0.2706  -19.8999  -45.3098 H         1 UNK         0.3000 
    150 H150       -1.8120  -18.3685  -45.9663 H         1 UNK         0.0600 
    151 H151       -4.0599  -18.1822  -44.8978 H         1 UNK         0.0600 
    152 H152       -4.1195  -19.9354  -44.7077 H         1 UNK         0.0600 
    153 H153       -4.0897  -19.2183  -46.3143 H         1 UNK         0.0600 
    154 H154       -1.1784  -17.9408  -43.9044 H         1 UNK         0.3000 
    155 H155       -1.5976  -19.2195  -40.7755 H         1 UNK         0.0600 
    156 H156       -0.0115  -21.0861  -41.2319 H         1 UNK         0.0600 
    157 H157        0.8155  -19.7547  -40.4423 H         1 UNK         0.0600 
    158 H158        1.0148  -20.0143  -42.1760 H         1 UNK         0.0600 
    159 H159        0.5275  -17.6333  -41.9840 H         1 UNK         0.3000 
    160 H160       -0.6106  -14.7534  -40.7890 H         1 UNK         0.0600 
    161 H161        1.5569  -15.8792  -41.2440 H         1 UNK         0.0600 
    162 H162        1.4404  -14.3908  -42.1619 H         1 UNK         0.0600 
    163 H163        1.2020  -15.9311  -42.9715 H         1 UNK         0.0600 
    164 H164       -1.4229  -13.5583  -42.4810 H         1 UNK         0.3000 
    165 H165       -1.7366  -14.0281  -45.9612 H         1 UNK         0.0600 
    166 H166       -3.9327  -13.5130  -43.8862 H         1 UNK         0.0600 
    167 H167       -3.9924  -13.0765  -45.5949 H         1 UNK         0.0600 
    168 H168       -3.9668  -14.7673  -45.1201 H         1 UNK         0.0600 
    169 H169       -2.1980  -11.7629  -44.2950 H         1 UNK         0.3000 
    170 H170       -0.5780   -9.9538  -44.7964 H         1 UNK         0.0600 
    171 H171        0.3946   -9.5010  -42.5037 H         1 UNK         0.0600 
    172 H172       -0.8861  -10.6968  -42.4086 H         1 UNK         0.0600 
    173 H173        0.7974  -11.2077  -42.3342 H         1 UNK         0.0600 
    174 H174        1.9931  -11.2143  -45.0729 H         1 UNK         0.3000 
    175 H175        3.3606   -9.5279  -46.6899 H         1 UNK         0.0600 
    176 H176        4.1955   -7.3998  -44.6513 H         1 UNK         0.0600 
    177 H177        5.1570   -7.9017  -46.0418 H         1 UNK         0.0600 
    178 H178        3.5992   -7.1268  -46.2799 H         1 UNK         0.0600 
    179 H179        4.4783  -11.0414  -45.5717 H         1 UNK         0.3000 
    180 H180        6.3665  -11.1585  -42.7392 H         1 UNK         0.0600 
    181 H181        5.1589  -13.1322  -41.7915 H         1 UNK         0.0600 
    182 H182        3.6782  -12.6394  -42.6151 H         1 UNK         0.0600 
    183 H183        4.3567  -11.6386  -41.3382 H         1 UNK         0.0600 
    184 H184        5.2755  -13.2859  -44.3462 H         1 UNK         0.3000 
    185 H185        6.9523  -12.7223  -47.3112 H         1 UNK         0.0600 
    186 H186        7.8883  -14.8187  -45.2767 H         1 UNK         0.0600 
    187 H187        8.1078  -14.8998  -47.0254 H         1 UNK         0.0600 
    188 H188        8.9300  -13.6594  -46.0937 H         1 UNK         0.0600 
    189 H189        5.6865  -15.0726  -46.3794 H         1 UNK         0.3000 
    190 H190       -1.9110  -21.0818  -48.8123 H         1 UNK         0.3000 
    191 H191       -3.7754  -22.0577  -50.8046 H         1 UNK         0.0600 
    192 H192       -4.3298  -21.0185  -47.9700 H         1 UNK         0.0600 
    193 H193       -5.4720  -21.1285  -49.2941 H         1 UNK         0.0600 
    194 H194       -4.1478  -19.9904  -49.3865 H         1 UNK         0.0600 
    195 H195       -2.6685  -23.1006  -47.5767 H         1 UNK         0.3000 
    196 H196       -4.3846  -25.4039  -47.3662 H         1 UNK         0.0600 
    197 H197       -2.8952  -25.9868  -45.4589 H         1 UNK         0.0600 
    198 H198       -3.3939  -24.3031  -45.3789 H         1 UNK         0.0600 
    199 H199       -1.7704  -24.7157  -45.9212 H         1 UNK         0.0600 
    200 H200       -0.9464  -24.9622  -48.3425 H         1 UNK         0.3000 
    201 H201       -0.3319  -27.6562  -48.8143 H         1 UNK         0.0600 
    202 H202        1.3612  -25.8473  -48.5622 H         1 UNK         0.0600 
    203 H203        0.8754  -25.1619  -50.1146 H         1 UNK         0.0600 
    204 H204        1.6268  -26.7489  -50.0453 H         1 UNK         0.0600 
    205 H205       -2.0334  -25.4033  -50.9112 H         1 UNK         0.3000 
    206 H206       -1.8970  -26.9787  -53.3375 H         1 UNK         0.0600 
    207 H207       -3.5762  -25.3080  -54.1269 H         1 UNK         0.0600 
    208 H208       -3.7183  -24.6631  -52.4954 H         1 UNK         0.0600 
    209 H209       -2.1994  -24.5191  -53.3772 H         1 UNK         0.0600 
    210 H210       -2.4829  -28.8281  -51.5616 H         1 UNK         0.3000 
    211 H211       -3.7821  -30.5211  -50.9355 H         1 UNK         0.0600 
    212 H212       -5.3596  -29.9010  -53.4899 H         1 UNK         0.0600 
    213 H213       -5.2901  -31.4508  -52.6601 H         1 UNK         0.0600 
    214 H214       -3.8489  -30.8080  -53.4269 H         1 UNK         0.0600 
    215 H215       -4.5450  -27.9607  -49.8009 H         1 UNK         0.3000 
    216 H216       -6.0365  -26.8457  -48.6532 H         1 UNK         0.0600 
    217 H217       -7.6868  -28.0745  -47.3025 H         1 UNK         0.0600 
    218 H218       -6.1912  -28.9900  -47.3696 H         1 UNK         0.0600 
    219 H219       -7.5710  -29.4792  -48.3531 H         1 UNK         0.0600 
    220 H220       -6.4769  -27.0815  -51.6370 H         1 UNK         0.3000 
    221 H221       -9.3627  -26.7313  -51.9887 H         1 UNK         0.0600 
    222 H222       -7.0759  -26.4023  -53.9949 H         1 UNK         0.0600 
    223 H223       -7.8920  -27.9299  -53.6593 H         1 UNK         0.0600 
    224 H224       -8.7847  -26.5874  -54.3581 H         1 UNK         0.0600 
    225 H225       -7.0121  -24.7359  -50.8015 H         1 UNK         0.3000 
    226 H226       -6.8361  -22.6232  -50.2981 H         1 UNK         0.0600 
    227 H227       -9.3239  -22.5772  -49.9418 H         1 UNK         0.0600 
    228 H228       -8.6688  -21.0234  -50.4136 H         1 UNK         0.0600 
    229 H229       -9.5397  -22.0016  -51.5912 H         1 UNK         0.0600 
    230 H230       -7.9389  -20.4513  -52.2144 H         1 UNK         0.3000 
    231 H231       -7.0884  -19.0569  -53.6954 H         1 UNK         0.0600 
    232 H232       -5.6873  -21.3682  -55.1427 H         1 UNK         0.0600 
    233 H233       -7.3786  -20.9416  -55.3835 H         1 UNK         0.0600 
    234 H234       -6.1216  -19.7965  -55.8037 H         1 UNK         0.0600 
    235 H235       -4.4428  -19.1100  -54.9355 H         1 UNK         0.3000 
    236 H236       -2.3678  -18.4731  -54.6847 H         1 UNK         0.0600 
    237 H237       -2.3088  -20.0020  -52.0314 H         1 UNK         0.0600 
    238 H238       -2.0003  -20.6970  -53.6203 H         1 UNK         0.0600 
    239 H239       -0.9170  -19.4780  -52.9653 H         1 UNK         0.0600 
    240 H240       -3.9301  -18.0774  -51.5056 H         1 UNK         0.3000 
    241 H241       -2.4042  -15.6559  -50.8777 H         1 UNK         0.0600 
    242 H242       -5.8391  -14.4188  -52.5077 H         1 UNK         0.3800 
    243 H243       -5.1638  -15.9983  -52.8151 H         1 UNK         0.3800 
    244 H244       -3.6116  -15.7474  -48.6825 H         1 UNK         0.0800 
    245 H245       -4.5786  -17.0764  -49.2683 H         1 UNK         0.0800 
    246 H246       -0.9468  -15.8089  -48.9447 H         1 UNK         0.0800 
    247 H247       -1.3859  -16.1743  -47.2917 H         1 UNK         0.0800 
@<TRIPOS>BOND
     1    1    2 1    
     2    1  127 1    
     3    1  128 1    
     4    1  129 1    
     5    2    3 2    
     6    2    4 am   BACKBONE|DICT|INTERRES
     7    4    5 1    
     8    4  130 1    
     9    5    6 1    
    10    5   65 1    
    11    5  131 1    
    12    6    7 1    
    13    6  132 1    
    14    6  133 1    
    15    7    8 1    
    16    8    9 1    
    17    8  134 1    
    18    8  135 1    
    19    9   10 ar   
    20    9   14 ar   
    21   10   11 ar   
    22   10  136 1    
    23   11   12 ar   
    24   11  126 1    
    25   12   13 ar   
    26   12  137 1    
    27   13   14 ar   
    28   13   15 1    
    29   14  138 1    
    30   15   16 1    
    31   15  139 1    
    32   15  140 1    
    33   16   17 1    
    34   17   18 1    
    35   17  141 1    
    36   17  142 1    
    37   18   19 1    
    38   18   67 1    
    39   18  143 1    
    40   19   20 am   BACKBONE|DICT|INTERRES
    41   19  144 1    
    42   20   21 2    
    43   20   22 1    
    44   22   23 1    
    45   22   24 1    
    46   22  145 1    
    47   23  146 1    
    48   23  147 1    
    49   23  148 1    
    50   24   25 am   BACKBONE|DICT|INTERRES
    51   24  149 1    
    52   25   26 2    
    53   25   27 1    
    54   27   28 1    
    55   27   29 1    
    56   27  150 1    
    57   28  151 1    
    58   28  152 1    
    59   28  153 1    
    60   29   30 am   BACKBONE|DICT|INTERRES
    61   29  154 1    
    62   30   31 2    
    63   30   32 1    
    64   32   33 1    
    65   32   34 1    
    66   32  155 1    
    67   33  156 1    
    68   33  157 1    
    69   33  158 1    
    70   34   35 am   BACKBONE|DICT|INTERRES
    71   34  159 1    
    72   35   36 2    
    73   35   37 1    
    74   37   38 1    
    75   37   39 1    
    76   37  160 1    
    77   38  161 1    
    78   38  162 1    
    79   38  163 1    
    80   39   40 am   BACKBONE|DICT|INTERRES
    81   39  164 1    
    82   40   41 2    
    83   40   42 1    
    84   42   43 1    
    85   42   44 1    
    86   42  165 1    
    87   43  166 1    
    88   43  167 1    
    89   43  168 1    
    90   44   45 am   BACKBONE|DICT|INTERRES
    91   44  169 1    
    92   45   46 2    
    93   45   47 1    
    94   47   48 1    
    95   47   49 1    
    96   47  170 1    
    97   48  171 1    
    98   48  172 1    
    99   48  173 1    
   100   49   50 am   BACKBONE|DICT|INTERRES
   101   49  174 1    
   102   50   51 2    
   103   50   52 1    
   104   52   53 1    
   105   52   54 1    
   106   52  175 1    
   107   53  176 1    
   108   53  177 1    
   109   53  178 1    
   110   54   55 am   BACKBONE|DICT|INTERRES
   111   54  179 1    
   112   55   56 2    
   113   55   57 1    
   114   57   58 1    
   115   57   59 1    
   116   57  180 1    
   117   58  181 1    
   118   58  182 1    
   119   58  183 1    
   120   59   60 am   BACKBONE|DICT|INTERRES
   121   59  184 1    
   122   60   61 2    
   123   60   62 1    
   124   62   63 1    
   125   62   64 1    
   126   62  185 1    
   127   63  186 1    
   128   63  187 1    
   129   63  188 1    
   130   64   65 am   BACKBONE|DICT|INTERRES
   131   64  189 1    
   132   65   66 2    
   133   67   68 2    
   134   67   69 am   BACKBONE|DICT|INTERRES
   135   69   70 1    
   136   69  190 1    
   137   70   71 1    
   138   70   72 1    
   139   70  191 1    
   140   71  192 1    
   141   71  193 1    
   142   71  194 1    
   143   72   73 2    
   144   72   74 am   BACKBONE|DICT|INTERRES
   145   74   75 1    
   146   74  195 1    
   147   75   76 1    
   148   75   77 1    
   149   75  196 1    
   150   76  197 1    
   151   76  198 1    
   152   76  199 1    
   153   77   78 2    
   154   77   79 am   BACKBONE|DICT|INTERRES
   155   79   80 1    
   156   79  200 1    
   157   80   81 1    
   158   80   82 1    
   159   80  201 1    
   160   81  202 1    
   161   81  203 1    
   162   81  204 1    
   163   82   83 2    
   164   82   84 am   BACKBONE|DICT|INTERRES
   165   84   85 1    
   166   84  205 1    
   167   85   86 1    
   168   85   87 1    
   169   85  206 1    
   170   86  207 1    
   171   86  208 1    
   172   86  209 1    
   173   87   88 2    
   174   87   89 am   BACKBONE|DICT|INTERRES
   175   89   90 1    
   176   89  210 1    
   177   90   91 1    
   178   90   92 1    
   179   90  211 1    
   180   91  212 1    
   181   91  213 1    
   182   91  214 1    
   183   92   93 2    
   184   92   94 am   BACKBONE|DICT|INTERRES
   185   94   95 1    
   186   94  215 1    
   187   95   96 1    
   188   95   97 1    
   189   95  216 1    
   190   96  217 1    
   191   96  218 1    
   192   96  219 1    
   193   97   98 2    
   194   97   99 am   BACKBONE|DICT|INTERRES
   195   99  100 1    
   196   99  220 1    
   197  100  101 1    
   198  100  102 1    
   199  100  221 1    
   200  101  222 1    
   201  101  223 1    
   202  101  224 1    
   203  102  103 2    
   204  102  104 am   BACKBONE|DICT|INTERRES
   205  104  105 1    
   206  104  225 1    
   207  105  106 1    
   208  105  107 1    
   209  105  226 1    
   210  106  227 1    
   211  106  228 1    
   212  106  229 1    
   213  107  108 2    
   214  107  109 am   BACKBONE|DICT|INTERRES
   215  109  110 1    
   216  109  230 1    
   217  110  111 1    
   218  110  112 1    
   219  110  231 1    
   220  111  232 1    
   221  111  233 1    
   222  111  234 1    
   223  112  113 2    
   224  112  114 am   BACKBONE|DICT|INTERRES
   225  114  115 1    
   226  114  235 1    
   227  115  116 1    
   228  115  117 1    
   229  115  236 1    
   230  116  237 1    
   231  116  238 1    
   232  116  239 1    
   233  117  118 2    
   234  117  119 am   BACKBONE|DICT|INTERRES
   235  119  120 1    
   236  119  240 1    
   237  120  121 1    
   238  120  124 1    
   239  120  241 1    
   240  121  122 am   BACKBONE|DICT|INTERRES
   241  121  123 2    
   242  122  242 1    
   243  122  243 1    
   244  124  125 1    
   245  124  244 1    
   246  124  245 1    
   247  125  126 1    
   248  126  246 1    
   249  126  247 1    
@<TRIPOS>SUBSTRUCTURE
     1 UNK         1 GROUP             0       ****    0 ROOT    
