@<TRIPOS>MOLECULE
3R540
247   249    1
SMALL
USER_CHARGES


@<TRIPOS>ATOM
      1 CA          0.4569  -10.9517  -50.5044 C.3       0 UNK        -0.1800 
      2 C           1.8246  -11.5531  -50.2138 C.2       0 UNK         0.5000 
      3 O           2.7476  -10.8271  -49.8446 O.2       0 UNK        -0.5000 
      4 N           1.9583  -12.8747  -50.3828 N.am      1 UNK        -0.5000 
      5 CA          3.1959  -13.6308  -50.1466 C.3       1 UNK         0.1400 
      6 C6          3.1356  -15.0490  -50.7644 C.3       23 UNK        -0.0398 
      7 S7          2.8037  -15.0564  -52.5587 S.3       23 UNK        -0.2404 
      8 C8          3.5423  -16.6489  -53.0475 C.3       23 UNK        -0.0205 
      9 C9          2.7851  -17.8345  -52.4647 C.ar      23 UNK        -0.0193 
     10 C10         1.7195  -18.4059  -53.1658 C.ar      23 UNK        -0.1150 
     11 C11         1.0237  -19.4982  -52.6369 C.ar      23 UNK        -0.0193 
     12 C12         1.4003  -20.0174  -51.3940 C.ar      23 UNK        -0.1150 
     13 C13         2.4672  -19.4557  -50.6849 C.ar      23 UNK        -0.0193 
     14 C14         3.1598  -18.3720  -51.2300 C.ar      23 UNK        -0.1150 
     15 C15         2.8991  -20.0324  -49.3449 C.3       23 UNK        -0.0205 
     16 S16         2.2877  -19.0578  -47.9285 S.3       23 UNK        -0.2404 
     17 C17         0.4956  -19.3972  -47.9720 C.3       23 UNK        -0.0398 
     18 CA          0.1463  -20.8001  -47.4224 C.3       11 UNK         0.1400 
     19 N           0.3580  -20.9352  -45.9796 N.am      11 UNK        -0.5000 
     20 C           0.3537  -22.1069  -45.3284 C.2       10 UNK         0.5000 
     21 O           0.2009  -23.1951  -45.8845 O.2       10 UNK        -0.5000 
     22 CA          0.4953  -22.0570  -43.7965 C.3       10 UNK         0.1400 
     23 CB          1.9554  -21.8187  -43.3842 C.3       10 UNK        -0.1800 
     24 N          -0.3686  -21.0471  -43.1836 N.am      10 UNK        -0.5000 
     25 C          -1.7089  -21.0731  -43.2272 C.2       9 UNK         0.5000 
     26 O          -2.3585  -21.9726  -43.7611 O.2       9 UNK        -0.5000 
     27 CA         -2.4496  -19.8725  -42.6102 C.3       9 UNK         0.1400 
     28 CB         -2.5225  -19.9999  -41.0813 C.3       9 UNK        -0.1800 
     29 N          -1.8434  -18.5903  -42.9679 N.am      9 UNK        -0.5000 
     30 C          -1.7455  -18.1176  -44.2185 C.2       8 UNK         0.5000 
     31 O          -2.1981  -18.6918  -45.2074 O.2       8 UNK        -0.5000 
     32 CA         -0.9503  -16.8158  -44.4067 C.3       8 UNK         0.1400 
     33 CB         -1.7941  -15.5899  -44.0264 C.3       8 UNK        -0.1800 
     34 N           0.3044  -16.8176  -43.6529 N.am      8 UNK        -0.5000 
     35 C           1.3037  -17.6898  -43.8513 C.2       7 UNK         0.5000 
     36 O           1.2872  -18.5610  -44.7176 O.2       7 UNK        -0.5000 
     37 CA          2.4961  -17.6139  -42.8848 C.3       7 UNK         0.1400 
     38 CB          3.5039  -16.5433  -43.3312 C.3       7 UNK        -0.1800 
     39 N           2.0598  -17.3543  -41.5134 N.am      7 UNK        -0.5000 
     40 C           1.3982  -18.2416  -40.7558 C.2       6 UNK         0.5000 
     41 O           1.1364  -19.3892  -41.1171 O.2       6 UNK        -0.5000 
     42 CA          0.9071  -17.7439  -39.3837 C.3       6 UNK         0.1400 
     43 CB          2.0331  -17.8238  -38.3422 C.3       6 UNK        -0.1800 
     44 N           0.3912  -16.3746  -39.4379 N.am      6 UNK        -0.5000 
     45 C          -0.7137  -16.0093  -40.1036 C.2       5 UNK         0.5000 
     46 O          -1.4428  -16.8023  -40.6985 O.2       5 UNK        -0.5000 
     47 CA         -1.0323  -14.5017  -40.1534 C.3       5 UNK         0.1400 
     48 CB         -1.9212  -14.1017  -38.9667 C.3       5 UNK        -0.1800 
     49 N           0.1575  -13.6435  -40.1792 N.am      5 UNK        -0.5000 
     50 C           1.0983  -13.6671  -41.1321 C.2       4 UNK         0.5000 
     51 O           1.0765  -14.4403  -42.0940 O.2       4 UNK        -0.5000 
     52 CA          2.2804  -12.7040  -40.9529 C.3       4 UNK         0.1400 
     53 CB          3.1668  -13.1450  -39.7713 C.3       4 UNK        -0.1800 
     54 N           3.0678  -12.6883  -42.1818 N.am      4 UNK        -0.5000 
     55 C           3.9575  -11.7545  -42.5390 C.2       3 UNK         0.5000 
     56 O           4.1881  -10.7457  -41.8708 O.2       3 UNK        -0.5000 
     57 CA          4.7412  -11.9850  -43.8475 C.3       3 UNK         0.1400 
     58 CB          6.1794  -12.4267  -43.5321 C.3       3 UNK        -0.1800 
     59 N           4.1249  -12.9948  -44.7112 N.am      3 UNK        -0.5000 
     60 C           3.1840  -12.7372  -45.6268 C.2       2 UNK         0.5000 
     61 O           2.7495  -11.6101  -45.8735 O.2       2 UNK        -0.5000 
     62 CA          2.5972  -13.9581  -46.3541 C.3       2 UNK         0.1400 
     63 CB          1.1982  -14.2769  -45.8162 C.3       2 UNK        -0.1800 
     64 N           2.5005  -13.7551  -47.7951 N.am      2 UNK        -0.5000 
     65 C           3.5356  -13.7509  -48.6445 C.2       1 UNK         0.5000 
     66 O           4.7095  -13.8766  -48.2929 O.2       1 UNK        -0.5000 
     67 C          -1.2724  -21.2219  -47.8420 C.2       11 UNK         0.5000 
     68 O          -1.4031  -21.9064  -48.8537 O.2       11 UNK        -0.5000 
     69 N          -2.2983  -20.8645  -47.0550 N.am      12 UNK        -0.5000 
     70 CA         -3.6821  -21.2917  -47.2725 C.3       12 UNK         0.1400 
     71 CB         -4.6232  -20.5751  -46.2942 C.3       12 UNK        -0.1800 
     72 C          -3.8519  -22.8173  -47.1737 C.2       12 UNK         0.5000 
     73 O          -4.5361  -23.3997  -48.0154 O.2       12 UNK        -0.5000 
     74 N          -3.1982  -23.4405  -46.1830 N.am      13 UNK        -0.5000 
     75 CA         -3.1519  -24.8922  -46.0075 C.3       13 UNK         0.1400 
     76 CB         -2.4947  -25.2355  -44.6624 C.3       13 UNK        -0.1800 
     77 C          -2.4393  -25.6022  -47.1731 C.2       13 UNK         0.5000 
     78 O          -2.9786  -26.5717  -47.7082 O.2       13 UNK        -0.5000 
     79 N          -1.2750  -25.0769  -47.5844 N.am      14 UNK        -0.5000 
     80 CA         -0.5040  -25.5512  -48.7399 C.3       14 UNK         0.1400 
     81 CB          0.8349  -24.8008  -48.8039 C.3       14 UNK        -0.1800 
     82 C          -1.2667  -25.4143  -50.0732 C.2       14 UNK         0.5000 
     83 O          -1.1451  -26.2780  -50.9417 O.2       14 UNK        -0.5000 
     84 N          -2.0773  -24.3557  -50.1830 N.am      15 UNK        -0.5000 
     85 CA         -2.9895  -24.0668  -51.2873 C.3       15 UNK         0.1400 
     86 CB         -3.2793  -22.5585  -51.2851 C.3       15 UNK        -0.1800 
     87 C          -4.3022  -24.8767  -51.2491 C.2       15 UNK         0.5000 
     88 O          -5.1923  -24.5834  -52.0476 O.2       15 UNK        -0.5000 
     89 N          -4.4165  -25.8539  -50.3361 N.am      16 UNK        -0.5000 
     90 CA         -5.5517  -26.7602  -50.1374 C.3       16 UNK         0.1400 
     91 CB         -5.7562  -27.6671  -51.3695 C.3       16 UNK        -0.1800 
     92 C          -6.8275  -26.0087  -49.7118 C.2       16 UNK         0.5000 
     93 O          -7.8689  -26.1295  -50.3579 O.2       16 UNK        -0.5000 
     94 N          -6.6955  -25.2274  -48.6310 N.am      17 UNK        -0.5000 
     95 CA         -7.6927  -24.3167  -48.0587 C.3       17 UNK         0.1400 
     96 CB         -8.9623  -25.0674  -47.6031 C.3       17 UNK        -0.1800 
     97 C          -7.9755  -23.1272  -48.9971 C.2       17 UNK         0.5000 
     98 O          -9.1328  -22.7658  -49.2173 O.2       17 UNK        -0.5000 
     99 N          -6.8872  -22.5491  -49.5286 N.am      18 UNK        -0.5000 
    100 CA        -6.8442  -21.4063  -50.4480 C.3       18 UNK         0.1400 
    101 CB        -7.2956  -20.1180  -49.7295 C.3       18 UNK        -0.1800 
    102 C         -7.5879  -21.6546  -51.7794 C.2       18 UNK         0.5000 
    103 O         -8.1954  -20.7336  -52.3288 O.2       18 UNK        -0.5000 
    104 N         -7.5270  -22.8968  -52.2770 N.am      19 UNK        -0.5000 
    105 CA        -8.0856  -23.2997  -53.5660 C.3       19 UNK         0.1400 
    106 CB        -8.3464  -24.8134  -53.5590 C.3       19 UNK        -0.1800 
    107 C         -7.1616  -22.9102  -54.7330 C.2       19 UNK         0.5000 
    108 O         -7.6586  -22.5528  -55.8023 O.2       19 UNK        -0.5000 
    109 N         -5.8401  -22.9763  -54.5111 N.am      20 UNK        -0.5000 
    110 CA        -4.8210  -22.5341  -55.4644 C.3       20 UNK         0.1400 
    111 CB        -3.4384  -23.0348  -55.0177 C.3       20 UNK        -0.1800 
    112 C         -4.8192  -21.0011  -55.6208 C.2       20 UNK         0.5000 
    113 O         -5.0586  -20.2773  -54.6504 O.2       20 UNK        -0.5000 
    114 N         -4.5330  -20.5355  -56.8413 N.am      21 UNK        -0.5000 
    115 CA        -4.5025  -19.1234  -57.2178 C.3       21 UNK         0.1400 
    116 CB        -4.7723  -19.0120  -58.7295 C.3       21 UNK        -0.1800 
    117 C         -3.1739  -18.4601  -56.8044 C.2       21 UNK         0.5000 
    118 O         -2.3221  -18.1965  -57.6555 O.2       21 UNK        -0.5000 
    119 N         -3.0134  -18.2203  -55.4981 N.am      22 UNK        -0.5000 
    120 CA        -1.8386  -17.5552  -54.9050 C.3       22 UNK         0.1400 
    121 C         -1.7198  -16.0329  -55.2147 C.2       22 UNK         0.5000 
    122 N         -2.7600  -15.3658  -55.7003 N.am      22 UNK        -0.7600 
    123 O         -0.6593  -15.4475  -55.0163 O.2       22 UNK        -0.5000 
    124 C124       -1.7352  -17.7978  -53.3768 C.3       23 UNK        -0.0398 
    125 S125       -1.7558  -19.5591  -52.8997 S.3       23 UNK        -0.2404 
    126 C126       -0.1106  -20.1396  -53.4239 C.3       23 UNK        -0.0205 
    127 H127        0.0599  -10.4732  -49.6091 H         1 UNK         0.0600 
    128 H128       -0.2576  -11.7075  -50.8316 H         1 UNK         0.0600 
    129 H129        0.5371  -10.1984  -51.2881 H         1 UNK         0.0600 
    130 H130        1.1753  -13.4143  -50.7238 H         1 UNK         0.3000 
    131 H131        4.0165  -13.0893  -50.6224 H         1 UNK         0.0600 
    132 H132        4.0840  -15.5610  -50.5921 H         1 UNK         0.0800 
    133 H133        2.3668  -15.6517  -50.2764 H         1 UNK         0.0800 
    134 H134        4.5894  -16.6784  -52.7422 H         1 UNK         0.0800 
    135 H135        3.5445  -16.7136  -54.1366 H         1 UNK         0.0800 
    136 H136        1.4327  -17.9987  -54.1253 H         1 UNK         0.1150 
    137 H137        0.8645  -20.8624  -50.9832 H         1 UNK         0.1150 
    138 H138        3.9909  -17.9460  -50.6863 H         1 UNK         0.1150 
    139 H139        2.5818  -21.0714  -49.2548 H         1 UNK         0.0800 
    140 H140        3.9890  -20.0536  -49.3013 H         1 UNK         0.0800 
    141 H141        0.1489  -19.2738  -48.9991 H         1 UNK         0.0800 
    142 H142       -0.0148  -18.6275  -47.3905 H         1 UNK         0.0800 
    143 H143        0.8153  -21.5174  -47.8993 H         1 UNK         0.0600 
    144 H144        0.5467  -20.0775  -45.4643 H         1 UNK         0.3000 
    145 H145        0.1915  -23.0306  -43.4062 H         1 UNK         0.0600 
    146 H146        2.0686  -21.8477  -42.3003 H         1 UNK         0.0600 
    147 H147        2.6077  -22.5870  -43.8007 H         1 UNK         0.0600 
    148 H148        2.3225  -20.8537  -43.7327 H         1 UNK         0.0600 
    149 H149        0.0924  -20.2876  -42.6949 H         1 UNK         0.3000 
    150 H150       -3.4696  -19.8768  -42.9996 H         1 UNK         0.0600 
    151 H151       -2.9868  -20.9426  -40.7893 H         1 UNK         0.0600 
    152 H152       -3.1172  -19.1956  -40.6478 H         1 UNK         0.0600 
    153 H153       -1.5326  -19.9649  -40.6256 H         1 UNK         0.0600 
    154 H154       -1.4841  -18.0264  -42.2028 H         1 UNK         0.3000 
    155 H155       -0.7002  -16.7398  -45.4660 H         1 UNK         0.0600 
    156 H156       -2.1439  -15.6428  -42.9965 H         1 UNK         0.0600 
    157 H157       -2.6753  -15.5155  -44.6645 H         1 UNK         0.0600 
    158 H158       -1.2299  -14.6646  -44.1409 H         1 UNK         0.0600 
    159 H159        0.4183  -16.1022  -42.9422 H         1 UNK         0.3000 
    160 H160        3.0038  -18.5806  -42.9031 H         1 UNK         0.0600 
    161 H161        3.0585  -15.5506  -43.3563 H         1 UNK         0.0600 
    162 H162        3.8776  -16.7595  -44.3329 H         1 UNK         0.0600 
    163 H163        4.3647  -16.5087  -42.6632 H         1 UNK         0.0600 
    164 H164        2.1781  -16.4133  -41.1690 H         1 UNK         0.3000 
    165 H165        0.0961  -18.4009  -39.0622 H         1 UNK         0.0600 
    166 H166        1.6734  -17.5463  -37.3513 H         1 UNK         0.0600 
    167 H167        2.4270  -18.8386  -38.2714 H         1 UNK         0.0600 
    168 H168        2.8652  -17.1652  -38.5944 H         1 UNK         0.0600 
    169 H169        0.9302  -15.6612  -38.9702 H         1 UNK         0.3000 
    170 H170       -1.5905  -14.3151  -41.0725 H         1 UNK         0.0600 
    171 H171       -2.8270  -14.7089  -38.9353 H         1 UNK         0.0600 
    172 H172       -1.4053  -14.2319  -38.0146 H         1 UNK         0.0600 
    173 H173       -2.2334  -13.0598  -39.0407 H         1 UNK         0.0600 
    174 H174        0.2507  -12.9866  -39.4177 H         1 UNK         0.3000 
    175 H175        1.8817  -11.7046  -40.7676 H         1 UNK         0.0600 
    176 H176        3.5801  -14.1418  -39.9310 H         1 UNK         0.0600 
    177 H177        4.0013  -12.4598  -39.6226 H         1 UNK         0.0600 
    178 H178        2.6043  -13.1671  -38.8374 H         1 UNK         0.0600 
    179 H179        2.8671  -13.4561  -42.8076 H         1 UNK         0.3000 
    180 H180        4.7887  -11.0307  -44.3765 H         1 UNK         0.0600 
    181 H181        6.2013  -13.3743  -42.9923 H         1 UNK         0.0600 
    182 H182        6.6902  -11.6860  -42.9153 H         1 UNK         0.0600 
    183 H183        6.7642  -12.5457  -44.4445 H         1 UNK         0.0600 
    184 H184        4.4476  -13.9432  -44.5875 H         1 UNK         0.3000 
    185 H185        3.2376  -14.8246  -46.1742 H         1 UNK         0.0600 
    186 H186        1.2234  -14.4354  -44.7393 H         1 UNK         0.0600 
    187 H187        0.4940  -13.4667  -46.0096 H         1 UNK         0.0600 
    188 H188        0.8045  -15.1827  -46.2752 H         1 UNK         0.0600 
    189 H189        1.5768  -13.5950  -48.1679 H         1 UNK         0.3000 
    190 H190       -2.1310  -20.2520  -46.2603 H         1 UNK         0.3000 
    191 H191       -3.9647  -20.9929  -48.2836 H         1 UNK         0.0600 
    192 H192       -4.3689  -20.7925  -45.2567 H         1 UNK         0.0600 
    193 H193       -5.6580  -20.8823  -46.4516 H         1 UNK         0.0600 
    194 H194       -4.5818  -19.4943  -46.4295 H         1 UNK         0.0600 
    195 H195       -2.6941  -22.8824  -45.5003 H         1 UNK         0.3000 
    196 H196       -4.1814  -25.2550  -45.9795 H         1 UNK         0.0600 
    197 H197       -2.4685  -26.3143  -44.5045 H         1 UNK         0.0600 
    198 H198       -3.0491  -24.7982  -43.8318 H         1 UNK         0.0600 
    199 H199       -1.4694  -24.8700  -44.6063 H         1 UNK         0.0600 
    200 H200       -0.8818  -24.2959  -47.0657 H         1 UNK         0.3000 
    201 H201       -0.2946  -26.6115  -48.5855 H         1 UNK         0.0600 
    202 H202        1.4066  -24.9334  -47.8852 H         1 UNK         0.0600 
    203 H203        0.6891  -23.7313  -48.9559 H         1 UNK         0.0600 
    204 H204        1.4495  -25.1681  -49.6265 H         1 UNK         0.0600 
    205 H205       -2.0459  -23.6553  -49.4479 H         1 UNK         0.3000 
    206 H206       -2.4909  -24.3160  -52.2257 H         1 UNK         0.0600 
    207 H207       -2.3613  -21.9927  -51.4359 H         1 UNK         0.0600 
    208 H208       -3.9741  -22.2679  -52.0725 H         1 UNK         0.0600 
    209 H209       -3.7093  -22.2396  -50.3376 H         1 UNK         0.0600 
    210 H210       -3.6498  -25.9827  -49.6870 H         1 UNK         0.3000 
    211 H211       -5.2835  -27.4065  -49.3004 H         1 UNK         0.0600 
    212 H212       -6.0574  -27.1004  -52.2505 H         1 UNK         0.0600 
    213 H213       -6.5316  -28.4102  -51.1804 H         1 UNK         0.0600 
    214 H214       -4.8421  -28.2072  -51.6157 H         1 UNK         0.0600 
    215 H215       -5.7651  -25.1245  -48.2431 H         1 UNK         0.3000 
    216 H216       -7.2334  -23.8915  -47.1651 H         1 UNK         0.0600 
    217 H217       -9.6236  -24.4045  -47.0442 H         1 UNK         0.0600 
    218 H218       -8.7130  -25.9032  -46.9496 H         1 UNK         0.0600 
    219 H219       -9.5334  -25.4576  -48.4457 H         1 UNK         0.0600 
    220 H220       -5.9876  -22.9273  -49.2469 H         1 UNK         0.3000 
    221 H221       -5.7984  -21.2680  -50.7183 H         1 UNK         0.0600 
    222 H222       -8.3545  -20.1479  -49.4714 H         1 UNK         0.0600 
    223 H223       -6.7301  -19.9605  -48.8111 H         1 UNK         0.0600 
    224 H224       -7.1372  -19.2421  -50.3597 H         1 UNK         0.0600 
    225 H225       -6.9640  -23.5922  -51.7999 H         1 UNK         0.3000 
    226 H226       -9.0430  -22.7947  -53.7109 H         1 UNK         0.0600 
    227 H227       -9.0356  -25.0899  -52.7609 H         1 UNK         0.0600 
    228 H228       -8.7907  -25.1376  -54.5008 H         1 UNK         0.0600 
    229 H229       -7.4267  -25.3812  -53.4166 H         1 UNK         0.0600 
    230 H230       -5.5207  -23.3140  -53.6103 H         1 UNK         0.3000 
    231 H231       -5.0526  -22.9889  -56.4300 H         1 UNK         0.0600 
    232 H232       -3.4544  -24.0992  -54.7825 H         1 UNK         0.0600 
    233 H233       -3.0741  -22.4983  -54.1427 H         1 UNK         0.0600 
    234 H234       -2.7025  -22.8875  -55.8089 H         1 UNK         0.0600 
    235 H235       -4.3079  -21.1927  -57.5742 H         1 UNK         0.3000 
    236 H236       -5.3091  -18.5977  -56.7018 H         1 UNK         0.0600 
    237 H237       -4.7623  -17.9701  -59.0522 H         1 UNK         0.0600 
    238 H238       -4.0234  -19.5455  -59.3162 H         1 UNK         0.0600 
    239 H239       -5.7504  -19.4200  -58.9855 H         1 UNK         0.0600 
    240 H240       -3.7256  -18.5465  -54.8556 H         1 UNK         0.3000 
    241 H241       -0.9576  -18.0065  -55.3637 H         1 UNK         0.0600 
    242 H242       -2.6678  -14.3822  -55.9013 H         1 UNK         0.3800 
    243 H243       -3.6383  -15.8302  -55.8653 H         1 UNK         0.3800 
    244 H244       -0.8364  -17.3356  -52.9665 H         1 UNK         0.0800 
    245 H245       -2.5713  -17.3140  -52.8693 H         1 UNK         0.0800 
    246 H246        0.0178  -19.9669  -54.4929 H         1 UNK         0.0800 
    247 H247       -0.0718  -21.2220  -53.2925 H         1 UNK         0.0800 
@<TRIPOS>BOND
     1    1    2 1    
     2    1  127 1    
     3    1  128 1    
     4    1  129 1    
     5    2    3 2    
     6    2    4 am   BACKBONE|DICT|INTERRES
     7    4    5 1    
     8    4  130 1    
     9    5    6 1    
    10    5   65 1    
    11    5  131 1    
    12    6    7 1    
    13    6  132 1    
    14    6  133 1    
    15    7    8 1    
    16    8    9 1    
    17    8  134 1    
    18    8  135 1    
    19    9   10 ar   
    20    9   14 ar   
    21   10   11 ar   
    22   10  136 1    
    23   11   12 ar   
    24   11  126 1    
    25   12   13 ar   
    26   12  137 1    
    27   13   14 ar   
    28   13   15 1    
    29   14  138 1    
    30   15   16 1    
    31   15  139 1    
    32   15  140 1    
    33   16   17 1    
    34   17   18 1    
    35   17  141 1    
    36   17  142 1    
    37   18   19 1    
    38   18   67 1    
    39   18  143 1    
    40   19   20 am   BACKBONE|DICT|INTERRES
    41   19  144 1    
    42   20   21 2    
    43   20   22 1    
    44   22   23 1    
    45   22   24 1    
    46   22  145 1    
    47   23  146 1    
    48   23  147 1    
    49   23  148 1    
    50   24   25 am   BACKBONE|DICT|INTERRES
    51   24  149 1    
    52   25   26 2    
    53   25   27 1    
    54   27   28 1    
    55   27   29 1    
    56   27  150 1    
    57   28  151 1    
    58   28  152 1    
    59   28  153 1    
    60   29   30 am   BACKBONE|DICT|INTERRES
    61   29  154 1    
    62   30   31 2    
    63   30   32 1    
    64   32   33 1    
    65   32   34 1    
    66   32  155 1    
    67   33  156 1    
    68   33  157 1    
    69   33  158 1    
    70   34   35 am   BACKBONE|DICT|INTERRES
    71   34  159 1    
    72   35   36 2    
    73   35   37 1    
    74   37   38 1    
    75   37   39 1    
    76   37  160 1    
    77   38  161 1    
    78   38  162 1    
    79   38  163 1    
    80   39   40 am   BACKBONE|DICT|INTERRES
    81   39  164 1    
    82   40   41 2    
    83   40   42 1    
    84   42   43 1    
    85   42   44 1    
    86   42  165 1    
    87   43  166 1    
    88   43  167 1    
    89   43  168 1    
    90   44   45 am   BACKBONE|DICT|INTERRES
    91   44  169 1    
    92   45   46 2    
    93   45   47 1    
    94   47   48 1    
    95   47   49 1    
    96   47  170 1    
    97   48  171 1    
    98   48  172 1    
    99   48  173 1    
   100   49   50 am   BACKBONE|DICT|INTERRES
   101   49  174 1    
   102   50   51 2    
   103   50   52 1    
   104   52   53 1    
   105   52   54 1    
   106   52  175 1    
   107   53  176 1    
   108   53  177 1    
   109   53  178 1    
   110   54   55 am   BACKBONE|DICT|INTERRES
   111   54  179 1    
   112   55   56 2    
   113   55   57 1    
   114   57   58 1    
   115   57   59 1    
   116   57  180 1    
   117   58  181 1    
   118   58  182 1    
   119   58  183 1    
   120   59   60 am   BACKBONE|DICT|INTERRES
   121   59  184 1    
   122   60   61 2    
   123   60   62 1    
   124   62   63 1    
   125   62   64 1    
   126   62  185 1    
   127   63  186 1    
   128   63  187 1    
   129   63  188 1    
   130   64   65 am   BACKBONE|DICT|INTERRES
   131   64  189 1    
   132   65   66 2    
   133   67   68 2    
   134   67   69 am   BACKBONE|DICT|INTERRES
   135   69   70 1    
   136   69  190 1    
   137   70   71 1    
   138   70   72 1    
   139   70  191 1    
   140   71  192 1    
   141   71  193 1    
   142   71  194 1    
   143   72   73 2    
   144   72   74 am   BACKBONE|DICT|INTERRES
   145   74   75 1    
   146   74  195 1    
   147   75   76 1    
   148   75   77 1    
   149   75  196 1    
   150   76  197 1    
   151   76  198 1    
   152   76  199 1    
   153   77   78 2    
   154   77   79 am   BACKBONE|DICT|INTERRES
   155   79   80 1    
   156   79  200 1    
   157   80   81 1    
   158   80   82 1    
   159   80  201 1    
   160   81  202 1    
   161   81  203 1    
   162   81  204 1    
   163   82   83 2    
   164   82   84 am   BACKBONE|DICT|INTERRES
   165   84   85 1    
   166   84  205 1    
   167   85   86 1    
   168   85   87 1    
   169   85  206 1    
   170   86  207 1    
   171   86  208 1    
   172   86  209 1    
   173   87   88 2    
   174   87   89 am   BACKBONE|DICT|INTERRES
   175   89   90 1    
   176   89  210 1    
   177   90   91 1    
   178   90   92 1    
   179   90  211 1    
   180   91  212 1    
   181   91  213 1    
   182   91  214 1    
   183   92   93 2    
   184   92   94 am   BACKBONE|DICT|INTERRES
   185   94   95 1    
   186   94  215 1    
   187   95   96 1    
   188   95   97 1    
   189   95  216 1    
   190   96  217 1    
   191   96  218 1    
   192   96  219 1    
   193   97   98 2    
   194   97   99 am   BACKBONE|DICT|INTERRES
   195   99  100 1    
   196   99  220 1    
   197  100  101 1    
   198  100  102 1    
   199  100  221 1    
   200  101  222 1    
   201  101  223 1    
   202  101  224 1    
   203  102  103 2    
   204  102  104 am   BACKBONE|DICT|INTERRES
   205  104  105 1    
   206  104  225 1    
   207  105  106 1    
   208  105  107 1    
   209  105  226 1    
   210  106  227 1    
   211  106  228 1    
   212  106  229 1    
   213  107  108 2    
   214  107  109 am   BACKBONE|DICT|INTERRES
   215  109  110 1    
   216  109  230 1    
   217  110  111 1    
   218  110  112 1    
   219  110  231 1    
   220  111  232 1    
   221  111  233 1    
   222  111  234 1    
   223  112  113 2    
   224  112  114 am   BACKBONE|DICT|INTERRES
   225  114  115 1    
   226  114  235 1    
   227  115  116 1    
   228  115  117 1    
   229  115  236 1    
   230  116  237 1    
   231  116  238 1    
   232  116  239 1    
   233  117  118 2    
   234  117  119 am   BACKBONE|DICT|INTERRES
   235  119  120 1    
   236  119  240 1    
   237  120  121 1    
   238  120  124 1    
   239  120  241 1    
   240  121  122 am   BACKBONE|DICT|INTERRES
   241  121  123 2    
   242  122  242 1    
   243  122  243 1    
   244  124  125 1    
   245  124  244 1    
   246  124  245 1    
   247  125  126 1    
   248  126  246 1    
   249  126  247 1    
@<TRIPOS>SUBSTRUCTURE
     1 UNK         1 GROUP             0       ****    0 ROOT    
