@<TRIPOS>MOLECULE
3R540
247   249    1
SMALL
USER_CHARGES


@<TRIPOS>ATOM
      1 CA          5.9602  -13.7298  -46.4782 C.3       0 UNK        -0.1800 
      2 C           4.6402  -13.1238  -46.0271 C.2       0 UNK         0.5000 
      3 O           4.5379  -12.6563  -44.8939 O.2       0 UNK        -0.5000 
      4 N           3.6345  -13.1137  -46.9120 N.am      1 UNK        -0.5000 
      5 CA          2.2637  -12.6462  -46.6484 C.3       1 UNK         0.1400 
      6 C6          1.3216  -12.9219  -47.8431 C.3       23 UNK        -0.0398 
      7 S7          1.2028  -14.7001  -48.2147 S.3       23 UNK        -0.2404 
      8 C8          0.1439  -14.6651  -49.6928 C.3       23 UNK        -0.0205 
      9 C9         -0.3885  -16.0532  -50.0086 C.ar      23 UNK        -0.0193 
     10 C10        -1.7333  -16.3628  -49.7896 C.ar      23 UNK        -0.1150 
     11 C11        -2.2150  -17.6517  -50.0341 C.ar      23 UNK        -0.0193 
     12 C12        -1.3396  -18.6292  -50.5170 C.ar      23 UNK        -0.1150 
     13 C13         0.0089  -18.3318  -50.7487 C.ar      23 UNK        -0.0193 
     14 C14         0.4722  -17.0379  -50.4984 C.ar      23 UNK        -0.1150 
     15 C15         0.9879  -19.3829  -51.2664 C.3       23 UNK        -0.0205 
     16 S16         0.7255  -21.0617  -50.6031 S.3       23 UNK        -0.2404 
     17 C17         0.7322  -20.7553  -48.8008 C.3       23 UNK        -0.0398 
     18 CA          0.4253  -22.0154  -47.9614 C.3       11 UNK         0.1400 
     19 N           0.5734  -21.7513  -46.5296 N.am      11 UNK        -0.5000 
     20 C           0.5683  -22.6957  -45.5789 C.2       10 UNK         0.5000 
     21 O           0.4824  -23.9009  -45.8115 O.2       10 UNK        -0.5000 
     22 CA          0.6240  -22.2109  -44.1209 C.3       10 UNK         0.1400 
     23 CB          2.0616  -21.8421  -43.7261 C.3       10 UNK        -0.1800 
     24 N          -0.2666  -21.0766  -43.8723 N.am      10 UNK        -0.5000 
     25 C          -1.6024  -21.1229  -43.9812 C.2       9 UNK         0.5000 
     26 O          -2.2290  -22.1418  -44.2707 O.2       9 UNK        -0.5000 
     27 CA         -2.3657  -19.8019  -43.7759 C.3       9 UNK         0.1400 
     28 CB         -2.4912  -19.4655  -42.2829 C.3       9 UNK        -0.1800 
     29 N          -1.7524  -18.6779  -44.4822 N.am      9 UNK        -0.5000 
     30 C          -1.6072  -18.5983  -45.8129 C.2       8 UNK         0.5000 
     31 O          -1.9925  -19.4588  -46.6023 O.2       8 UNK        -0.5000 
     32 CA         -0.8597  -17.3674  -46.3442 C.3       8 UNK         0.1400 
     33 CB         -1.7858  -16.1397  -46.3629 C.3       8 UNK        -0.1800 
     34 N           0.3375  -17.0854  -45.5536 N.am      8 UNK        -0.5000 
     35 C           1.4139  -17.8836  -45.4999 C.2       7 UNK         0.5000 
     36 O           1.5264  -18.9315  -46.1378 O.2       7 UNK        -0.5000 
     37 CA          2.5298  -17.4627  -44.5266 C.3       7 UNK         0.1400 
     38 CB          3.4055  -16.3677  -45.1498 C.3       7 UNK        -0.1800 
     39 N           2.0025  -16.9894  -43.2457 N.am      7 UNK        -0.5000 
     40 C           1.3503  -17.7639  -42.3650 C.2       6 UNK         0.5000 
     41 O           1.1695  -18.9701  -42.5215 O.2       6 UNK        -0.5000 
     42 CA          0.7546  -17.0720  -41.1235 C.3       6 UNK         0.1400 
     43 CB          1.7742  -17.0578  -39.9751 C.3       6 UNK        -0.1800 
     44 N           0.3075  -15.7038  -41.3832 N.am      6 UNK        -0.5000 
     45 C          -0.6044  -15.3424  -42.2970 C.2       5 UNK         0.5000 
     46 O          -1.2418  -16.1516  -42.9713 O.2       5 UNK        -0.5000 
     47 CA         -0.8134  -13.8305  -42.5249 C.3       5 UNK         0.1400 
     48 CB         -2.1799  -13.3892  -41.9800 C.3       5 UNK        -0.1800 
     49 N           0.2325  -12.9889  -41.9301 N.am      5 UNK        -0.5000 
     50 C           1.5101  -12.9451  -42.3317 C.2       4 UNK         0.5000 
     51 O           1.9597  -13.6190  -43.2599 O.2       4 UNK        -0.5000 
     52 CA          2.4510  -12.0774  -41.4888 C.3       4 UNK         0.1400 
     53 CB          3.1371  -12.9346  -40.4081 C.3       4 UNK        -0.1800 
     54 N           3.4545  -11.4393  -42.3358 N.am      4 UNK        -0.5000 
     55 C           4.1348  -10.3367  -41.9928 C.2       3 UNK         0.5000 
     56 O           3.9833   -9.7473  -40.9214 O.2       3 UNK        -0.5000 
     57 CA          5.1395   -9.7805  -43.0135 C.3       3 UNK         0.1400 
     58 CB          6.4503  -10.5837  -42.9919 C.3       3 UNK        -0.1800 
     59 N           4.5790   -9.7799  -44.3627 N.am      3 UNK        -0.5000 
     60 C           3.8637   -8.7722  -44.8835 C.2       2 UNK         0.5000 
     61 O           3.6336   -7.7201  -44.2858 O.2       2 UNK        -0.5000 
     62 CA          3.3180   -8.9526  -46.3146 C.3       2 UNK         0.1400 
     63 CB          4.2448   -8.2690  -47.3318 C.3       2 UNK        -0.1800 
     64 N           3.1543  -10.3553  -46.6938 N.am      2 UNK        -0.5000 
     65 C           2.1860  -11.1605  -46.2357 C.2       1 UNK         0.5000 
     66 O           1.2725  -10.7794  -45.5030 O.2       1 UNK        -0.5000 
     67 C          -0.9547  -22.6310  -48.2846 C.2       11 UNK         0.5000 
     68 O          -1.0106  -23.6411  -48.9855 O.2       11 UNK        -0.5000 
     69 N          -2.0331  -22.0579  -47.7299 N.am      12 UNK        -0.5000 
     70 CA         -3.4003  -22.5648  -47.8605 C.3       12 UNK         0.1400 
     71 CB         -4.3825  -21.5957  -47.1859 C.3       12 UNK        -0.1800 
     72 C          -3.5682  -23.9888  -47.3011 C.2       12 UNK         0.5000 
     73 O          -4.2077  -24.8173  -47.9475 O.2       12 UNK        -0.5000 
     74 N          -2.9582  -24.2603  -46.1388 N.am      13 UNK        -0.5000 
     75 CA         -2.9209  -25.5813  -45.5116 C.3       13 UNK         0.1400 
     76 CB         -2.3516  -25.4628  -44.0898 C.3       13 UNK        -0.1800 
     77 C          -2.1277  -26.6127  -46.3355 C.2       13 UNK         0.5000 
     78 O          -2.5816  -27.7489  -46.4725 O.2       13 UNK        -0.5000 
     79 N          -0.9770  -26.1983  -46.8853 N.am      14 UNK        -0.5000 
     80 CA         -0.1235  -27.0188  -47.7474 C.3       14 UNK         0.1400 
     81 CB          1.2279  -26.3180  -47.9550 C.3       14 UNK        -0.1800 
     82 C          -0.7820  -27.3479  -49.0997 C.2       14 UNK         0.5000 
     83 O          -0.6975  -28.4896  -49.5542 O.2       14 UNK        -0.5000 
     84 N          -1.4425  -26.3516  -49.7056 N.am      15 UNK        -0.5000 
     85 CA         -2.2180  -26.4931  -50.9393 C.3       15 UNK         0.1400 
     86 CB         -2.5457  -25.0957  -51.4884 C.3       15 UNK        -0.1800 
     87 C          -3.5141  -27.3020  -50.7448 C.2       15 UNK         0.5000 
     88 O          -3.9968  -27.9101  -51.7008 O.2       15 UNK        -0.5000 
     89 N          -4.0653  -27.2639  -49.5236 N.am      16 UNK        -0.5000 
     90 CA         -5.2975  -27.8838  -49.0241 C.3       16 UNK         0.1400 
     91 CB         -5.2713  -29.4159  -49.1797 C.3       16 UNK        -0.1800 
     92 C          -6.5791  -27.2712  -49.6178 C.2       16 UNK         0.5000 
     93 O          -7.4865  -26.9136  -48.8659 O.2       16 UNK        -0.5000 
     94 N          -6.6258  -27.1419  -50.9482 N.am      17 UNK        -0.5000 
     95 CA         -7.7011  -26.4876  -51.6918 C.3       17 UNK         0.1400 
     96 CB         -7.6620  -26.9730  -53.1489 C.3       17 UNK        -0.1800 
     97 C          -7.6095  -24.9508  -51.6387 C.2       17 UNK         0.5000 
     98 O          -8.6367  -24.2874  -51.7854 O.2       17 UNK        -0.5000 
     99 N          -6.3892  -24.4228  -51.4411 N.am      18 UNK        -0.5000 
    100 CA        -6.0220  -23.0027  -51.4652 C.3       18 UNK         0.1400 
    101 CB        -6.6014  -22.2745  -50.2326 C.3       18 UNK        -0.1800 
    102 C         -6.3887  -22.3681  -52.8245 C.2       18 UNK         0.5000 
    103 O         -5.8883  -22.8411  -53.8476 O.2       18 UNK        -0.5000 
    104 N         -7.2630  -21.3504  -52.8171 N.am      19 UNK        -0.5000 
    105 CA        -7.8958  -20.7095  -53.9745 C.3       19 UNK         0.1400 
    106 CB        -8.9504  -21.6574  -54.5883 C.3       19 UNK        -0.1800 
    107 C         -6.8672  -20.1860  -54.9958 C.2       19 UNK         0.5000 
    108 O         -6.2456  -19.1534  -54.7461 O.2       19 UNK        -0.5000 
    109 N         -6.6801  -20.9168  -56.1040 N.am      20 UNK        -0.5000 
    110 CA        -5.7203  -20.6258  -57.1711 C.3       20 UNK         0.1400 
    111 CB        -5.8879  -21.6633  -58.2912 C.3       20 UNK        -0.1800 
    112 C         -4.2535  -20.5727  -56.6999 C.2       20 UNK         0.5000 
    113 O         -3.4623  -19.8339  -57.2881 O.2       20 UNK        -0.5000 
    114 N         -3.9228  -21.3051  -55.6240 N.am      21 UNK        -0.5000 
    115 CA        -2.6125  -21.2664  -54.9656 C.3       21 UNK         0.1400 
    116 CB        -2.5505  -22.3596  -53.8877 C.3       21 UNK        -0.1800 
    117 C         -2.2806  -19.8924  -54.3484 C.2       21 UNK         0.5000 
    118 O         -1.1033  -19.5580  -54.2192 O.2       21 UNK        -0.5000 
    119 N         -3.3194  -19.1221  -54.0037 N.am      22 UNK        -0.5000 
    120 CA        -3.2272  -17.7622  -53.4561 C.3       22 UNK         0.1400 
    121 C         -3.1409  -16.6542  -54.5472 C.2       22 UNK         0.5000 
    122 N         -3.1463  -16.9756  -55.8369 N.am      22 UNK        -0.7600 
    123 O         -3.0548  -15.4740  -54.2197 O.2       22 UNK        -0.5000 
    124 C124       -4.3685  -17.4744  -52.4421 C.3       23 UNK        -0.0398 
    125 S125       -4.5315  -18.7612  -51.1514 S.3       23 UNK        -0.2404 
    126 C126       -3.6717  -17.9891  -49.7416 C.3       23 UNK        -0.0205 
    127 H127        6.2211  -14.5724  -45.8379 H         1 UNK         0.0600 
    128 H128        5.9123  -14.0859  -47.5075 H         1 UNK         0.0600 
    129 H129        6.7559  -12.9881  -46.4093 H         1 UNK         0.0600 
    130 H130        3.7793  -13.5215  -47.8247 H         1 UNK         0.3000 
    131 H131        1.8912  -13.2198  -45.7991 H         1 UNK         0.0600 
    132 H132        1.6623  -12.3931  -48.7352 H         1 UNK         0.0800 
    133 H133        0.3143  -12.5591  -47.6292 H         1 UNK         0.0800 
    134 H134       -0.6813  -13.9691  -49.5342 H         1 UNK         0.0800 
    135 H135        0.7141  -14.2860  -50.5421 H         1 UNK         0.0800 
    136 H136       -2.4006  -15.6038  -49.4065 H         1 UNK         0.1150 
    137 H137       -1.7130  -19.6251  -50.7088 H         1 UNK         0.1150 
    138 H138        1.5125  -16.7959  -50.6652 H         1 UNK         0.1150 
    139 H139        0.9125  -19.4212  -52.3535 H         1 UNK         0.0800 
    140 H140        2.0132  -19.0879  -51.0380 H         1 UNK         0.0800 
    141 H141        0.0200  -19.9678  -48.5535 H         1 UNK         0.0800 
    142 H142        1.7153  -20.3650  -48.5342 H         1 UNK         0.0800 
    143 H143        1.1754  -22.7660  -48.2199 H         1 UNK         0.0600 
    144 H144        0.6772  -20.7790  -46.2569 H         1 UNK         0.3000 
    145 H145        0.2983  -23.0363  -43.4846 H         1 UNK         0.0600 
    146 H146        2.1273  -21.5973  -42.6659 H         1 UNK         0.0600 
    147 H147        2.7439  -22.6728  -43.9105 H         1 UNK         0.0600 
    148 H148        2.4268  -20.9832  -44.2905 H         1 UNK         0.0600 
    149 H149        0.1766  -20.2099  -43.5794 H         1 UNK         0.3000 
    150 H150       -3.3717  -19.9332  -44.1793 H         1 UNK         0.0600 
    151 H151       -3.0077  -20.2626  -41.7468 H         1 UNK         0.0600 
    152 H152       -3.0595  -18.5477  -42.1307 H         1 UNK         0.0600 
    153 H153       -1.5152  -19.3363  -41.8158 H         1 UNK         0.0600 
    154 H154       -1.4310  -17.8989  -43.9156 H         1 UNK         0.3000 
    155 H155       -0.5454  -17.5787  -47.3683 H         1 UNK         0.0600 
    156 H156       -2.1412  -15.8760  -45.3678 H         1 UNK         0.0600 
    157 H157       -2.6664  -16.3314  -46.9767 H         1 UNK         0.0600 
    158 H158       -1.2851  -15.2668  -46.7787 H         1 UNK         0.0600 
    159 H159        0.3071  -16.2713  -44.9586 H         1 UNK         0.3000 
    160 H160        3.1563  -18.3365  -44.3358 H         1 UNK         0.0600 
    161 H161        4.2390  -16.1066  -44.4975 H         1 UNK         0.0600 
    162 H162        2.8309  -15.4605  -45.3365 H         1 UNK         0.0600 
    163 H163        3.8241  -16.6931  -46.1030 H         1 UNK         0.0600 
    164 H164        2.0887  -15.9989  -43.0570 H         1 UNK         0.3000 
    165 H165       -0.1146  -17.6499  -40.8047 H         1 UNK         0.0600 
    166 H166        1.3381  -16.6460  -39.0648 H         1 UNK         0.0600 
    167 H167        2.1143  -18.0679  -39.7429 H         1 UNK         0.0600 
    168 H168        2.6544  -16.4638  -40.2251 H         1 UNK         0.0600 
    169 H169        0.7727  -14.9721  -40.8687 H         1 UNK         0.3000 
    170 H170       -0.8055  -13.6652  -43.6045 H         1 UNK         0.0600 
    171 H171       -2.9864  -13.9715  -42.4279 H         1 UNK         0.0600 
    172 H172       -2.2429  -13.5187  -40.8988 H         1 UNK         0.0600 
    173 H173       -2.3752  -12.3408  -42.2061 H         1 UNK         0.0600 
    174 H174       -0.0513  -12.4206  -41.1447 H         1 UNK         0.3000 
    175 H175        1.8543  -11.3011  -41.0048 H         1 UNK         0.0600 
    176 H176        3.7646  -13.7089  -40.8517 H         1 UNK         0.0600 
    177 H177        3.7667  -12.3278  -39.7573 H         1 UNK         0.0600 
    178 H178        2.4025  -13.4299  -39.7722 H         1 UNK         0.0600 
    179 H179        3.6287  -11.8913  -43.2305 H         1 UNK         0.3000 
    180 H180        5.3812   -8.7559  -42.7221 H         1 UNK         0.0600 
    181 H181        6.2919  -11.6347  -43.2332 H         1 UNK         0.0600 
    182 H182        6.9121  -10.5434  -42.0047 H         1 UNK         0.0600 
    183 H183        7.1705  -10.1812  -43.7043 H         1 UNK         0.0600 
    184 H184        4.6592  -10.6495  -44.8773 H         1 UNK         0.3000 
    185 H185        2.3422   -8.4644  -46.3605 H         1 UNK         0.0600 
    186 H186        4.3686   -7.2107  -47.0978 H         1 UNK         0.0600 
    187 H187        5.2373   -8.7215  -47.3401 H         1 UNK         0.0600 
    188 H188        3.8377   -8.3315  -48.3411 H         1 UNK         0.0600 
    189 H189        3.8659  -10.7528  -47.2898 H         1 UNK         0.3000 
    190 H190       -1.9200  -21.2021  -47.1900 H         1 UNK         0.3000 
    191 H191       -3.6371  -22.6003  -48.9257 H         1 UNK         0.0600 
    192 H192       -4.1391  -21.4435  -46.1344 H         1 UNK         0.0600 
    193 H193       -5.4047  -21.9718  -47.2325 H         1 UNK         0.0600 
    194 H194       -4.3723  -20.6224  -47.6750 H         1 UNK         0.0600 
    195 H195       -2.4957  -23.5056  -45.6395 H         1 UNK         0.3000 
    196 H196       -3.9490  -25.9410  -45.4338 H         1 UNK         0.0600 
    197 H197       -1.3343  -25.0708  -44.0938 H         1 UNK         0.0600 
    198 H198       -2.3282  -26.4347  -43.5955 H         1 UNK         0.0600 
    199 H199       -2.9617  -24.8000  -43.4760 H         1 UNK         0.0600 
    200 H200       -0.6453  -25.2603  -46.6802 H         1 UNK         0.3000 
    201 H201        0.0630  -27.9630  -47.2315 H         1 UNK         0.0600 
    202 H202        1.7384  -26.1586  -47.0051 H         1 UNK         0.0600 
    203 H203        1.1091  -25.3474  -48.4371 H         1 UNK         0.0600 
    204 H204        1.8877  -26.9185  -48.5823 H         1 UNK         0.0600 
    205 H205       -1.3998  -25.4183  -49.3001 H         1 UNK         0.3000 
    206 H206       -1.6049  -27.0179  -51.6748 H         1 UNK         0.0600 
    207 H207       -1.6359  -24.5394  -51.7150 H         1 UNK         0.0600 
    208 H208       -3.1269  -25.1587  -52.4094 H         1 UNK         0.0600 
    209 H209       -3.1217  -24.5102  -50.7711 H         1 UNK         0.0600 
    210 H210       -3.6278  -26.6415  -48.8538 H         1 UNK         0.3000 
    211 H211       -5.3135  -27.6666  -47.9547 H         1 UNK         0.0600 
    212 H212       -5.2759  -29.7240  -50.2254 H         1 UNK         0.0600 
    213 H213       -6.1426  -29.8677  -48.7045 H         1 UNK         0.0600 
    214 H214       -4.3855  -29.8419  -48.7080 H         1 UNK         0.0600 
    215 H215       -5.8245  -27.4748  -51.4782 H         1 UNK         0.3000 
    216 H216       -8.6595  -26.7812  -51.2583 H         1 UNK         0.0600 
    217 H217       -8.4652  -26.5216  -53.7330 H         1 UNK         0.0600 
    218 H218       -7.7858  -28.0545  -53.2078 H         1 UNK         0.0600 
    219 H219       -6.7190  -26.7158  -53.6334 H         1 UNK         0.0600 
    220 H220       -5.6221  -25.0701  -51.3451 H         1 UNK         0.3000 
    221 H221       -4.9351  -22.9589  -51.3905 H         1 UNK         0.0600 
    222 H222       -7.6913  -22.2426  -50.2422 H         1 UNK         0.0600 
    223 H223       -6.3013  -22.7798  -49.3151 H         1 UNK         0.0600 
    224 H224       -6.2342  -21.2495  -50.1702 H         1 UNK         0.0600 
    225 H225       -7.5844  -21.0227  -51.9177 H         1 UNK         0.3000 
    226 H226       -8.4227  -19.8323  -53.5963 H         1 UNK         0.0600 
    227 H227       -9.7276  -21.8922  -53.8608 H         1 UNK         0.0600 
    228 H228       -9.4428  -21.1979  -55.4465 H         1 UNK         0.0600 
    229 H229       -8.5182  -22.6034  -54.9162 H         1 UNK         0.0600 
    230 H230       -7.2060  -21.7735  -56.1969 H         1 UNK         0.3000 
    231 H231       -5.9675  -19.6419  -57.5749 H         1 UNK         0.0600 
    232 H232       -6.8994  -21.6466  -58.6975 H         1 UNK         0.0600 
    233 H233       -5.6842  -22.6743  -57.9357 H         1 UNK         0.0600 
    234 H234       -5.2042  -21.4614  -59.1169 H         1 UNK         0.0600 
    235 H235       -4.6390  -21.8717  -55.1801 H         1 UNK         0.3000 
    236 H236       -1.8531  -21.4840  -55.7193 H         1 UNK         0.0600 
    237 H237       -1.5570  -22.4091  -53.4399 H         1 UNK         0.0600 
    238 H238       -3.2594  -22.1686  -53.0820 H         1 UNK         0.0600 
    239 H239       -2.7702  -23.3424  -54.3048 H         1 UNK         0.0600 
    240 H240       -4.2613  -19.4474  -54.1873 H         1 UNK         0.3000 
    241 H241       -2.2867  -17.6840  -52.9110 H         1 UNK         0.0600 
    242 H242       -3.0844  -16.2450  -56.5282 H         1 UNK         0.3800 
    243 H243       -3.2048  -17.9409  -56.1327 H         1 UNK         0.3800 
    244 H244       -4.2167  -16.5065  -51.9617 H         1 UNK         0.0800 
    245 H245       -5.3249  -17.4028  -52.9614 H         1 UNK         0.0800 
    246 H246       -4.2249  -17.0989  -49.4387 H         1 UNK         0.0800 
    247 H247       -3.7020  -18.6725  -48.8927 H         1 UNK         0.0800 
@<TRIPOS>BOND
     1    1    2 1    
     2    1  127 1    
     3    1  128 1    
     4    1  129 1    
     5    2    3 2    
     6    2    4 am   BACKBONE|DICT|INTERRES
     7    4    5 1    
     8    4  130 1    
     9    5    6 1    
    10    5   65 1    
    11    5  131 1    
    12    6    7 1    
    13    6  132 1    
    14    6  133 1    
    15    7    8 1    
    16    8    9 1    
    17    8  134 1    
    18    8  135 1    
    19    9   10 ar   
    20    9   14 ar   
    21   10   11 ar   
    22   10  136 1    
    23   11   12 ar   
    24   11  126 1    
    25   12   13 ar   
    26   12  137 1    
    27   13   14 ar   
    28   13   15 1    
    29   14  138 1    
    30   15   16 1    
    31   15  139 1    
    32   15  140 1    
    33   16   17 1    
    34   17   18 1    
    35   17  141 1    
    36   17  142 1    
    37   18   19 1    
    38   18   67 1    
    39   18  143 1    
    40   19   20 am   BACKBONE|DICT|INTERRES
    41   19  144 1    
    42   20   21 2    
    43   20   22 1    
    44   22   23 1    
    45   22   24 1    
    46   22  145 1    
    47   23  146 1    
    48   23  147 1    
    49   23  148 1    
    50   24   25 am   BACKBONE|DICT|INTERRES
    51   24  149 1    
    52   25   26 2    
    53   25   27 1    
    54   27   28 1    
    55   27   29 1    
    56   27  150 1    
    57   28  151 1    
    58   28  152 1    
    59   28  153 1    
    60   29   30 am   BACKBONE|DICT|INTERRES
    61   29  154 1    
    62   30   31 2    
    63   30   32 1    
    64   32   33 1    
    65   32   34 1    
    66   32  155 1    
    67   33  156 1    
    68   33  157 1    
    69   33  158 1    
    70   34   35 am   BACKBONE|DICT|INTERRES
    71   34  159 1    
    72   35   36 2    
    73   35   37 1    
    74   37   38 1    
    75   37   39 1    
    76   37  160 1    
    77   38  161 1    
    78   38  162 1    
    79   38  163 1    
    80   39   40 am   BACKBONE|DICT|INTERRES
    81   39  164 1    
    82   40   41 2    
    83   40   42 1    
    84   42   43 1    
    85   42   44 1    
    86   42  165 1    
    87   43  166 1    
    88   43  167 1    
    89   43  168 1    
    90   44   45 am   BACKBONE|DICT|INTERRES
    91   44  169 1    
    92   45   46 2    
    93   45   47 1    
    94   47   48 1    
    95   47   49 1    
    96   47  170 1    
    97   48  171 1    
    98   48  172 1    
    99   48  173 1    
   100   49   50 am   BACKBONE|DICT|INTERRES
   101   49  174 1    
   102   50   51 2    
   103   50   52 1    
   104   52   53 1    
   105   52   54 1    
   106   52  175 1    
   107   53  176 1    
   108   53  177 1    
   109   53  178 1    
   110   54   55 am   BACKBONE|DICT|INTERRES
   111   54  179 1    
   112   55   56 2    
   113   55   57 1    
   114   57   58 1    
   115   57   59 1    
   116   57  180 1    
   117   58  181 1    
   118   58  182 1    
   119   58  183 1    
   120   59   60 am   BACKBONE|DICT|INTERRES
   121   59  184 1    
   122   60   61 2    
   123   60   62 1    
   124   62   63 1    
   125   62   64 1    
   126   62  185 1    
   127   63  186 1    
   128   63  187 1    
   129   63  188 1    
   130   64   65 am   BACKBONE|DICT|INTERRES
   131   64  189 1    
   132   65   66 2    
   133   67   68 2    
   134   67   69 am   BACKBONE|DICT|INTERRES
   135   69   70 1    
   136   69  190 1    
   137   70   71 1    
   138   70   72 1    
   139   70  191 1    
   140   71  192 1    
   141   71  193 1    
   142   71  194 1    
   143   72   73 2    
   144   72   74 am   BACKBONE|DICT|INTERRES
   145   74   75 1    
   146   74  195 1    
   147   75   76 1    
   148   75   77 1    
   149   75  196 1    
   150   76  197 1    
   151   76  198 1    
   152   76  199 1    
   153   77   78 2    
   154   77   79 am   BACKBONE|DICT|INTERRES
   155   79   80 1    
   156   79  200 1    
   157   80   81 1    
   158   80   82 1    
   159   80  201 1    
   160   81  202 1    
   161   81  203 1    
   162   81  204 1    
   163   82   83 2    
   164   82   84 am   BACKBONE|DICT|INTERRES
   165   84   85 1    
   166   84  205 1    
   167   85   86 1    
   168   85   87 1    
   169   85  206 1    
   170   86  207 1    
   171   86  208 1    
   172   86  209 1    
   173   87   88 2    
   174   87   89 am   BACKBONE|DICT|INTERRES
   175   89   90 1    
   176   89  210 1    
   177   90   91 1    
   178   90   92 1    
   179   90  211 1    
   180   91  212 1    
   181   91  213 1    
   182   91  214 1    
   183   92   93 2    
   184   92   94 am   BACKBONE|DICT|INTERRES
   185   94   95 1    
   186   94  215 1    
   187   95   96 1    
   188   95   97 1    
   189   95  216 1    
   190   96  217 1    
   191   96  218 1    
   192   96  219 1    
   193   97   98 2    
   194   97   99 am   BACKBONE|DICT|INTERRES
   195   99  100 1    
   196   99  220 1    
   197  100  101 1    
   198  100  102 1    
   199  100  221 1    
   200  101  222 1    
   201  101  223 1    
   202  101  224 1    
   203  102  103 2    
   204  102  104 am   BACKBONE|DICT|INTERRES
   205  104  105 1    
   206  104  225 1    
   207  105  106 1    
   208  105  107 1    
   209  105  226 1    
   210  106  227 1    
   211  106  228 1    
   212  106  229 1    
   213  107  108 2    
   214  107  109 am   BACKBONE|DICT|INTERRES
   215  109  110 1    
   216  109  230 1    
   217  110  111 1    
   218  110  112 1    
   219  110  231 1    
   220  111  232 1    
   221  111  233 1    
   222  111  234 1    
   223  112  113 2    
   224  112  114 am   BACKBONE|DICT|INTERRES
   225  114  115 1    
   226  114  235 1    
   227  115  116 1    
   228  115  117 1    
   229  115  236 1    
   230  116  237 1    
   231  116  238 1    
   232  116  239 1    
   233  117  118 2    
   234  117  119 am   BACKBONE|DICT|INTERRES
   235  119  120 1    
   236  119  240 1    
   237  120  121 1    
   238  120  124 1    
   239  120  241 1    
   240  121  122 am   BACKBONE|DICT|INTERRES
   241  121  123 2    
   242  122  242 1    
   243  122  243 1    
   244  124  125 1    
   245  124  244 1    
   246  124  245 1    
   247  125  126 1    
   248  126  246 1    
   249  126  247 1    
@<TRIPOS>SUBSTRUCTURE
     1 UNK         1 GROUP             0       ****    0 ROOT    
