@<TRIPOS>MOLECULE
3R540
247   249    1
SMALL
USER_CHARGES


@<TRIPOS>ATOM
      1 CA         -1.9701  -12.8014  -45.6207 C.3       0 UNK        -0.1800 
      2 C          -1.0378  -11.9709  -46.4898 C.2       0 UNK         0.5000 
      3 O          -1.5097  -11.1924  -47.3187 O.2       0 UNK        -0.5000 
      4 N           0.2752  -12.1395  -46.3056 N.am      1 UNK        -0.5000 
      5 CA          1.3283  -11.4231  -47.0288 C.3       1 UNK         0.1400 
      6 C6          2.3823  -12.4061  -47.5996 C.3       23 UNK        -0.0398 
      7 S7          1.6945  -13.4474  -48.9288 S.3       23 UNK        -0.2404 
      8 C8          1.3848  -14.9896  -48.0193 C.3       23 UNK        -0.0205 
      9 C9          0.6577  -16.0117  -48.8757 C.ar      23 UNK        -0.0193 
     10 C10        -0.6747  -15.7999  -49.2383 C.ar      23 UNK        -0.1150 
     11 C11        -1.3640  -16.7432  -50.0054 C.ar      23 UNK        -0.0193 
     12 C12        -0.7026  -17.9054  -50.4173 C.ar      23 UNK        -0.1150 
     13 C13         0.6294  -18.1323  -50.0541 C.ar      23 UNK        -0.0193 
     14 C14         1.3045  -17.1796  -49.2866 C.ar      23 UNK        -0.1150 
     15 C15         1.3519  -19.3967  -50.4975 C.3       23 UNK        -0.0205 
     16 S16         1.5132  -20.6062  -49.1447 S.3       23 UNK        -0.2404 
     17 C17        -0.2062  -21.1844  -48.9920 C.3       23 UNK        -0.0398 
     18 CA         -0.3517  -22.3792  -48.0228 C.3       11 UNK         0.1400 
     19 N          -0.0828  -22.0152  -46.6253 N.am      11 UNK        -0.5000 
     20 C           0.0214  -22.9015  -45.6238 C.2       10 UNK         0.5000 
     21 O          -0.0710  -24.1176  -45.7809 O.2       10 UNK        -0.5000 
     22 CA          0.2007  -22.3480  -44.1992 C.3       10 UNK         0.1400 
     23 CB          1.6469  -21.8913  -43.9583 C.3       10 UNK        -0.1800 
     24 N          -0.7283  -21.2596  -43.8988 N.am      10 UNK        -0.5000 
     25 C          -2.0628  -21.3844  -43.8726 C.2       9 UNK         0.5000 
     26 O          -2.6523  -22.4478  -44.0525 O.2       9 UNK        -0.5000 
     27 CA         -2.8828  -20.1002  -43.6608 C.3       9 UNK         0.1400 
     28 CB         -3.0158  -19.7659  -42.1675 C.3       9 UNK        -0.1800 
     29 N          -2.3176  -18.9578  -44.3758 N.am      9 UNK        -0.5000 
     30 C          -2.2339  -18.8639  -45.7107 C.2       8 UNK         0.5000 
     31 O          -2.6577  -19.7181  -46.4904 O.2       8 UNK        -0.5000 
     32 CA         -1.4987  -17.6273  -46.2515 C.3       8 UNK         0.1400 
     33 CB         -2.4051  -16.3893  -46.1965 C.3       8 UNK        -0.1800 
     34 N          -0.2623  -17.3579  -45.5148 N.am      8 UNK        -0.5000 
     35 C           0.8034  -18.1725  -45.5183 C.2       7 UNK         0.5000 
     36 O           0.8629  -19.2128  -46.1711 O.2       7 UNK        -0.5000 
     37 CA          1.9706  -17.8031  -44.5822 C.3       7 UNK         0.1400 
     38 CB          2.9639  -16.8599  -45.2735 C.3       7 UNK        -0.1800 
     39 N           1.5269  -17.2002  -43.3251 N.am      7 UNK        -0.5000 
     40 C           0.7756  -17.8264  -42.4085 C.2       6 UNK         0.5000 
     41 O           0.4112  -18.9960  -42.5179 O.2       6 UNK        -0.5000 
     42 CA          0.3323  -17.0156  -41.1766 C.3       6 UNK         0.1400 
     43 CB          1.1952  -17.3812  -39.9598 C.3       6 UNK        -0.1800 
     44 N           0.3756  -15.5646  -41.3693 N.am      6 UNK        -0.5000 
     45 C          -0.3986  -14.8657  -42.2128 C.2       5 UNK         0.5000 
     46 O          -1.2267  -15.3776  -42.9658 O.2       5 UNK        -0.5000 
     47 CA         -0.1669  -13.3431  -42.2415 C.3       5 UNK         0.1400 
     48 CB         -1.0174  -12.6443  -41.1710 C.3       5 UNK        -0.1800 
     49 N           1.2441  -13.0062  -42.0435 N.am      5 UNK        -0.5000 
     50 C           2.1875  -13.1769  -42.9772 C.2       4 UNK         0.5000 
     51 O           1.9539  -13.5497  -44.1312 O.2       4 UNK        -0.5000 
     52 CA          3.6358  -12.9590  -42.5253 C.3       4 UNK         0.1400 
     53 CB          4.2648  -14.3116  -42.1338 C.3       4 UNK        -0.1800 
     54 N           4.3816  -12.3288  -43.6087 N.am      4 UNK        -0.5000 
     55 C           5.6165  -11.8189  -43.5181 C.2       3 UNK         0.5000 
     56 O           6.2932  -11.8328  -42.4890 O.2       3 UNK        -0.5000 
     57 CA          6.1895  -11.1653  -44.7897 C.3       3 UNK         0.1400 
     58 CB          6.7388  -12.2348  -45.7470 C.3       3 UNK        -0.1800 
     59 N           5.2036  -10.3472  -45.4958 N.am      3 UNK        -0.5000 
     60 C           4.7095   -9.1834  -45.0472 C.2       2 UNK         0.5000 
     61 O           5.0832   -8.6339  -44.0103 O.2       2 UNK        -0.5000 
     62 CA          3.6004   -8.5281  -45.8965 C.3       2 UNK         0.1400 
     63 CB          4.2026   -7.5096  -46.8765 C.3       2 UNK        -0.1800 
     64 N           2.7979   -9.5005  -46.6463 N.am      2 UNK        -0.5000 
     65 C           1.9897  -10.4065  -46.0788 C.2       1 UNK         0.5000 
     66 O           1.7964  -10.4686  -44.8621 O.2       1 UNK        -0.5000 
     67 C          -1.7344  -23.0430  -48.1958 C.2       11 UNK         0.5000 
     68 O          -1.8452  -24.0364  -48.9182 O.2       11 UNK        -0.5000 
     69 N          -2.7562  -22.5068  -47.5136 N.am      12 UNK        -0.5000 
     70 CA         -4.1072  -23.0670  -47.4884 C.3       12 UNK         0.1400 
     71 CB         -5.0658  -22.0691  -46.8242 C.3       12 UNK        -0.1800 
     72 C          -4.1735  -24.4433  -46.7980 C.2       12 UNK         0.5000 
     73 O          -4.9184  -25.3079  -47.2513 O.2       12 UNK        -0.5000 
     74 N          -3.3860  -24.6451  -45.7348 N.am      13 UNK        -0.5000 
     75 CA         -3.2693  -25.9261  -45.0398 C.3       13 UNK         0.1400 
     76 CB         -2.6010  -25.7148  -43.6723 C.3       13 UNK        -0.1800 
     77 C          -2.5029  -26.9745  -45.8663 C.2       13 UNK         0.5000 
     78 O          -2.9532  -28.1165  -45.9659 O.2       13 UNK        -0.5000 
     79 N          -1.3571  -26.5735  -46.4325 N.am      14 UNK        -0.5000 
     80 CA         -0.4348  -27.4573  -47.1441 C.3       14 UNK         0.1400 
     81 CB          0.9291  -26.7636  -47.2835 C.3       14 UNK        -0.1800 
     82 C          -0.9406  -27.9082  -48.5241 C.2       14 UNK         0.5000 
     83 O          -0.7162  -29.0619  -48.8935 O.2       14 UNK        -0.5000 
     84 N          -1.5817  -26.9973  -49.2675 N.am      15 UNK        -0.5000 
     85 CA         -1.9474  -27.1946  -50.6727 C.3       15 UNK         0.1400 
     86 CB         -1.0281  -26.3219  -51.5447 C.3       15 UNK        -0.1800 
     87 C          -3.4404  -26.9344  -50.9404 C.2       15 UNK         0.5000 
     88 O          -3.8160  -26.6842  -52.0855 O.2       15 UNK        -0.5000 
     89 N          -4.2723  -26.9915  -49.8911 N.am      16 UNK        -0.5000 
     90 CA         -5.7384  -26.8510  -49.8642 C.3       16 UNK         0.1400 
     91 CB         -6.4221  -27.9192  -50.7398 C.3       16 UNK        -0.1800 
     92 C          -6.2732  -25.4412  -50.1970 C.2       16 UNK         0.5000 
     93 O          -7.2403  -25.0033  -49.5725 O.2       16 UNK        -0.5000 
     94 N          -5.6509  -24.7563  -51.1607 N.am      17 UNK        -0.5000 
     95 CA         -6.0226  -23.4248  -51.6339 C.3       17 UNK         0.1400 
     96 CB         -7.2297  -23.5302  -52.5893 C.3       17 UNK        -0.1800 
     97 C          -4.8243  -22.7173  -52.2909 C.2       17 UNK         0.5000 
     98 O          -5.0245  -21.8951  -53.1870 O.2       17 UNK        -0.5000 
     99 N          -3.5946  -23.0602  -51.8738 N.am      18 UNK        -0.5000 
    100 CA        -2.3310  -22.6689  -52.5128 C.3       18 UNK         0.1400 
    101 CB        -2.0924  -21.1488  -52.3735 C.3       18 UNK        -0.1800 
    102 C         -2.2774  -23.1836  -53.9694 C.2       18 UNK         0.5000 
    103 O         -2.6082  -24.3449  -54.2095 O.2       18 UNK        -0.5000 
    104 N         -1.9272  -22.3145  -54.9246 N.am      19 UNK        -0.5000 
    105 CA        -1.9941  -22.5726  -56.3656 C.3       19 UNK         0.1400 
    106 CB        -0.8474  -21.8082  -57.0525 C.3       19 UNK        -0.1800 
    107 C         -3.3823  -22.1984  -56.9348 C.2       19 UNK         0.5000 
    108 O         -3.4615  -21.5721  -57.9929 O.2       19 UNK        -0.5000 
    109 N         -4.4475  -22.5550  -56.1982 N.am      20 UNK        -0.5000 
    110 CA        -5.8493  -22.1637  -56.3990 C.3       20 UNK         0.1400 
    111 CB        -6.4222  -22.7922  -57.6862 C.3       20 UNK        -0.1800 
    112 C         -6.0217  -20.6309  -56.3320 C.2       20 UNK         0.5000 
    113 O         -6.6398  -20.0284  -57.2123 O.2       20 UNK        -0.5000 
    114 N         -5.4191  -20.0310  -55.2988 N.am      21 UNK        -0.5000 
    115 CA        -5.2630  -18.5860  -55.1356 C.3       21 UNK         0.1400 
    116 CB        -3.9487  -18.1520  -55.8126 C.3       21 UNK        -0.1800 
    117 C         -5.3140  -18.1355  -53.6629 C.2       21 UNK         0.5000 
    118 O         -5.0728  -16.9578  -53.3937 O.2       21 UNK        -0.5000 
    119 N         -5.6127  -19.0496  -52.7321 N.am      22 UNK        -0.5000 
    120 CA        -5.6777  -18.7842  -51.2888 C.3       22 UNK         0.1400 
    121 C         -6.7665  -19.6379  -50.5827 C.2       22 UNK         0.5000 
    122 N         -6.8745  -19.5535  -49.2640 N.am      22 UNK        -0.7600 
    123 O         -7.5266  -20.3676  -51.2138 O.2       22 UNK        -0.5000 
    124 C124       -4.2753  -18.8943  -50.6230 C.3       23 UNK        -0.0398 
    125 S125       -3.9642  -17.5434  -49.4398 S.3       23 UNK        -0.2404 
    126 C126       -2.8163  -16.4907  -50.3870 C.3       23 UNK        -0.0205 
    127 H127       -1.4584  -13.6689  -45.2052 H         1 UNK         0.0600 
    128 H128       -2.3576  -12.1994  -44.7990 H         1 UNK         0.0600 
    129 H129       -2.8144  -13.1618  -46.2085 H         1 UNK         0.0600 
    130 H130        0.6145  -12.7241  -45.5493 H         1 UNK         0.3000 
    131 H131        0.9040  -10.8542  -47.8587 H         1 UNK         0.0600 
    132 H132        3.2252  -11.8669  -48.0346 H         1 UNK         0.0800 
    133 H133        2.8001  -13.0353  -46.8113 H         1 UNK         0.0800 
    134 H134        0.7940  -14.7868  -47.1252 H         1 UNK         0.0800 
    135 H135        2.3424  -15.3870  -47.6840 H         1 UNK         0.0800 
    136 H136       -1.1738  -14.8963  -48.9174 H         1 UNK         0.1150 
    137 H137       -1.2247  -18.6356  -51.0160 H         1 UNK         0.1150 
    138 H138        2.3324  -17.3561  -49.0026 H         1 UNK         0.1150 
    139 H139        0.8446  -19.8577  -51.3458 H         1 UNK         0.0800 
    140 H140        2.3499  -19.1325  -50.8501 H         1 UNK         0.0800 
    141 H141       -0.5270  -21.4752  -49.9914 H         1 UNK         0.0800 
    142 H142       -0.8408  -20.3520  -48.6814 H         1 UNK         0.0800 
    143 H143        0.3883  -23.1309  -48.3068 H         1 UNK         0.0600 
    144 H144        0.0542  -21.0272  -46.4305 H         1 UNK         0.3000 
    145 H145       -0.0129  -23.1596  -43.5005 H         1 UNK         0.0600 
    146 H146        1.7817  -21.5251  -42.9404 H         1 UNK         0.0600 
    147 H147        2.3432  -22.7183  -44.1025 H         1 UNK         0.0600 
    148 H148        1.9406  -21.0963  -44.6424 H         1 UNK         0.0600 
    149 H149       -0.3196  -20.3581  -43.6708 H         1 UNK         0.3000 
    150 H150       -3.8846  -20.2772  -44.0573 H         1 UNK         0.0600 
    151 H151       -3.4831  -20.5897  -41.6266 H         1 UNK         0.0600 
    152 H152       -3.6369  -18.8832  -42.0142 H         1 UNK         0.0600 
    153 H153       -2.0474  -19.5796  -41.7035 H         1 UNK         0.0600 
    154 H154       -1.9123  -18.2231  -43.8148 H         1 UNK         0.3000 
    155 H155       -1.2423  -17.8281  -47.2931 H         1 UNK         0.0600 
    156 H156       -2.6460  -16.1062  -45.1716 H         1 UNK         0.0600 
    157 H157       -3.3477  -16.5688  -46.7132 H         1 UNK         0.0600 
    158 H158       -1.9298  -15.5368  -46.6780 H         1 UNK         0.0600 
    159 H159       -0.2591  -16.5507  -44.9068 H         1 UNK         0.3000 
    160 H160        2.4986  -18.7277  -44.3412 H         1 UNK         0.0600 
    161 H161        3.8748  -16.7513  -44.6852 H         1 UNK         0.0600 
    162 H162        2.5396  -15.8664  -45.4146 H         1 UNK         0.0600 
    163 H163        3.2549  -17.2437  -46.2523 H         1 UNK         0.0600 
    164 H164        1.7716  -16.2337  -43.1706 H         1 UNK         0.3000 
    165 H165       -0.7012  -17.2945  -40.9609 H         1 UNK         0.0600 
    166 H166        0.8398  -16.8811  -39.0587 H         1 UNK         0.0600 
    167 H167        1.1643  -18.4545  -39.7666 H         1 UNK         0.0600 
    168 H168        2.2397  -17.1046  -40.1094 H         1 UNK         0.0600 
    169 H169        1.0308  -15.0573  -40.7939 H         1 UNK         0.3000 
    170 H170       -0.4776  -12.9672  -43.2160 H         1 UNK         0.0600 
    171 H171       -2.0768  -12.8630  -41.3121 H         1 UNK         0.0600 
    172 H172       -0.7467  -12.9651  -40.1643 H         1 UNK         0.0600 
    173 H173       -0.9010  -11.5615  -41.2215 H         1 UNK         0.0600 
    174 H174        1.5086  -12.6794  -41.1252 H         1 UNK         0.3000 
    175 H175        3.6423  -12.2889  -41.6633 H         1 UNK         0.0600 
    176 H176        4.3429  -14.9789  -42.9926 H         1 UNK         0.0600 
    177 H177        5.2641  -14.1865  -41.7179 H         1 UNK         0.0600 
    178 H178        3.6671  -14.8198  -41.3761 H         1 UNK         0.0600 
    179 H179        3.8674  -12.2493  -44.4752 H         1 UNK         0.3000 
    180 H180        7.0177  -10.5192  -44.4903 H         1 UNK         0.0600 
    181 H181        5.9524  -12.9001  -46.1058 H         1 UNK         0.0600 
    182 H182        7.4897  -12.8520  -45.2518 H         1 UNK         0.0600 
    183 H183        7.2158  -11.7794  -46.6151 H         1 UNK         0.0600 
    184 H184        4.8592  -10.7057  -46.3728 H         1 UNK         0.3000 
    185 H185        2.9358   -7.9936  -45.2142 H         1 UNK         0.0600 
    186 H186        4.7864   -6.7559  -46.3463 H         1 UNK         0.0600 
    187 H187        4.8643   -7.9881  -47.5997 H         1 UNK         0.0600 
    188 H188        3.4232   -6.9846  -47.4290 H         1 UNK         0.0600 
    189 H189        2.8964   -9.4820  -47.6516 H         1 UNK         0.3000 
    190 H190       -2.6031  -21.6601  -46.9734 H         1 UNK         0.3000 
    191 H191       -4.4303  -23.2031  -48.5228 H         1 UNK         0.0600 
    192 H192       -4.7939  -21.8810  -45.7855 H         1 UNK         0.0600 
    193 H193       -6.0893  -22.4458  -46.8349 H         1 UNK         0.0600 
    194 H194       -5.0644  -21.1135  -47.3490 H         1 UNK         0.0600 
    195 H195       -2.8573  -23.8659  -45.3540 H         1 UNK         0.3000 
    196 H196       -4.2752  -26.3124  -44.8620 H         1 UNK         0.0600 
    197 H197       -2.5040  -26.6583  -43.1340 H         1 UNK         0.0600 
    198 H198       -3.1897  -25.0431  -43.0474 H         1 UNK         0.0600 
    199 H199       -1.6026  -25.2879  -43.7713 H         1 UNK         0.0600 
    200 H200       -1.0346  -25.6216  -46.2704 H         1 UNK         0.3000 
    201 H201       -0.2921  -28.3539  -46.5370 H         1 UNK         0.0600 
    202 H202        1.3492  -26.5210  -46.3073 H         1 UNK         0.0600 
    203 H203        0.8517  -25.8370  -47.8541 H         1 UNK         0.0600 
    204 H204        1.6466  -27.4065  -47.7950 H         1 UNK         0.0600 
    205 H205       -1.7149  -26.0589  -48.9009 H         1 UNK         0.3000 
    206 H206       -1.7867  -28.2328  -50.9690 H         1 UNK         0.0600 
    207 H207        0.0153  -26.6134  -51.4248 H         1 UNK         0.0600 
    208 H208       -1.2682  -26.4146  -52.6047 H         1 UNK         0.0600 
    209 H209       -1.1102  -25.2712  -51.2745 H         1 UNK         0.0600 
    210 H210       -3.8515  -27.1523  -48.9861 H         1 UNK         0.3000 
    211 H211       -6.0311  -27.0575  -48.8340 H         1 UNK         0.0600 
    212 H212       -6.2159  -27.7740  -51.8005 H         1 UNK         0.0600 
    213 H213       -7.5050  -27.8866  -50.6144 H         1 UNK         0.0600 
    214 H214       -6.0938  -28.9222  -50.4672 H         1 UNK         0.0600 
    215 H215       -4.9074  -25.2331  -51.6673 H         1 UNK         0.3000 
    216 H216       -6.3064  -22.8135  -50.7753 H         1 UNK         0.0600 
    217 H217       -7.5461  -22.5472  -52.9398 H         1 UNK         0.0600 
    218 H218       -8.0900  -23.9819  -52.0957 H         1 UNK         0.0600 
    219 H219       -6.9917  -24.1328  -53.4664 H         1 UNK         0.0600 
    220 H220       -3.5131  -23.7401  -51.1317 H         1 UNK         0.3000 
    221 H221       -1.5328  -23.1742  -51.9707 H         1 UNK         0.0600 
    222 H222       -2.7813  -20.5596  -52.9793 H         1 UNK         0.0600 
    223 H223       -2.2205  -20.8379  -51.3390 H         1 UNK         0.0600 
    224 H224       -1.0773  -20.8803  -52.6674 H         1 UNK         0.0600 
    225 H225       -1.6999  -21.3689  -54.6544 H         1 UNK         0.3000 
    226 H226       -1.8442  -23.6369  -56.5585 H         1 UNK         0.0600 
    227 H227        0.1199  -22.0955  -56.6399 H         1 UNK         0.0600 
    228 H228       -0.8173  -22.0222  -58.1216 H         1 UNK         0.0600 
    229 H229       -0.9556  -20.7292  -56.9346 H         1 UNK         0.0600 
    230 H230       -4.2620  -23.0553  -55.3388 H         1 UNK         0.3000 
    231 H231       -6.4094  -22.5728  -55.5570 H         1 UNK         0.0600 
    232 H232       -6.2919  -23.8743  -57.6872 H         1 UNK         0.0600 
    233 H233       -5.9442  -22.3959  -58.5823 H         1 UNK         0.0600 
    234 H234       -7.4912  -22.5941  -57.7726 H         1 UNK         0.0600 
    235 H235       -4.9898  -20.6227  -54.5922 H         1 UNK         0.3000 
    236 H236       -6.0915  -18.0752  -55.6304 H         1 UNK         0.0600 
    237 H237       -3.8102  -17.0717  -55.7558 H         1 UNK         0.0600 
    238 H238       -3.0843  -18.6215  -55.3416 H         1 UNK         0.0600 
    239 H239       -3.9403  -18.4220  -56.8689 H         1 UNK         0.0600 
    240 H240       -5.8347  -20.0012  -53.0022 H         1 UNK         0.3000 
    241 H241       -6.0443  -17.7614  -51.1814 H         1 UNK         0.0600 
    242 H242       -7.5877  -20.0899  -48.7961 H         1 UNK         0.3800 
    243 H243       -6.2729  -18.9469  -48.7281 H         1 UNK         0.3800 
    244 H244       -4.1405  -19.8512  -50.1151 H         1 UNK         0.0800 
    245 H245       -3.4959  -18.8614  -51.3816 H         1 UNK         0.0800 
    246 H246       -2.9518  -16.6334  -51.4600 H         1 UNK         0.0800 
    247 H247       -3.0781  -15.4493  -50.1946 H         1 UNK         0.0800 
@<TRIPOS>BOND
     1    1    2 1    
     2    1  127 1    
     3    1  128 1    
     4    1  129 1    
     5    2    3 2    
     6    2    4 am   BACKBONE|DICT|INTERRES
     7    4    5 1    
     8    4  130 1    
     9    5    6 1    
    10    5   65 1    
    11    5  131 1    
    12    6    7 1    
    13    6  132 1    
    14    6  133 1    
    15    7    8 1    
    16    8    9 1    
    17    8  134 1    
    18    8  135 1    
    19    9   10 ar   
    20    9   14 ar   
    21   10   11 ar   
    22   10  136 1    
    23   11   12 ar   
    24   11  126 1    
    25   12   13 ar   
    26   12  137 1    
    27   13   14 ar   
    28   13   15 1    
    29   14  138 1    
    30   15   16 1    
    31   15  139 1    
    32   15  140 1    
    33   16   17 1    
    34   17   18 1    
    35   17  141 1    
    36   17  142 1    
    37   18   19 1    
    38   18   67 1    
    39   18  143 1    
    40   19   20 am   BACKBONE|DICT|INTERRES
    41   19  144 1    
    42   20   21 2    
    43   20   22 1    
    44   22   23 1    
    45   22   24 1    
    46   22  145 1    
    47   23  146 1    
    48   23  147 1    
    49   23  148 1    
    50   24   25 am   BACKBONE|DICT|INTERRES
    51   24  149 1    
    52   25   26 2    
    53   25   27 1    
    54   27   28 1    
    55   27   29 1    
    56   27  150 1    
    57   28  151 1    
    58   28  152 1    
    59   28  153 1    
    60   29   30 am   BACKBONE|DICT|INTERRES
    61   29  154 1    
    62   30   31 2    
    63   30   32 1    
    64   32   33 1    
    65   32   34 1    
    66   32  155 1    
    67   33  156 1    
    68   33  157 1    
    69   33  158 1    
    70   34   35 am   BACKBONE|DICT|INTERRES
    71   34  159 1    
    72   35   36 2    
    73   35   37 1    
    74   37   38 1    
    75   37   39 1    
    76   37  160 1    
    77   38  161 1    
    78   38  162 1    
    79   38  163 1    
    80   39   40 am   BACKBONE|DICT|INTERRES
    81   39  164 1    
    82   40   41 2    
    83   40   42 1    
    84   42   43 1    
    85   42   44 1    
    86   42  165 1    
    87   43  166 1    
    88   43  167 1    
    89   43  168 1    
    90   44   45 am   BACKBONE|DICT|INTERRES
    91   44  169 1    
    92   45   46 2    
    93   45   47 1    
    94   47   48 1    
    95   47   49 1    
    96   47  170 1    
    97   48  171 1    
    98   48  172 1    
    99   48  173 1    
   100   49   50 am   BACKBONE|DICT|INTERRES
   101   49  174 1    
   102   50   51 2    
   103   50   52 1    
   104   52   53 1    
   105   52   54 1    
   106   52  175 1    
   107   53  176 1    
   108   53  177 1    
   109   53  178 1    
   110   54   55 am   BACKBONE|DICT|INTERRES
   111   54  179 1    
   112   55   56 2    
   113   55   57 1    
   114   57   58 1    
   115   57   59 1    
   116   57  180 1    
   117   58  181 1    
   118   58  182 1    
   119   58  183 1    
   120   59   60 am   BACKBONE|DICT|INTERRES
   121   59  184 1    
   122   60   61 2    
   123   60   62 1    
   124   62   63 1    
   125   62   64 1    
   126   62  185 1    
   127   63  186 1    
   128   63  187 1    
   129   63  188 1    
   130   64   65 am   BACKBONE|DICT|INTERRES
   131   64  189 1    
   132   65   66 2    
   133   67   68 2    
   134   67   69 am   BACKBONE|DICT|INTERRES
   135   69   70 1    
   136   69  190 1    
   137   70   71 1    
   138   70   72 1    
   139   70  191 1    
   140   71  192 1    
   141   71  193 1    
   142   71  194 1    
   143   72   73 2    
   144   72   74 am   BACKBONE|DICT|INTERRES
   145   74   75 1    
   146   74  195 1    
   147   75   76 1    
   148   75   77 1    
   149   75  196 1    
   150   76  197 1    
   151   76  198 1    
   152   76  199 1    
   153   77   78 2    
   154   77   79 am   BACKBONE|DICT|INTERRES
   155   79   80 1    
   156   79  200 1    
   157   80   81 1    
   158   80   82 1    
   159   80  201 1    
   160   81  202 1    
   161   81  203 1    
   162   81  204 1    
   163   82   83 2    
   164   82   84 am   BACKBONE|DICT|INTERRES
   165   84   85 1    
   166   84  205 1    
   167   85   86 1    
   168   85   87 1    
   169   85  206 1    
   170   86  207 1    
   171   86  208 1    
   172   86  209 1    
   173   87   88 2    
   174   87   89 am   BACKBONE|DICT|INTERRES
   175   89   90 1    
   176   89  210 1    
   177   90   91 1    
   178   90   92 1    
   179   90  211 1    
   180   91  212 1    
   181   91  213 1    
   182   91  214 1    
   183   92   93 2    
   184   92   94 am   BACKBONE|DICT|INTERRES
   185   94   95 1    
   186   94  215 1    
   187   95   96 1    
   188   95   97 1    
   189   95  216 1    
   190   96  217 1    
   191   96  218 1    
   192   96  219 1    
   193   97   98 2    
   194   97   99 am   BACKBONE|DICT|INTERRES
   195   99  100 1    
   196   99  220 1    
   197  100  101 1    
   198  100  102 1    
   199  100  221 1    
   200  101  222 1    
   201  101  223 1    
   202  101  224 1    
   203  102  103 2    
   204  102  104 am   BACKBONE|DICT|INTERRES
   205  104  105 1    
   206  104  225 1    
   207  105  106 1    
   208  105  107 1    
   209  105  226 1    
   210  106  227 1    
   211  106  228 1    
   212  106  229 1    
   213  107  108 2    
   214  107  109 am   BACKBONE|DICT|INTERRES
   215  109  110 1    
   216  109  230 1    
   217  110  111 1    
   218  110  112 1    
   219  110  231 1    
   220  111  232 1    
   221  111  233 1    
   222  111  234 1    
   223  112  113 2    
   224  112  114 am   BACKBONE|DICT|INTERRES
   225  114  115 1    
   226  114  235 1    
   227  115  116 1    
   228  115  117 1    
   229  115  236 1    
   230  116  237 1    
   231  116  238 1    
   232  116  239 1    
   233  117  118 2    
   234  117  119 am   BACKBONE|DICT|INTERRES
   235  119  120 1    
   236  119  240 1    
   237  120  121 1    
   238  120  124 1    
   239  120  241 1    
   240  121  122 am   BACKBONE|DICT|INTERRES
   241  121  123 2    
   242  122  242 1    
   243  122  243 1    
   244  124  125 1    
   245  124  244 1    
   246  124  245 1    
   247  125  126 1    
   248  126  246 1    
   249  126  247 1    
@<TRIPOS>SUBSTRUCTURE
     1 UNK         1 GROUP             0       ****    0 ROOT    
