@<TRIPOS>MOLECULE
3R540
247   249    1
SMALL
USER_CHARGES


@<TRIPOS>ATOM
      1 CA          5.0864   -9.3097  -46.7814 C.3       0 UNK        -0.1800 
      2 C           4.1136  -10.4250  -46.4275 C.2       0 UNK         0.5000 
      3 O           4.3037  -11.1118  -45.4224 O.2       0 UNK        -0.5000 
      4 N           3.0621  -10.6055  -47.2375 N.am      1 UNK        -0.5000 
      5 CA          2.0177  -11.6209  -47.0623 C.3       1 UNK         0.1400 
      6 C6          1.3805  -12.0183  -48.4194 C.3       23 UNK        -0.0398 
      7 S7          0.6925  -13.7067  -48.3912 S.3       23 UNK        -0.2404 
      8 C8         -0.1451  -13.7417  -50.0047 C.3       23 UNK        -0.0205 
      9 C9         -0.7476  -15.1101  -50.2777 C.ar      23 UNK        -0.0193 
     10 C10        -0.1026  -16.0160  -51.1260 C.ar      23 UNK        -0.1150 
     11 C11        -0.6451  -17.2854  -51.3559 C.ar      23 UNK        -0.0193 
     12 C12        -1.8445  -17.6425  -50.7333 C.ar      23 UNK        -0.1150 
     13 C13        -2.4973  -16.7420  -49.8853 C.ar      23 UNK        -0.0193 
     14 C14        -1.9492  -15.4762  -49.6672 C.ar      23 UNK        -0.1150 
     15 C15        -3.7880  -17.1385  -49.1942 C.3       23 UNK        -0.0205 
     16 S16        -3.4962  -17.5600  -47.4466 S.3       23 UNK        -0.2404 
     17 C17        -4.7755  -18.8417  -47.2036 C.3       23 UNK        -0.0398 
     18 CA         -4.2326  -20.2980  -47.1508 C.3       11 UNK         0.1400 
     19 N          -3.0083  -20.5040  -47.9381 N.am      11 UNK        -0.5000 
     20 C          -2.4763  -21.6939  -48.2396 C.2       10 UNK         0.5000 
     21 O          -3.0199  -22.7630  -47.9650 O.2       10 UNK        -0.5000 
     22 CA         -1.0954  -21.7102  -48.9225 C.3       10 UNK         0.1400 
     23 CB         -1.2579  -21.8571  -50.4406 C.3       10 UNK        -0.1800 
     24 N          -0.2316  -20.5568  -48.6467 N.am      10 UNK        -0.5000 
     25 C           0.1534  -20.1249  -47.4386 C.2       9 UNK         0.5000 
     26 O          -0.2912  -20.5677  -46.3770 O.2       9 UNK        -0.5000 
     27 CA          1.1775  -18.9798  -47.4288 C.3       9 UNK         0.1400 
     28 CB          0.4677  -17.6355  -47.6258 C.3       9 UNK        -0.1800 
     29 N           1.9390  -18.9572  -46.1796 N.am      9 UNK        -0.5000 
     30 C           2.9758  -19.7672  -45.9242 C.2       8 UNK         0.5000 
     31 O           3.4014  -20.5932  -46.7335 O.2       8 UNK        -0.5000 
     32 CA          3.6844  -19.6361  -44.5623 C.3       8 UNK         0.1400 
     33 CB          4.9896  -18.8380  -44.7082 C.3       8 UNK        -0.1800 
     34 N           2.8612  -19.0162  -43.5228 N.am      8 UNK        -0.5000 
     35 C           1.9821  -19.6904  -42.7660 C.2       7 UNK         0.5000 
     36 O           1.7622  -20.8937  -42.9106 O.2       7 UNK        -0.5000 
     37 CA          1.2496  -18.9248  -41.6428 C.3       7 UNK         0.1400 
     38 CB          1.1365  -19.7592  -40.3509 C.3       7 UNK        -0.1800 
     39 N           1.8770  -17.6370  -41.3512 N.am      7 UNK        -0.5000 
     40 C           1.2596  -16.5762  -40.8204 C.2       6 UNK         0.5000 
     41 O           0.0956  -16.5862  -40.4187 O.2       6 UNK        -0.5000 
     42 CA          2.0593  -15.2596  -40.7866 C.3       6 UNK         0.1400 
     43 CB          3.4082  -15.3888  -40.0493 C.3       6 UNK        -0.1800 
     44 N           2.2049  -14.7070  -42.1358 N.am      6 UNK        -0.5000 
     45 C           2.8835  -15.2251  -43.1703 C.2       5 UNK         0.5000 
     46 O           3.6763  -16.1653  -43.0803 O.2       5 UNK        -0.5000 
     47 CA          2.4875  -14.6687  -44.5521 C.3       5 UNK         0.1400 
     48 CB          3.2522  -15.3293  -45.7167 C.3       5 UNK        -0.1800 
     49 N           1.0359  -14.7731  -44.7606 N.am      5 UNK        -0.5000 
     50 C           0.2833  -15.8818  -44.6560 C.2       4 UNK         0.5000 
     51 O           0.7455  -17.0074  -44.4693 O.2       4 UNK        -0.5000 
     52 CA         -1.2401  -15.6825  -44.7165 C.3       4 UNK         0.1400 
     53 CB         -2.0242  -16.8973  -44.1814 C.3       4 UNK        -0.1800 
     54 N          -1.5852  -14.4895  -43.9516 N.am      4 UNK        -0.5000 
     55 C          -2.6124  -13.6678  -44.1729 C.2       3 UNK         0.5000 
     56 O          -3.4568  -13.8398  -45.0518 O.2       3 UNK        -0.5000 
     57 CA         -2.6929  -12.4244  -43.2652 C.3       3 UNK         0.1400 
     58 CB         -2.8906  -12.8036  -41.7833 C.3       3 UNK        -0.1800 
     59 N          -1.5618  -11.5037  -43.4449 N.am      3 UNK        -0.5000 
     60 C          -0.2659  -11.6992  -43.1653 C.2       2 UNK         0.5000 
     61 O           0.1914  -12.7240  -42.6523 O.2       2 UNK        -0.5000 
     62 CA          0.6995  -10.5779  -43.5851 C.3       2 UNK         0.1400 
     63 CB          1.6714  -10.2269  -42.4472 C.3       2 UNK        -0.1800 
     64 N           1.4742  -10.9706  -44.7609 N.am      2 UNK        -0.5000 
     65 C           0.9892  -11.1827  -45.9914 C.2       1 UNK         0.5000 
     66 O          -0.1948  -11.0181  -46.2876 O.2       1 UNK        -0.5000 
     67 C          -4.1322  -20.8377  -45.7070 C.2       11 UNK         0.5000 
     68 O          -5.1568  -21.2289  -45.1469 O.2       11 UNK        -0.5000 
     69 N          -2.9156  -20.8931  -45.1527 N.am      12 UNK        -0.5000 
     70 CA         -2.6233  -21.5053  -43.8608 C.3       12 UNK         0.1400 
     71 CB         -1.7711  -20.5345  -43.0314 C.3       12 UNK        -0.1800 
     72 C          -1.8994  -22.8480  -44.0500 C.2       12 UNK         0.5000 
     73 O          -2.3105  -23.8484  -43.4624 O.2       12 UNK        -0.5000 
     74 N          -0.8416  -22.8506  -44.8720 N.am      13 UNK        -0.5000 
     75 CA          0.0894  -23.9679  -45.0393 C.3       13 UNK         0.1400 
     76 CB          1.3527  -23.4581  -45.7496 C.3       13 UNK        -0.1800 
     77 C          -0.4913  -25.1818  -45.7875 C.2       13 UNK         0.5000 
     78 O          -0.0290  -26.3001  -45.5584 O.2       13 UNK        -0.5000 
     79 N          -1.4760  -24.9500  -46.6639 N.am      14 UNK        -0.5000 
     80 CA         -2.1284  -25.9722  -47.4856 C.3       14 UNK         0.1400 
     81 CB         -1.6977  -25.7849  -48.9524 C.3       14 UNK        -0.1800 
     82 C          -3.6594  -25.9267  -47.3301 C.2       14 UNK         0.5000 
     83 O          -4.3691  -26.4526  -48.1880 O.2       14 UNK        -0.5000 
     84 N          -4.1493  -25.2696  -46.2657 N.am      15 UNK        -0.5000 
     85 CA         -5.5636  -25.0862  -45.9093 C.3       15 UNK         0.1400 
     86 CB         -6.1527  -26.4161  -45.3961 C.3       15 UNK        -0.1800 
     87 C          -6.4213  -24.4527  -47.0306 C.2       15 UNK         0.5000 
     88 O          -7.6121  -24.7494  -47.1380 O.2       15 UNK        -0.5000 
     89 N          -5.7860  -23.6080  -47.8557 N.am      16 UNK        -0.5000 
     90 CA         -6.3243  -22.9189  -49.0311 C.3       16 UNK         0.1400 
     91 CB         -7.5238  -22.0180  -48.6674 C.3       16 UNK        -0.1800 
     92 C          -6.6143  -23.8308  -50.2395 C.2       16 UNK         0.5000 
     93 O          -7.2205  -23.3604  -51.2026 O.2       16 UNK        -0.5000 
     94 N          -6.1453  -25.0880  -50.2181 N.am      17 UNK        -0.5000 
     95 CA         -6.2868  -26.0217  -51.3388 C.3       17 UNK         0.1400 
     96 CB         -5.9834  -27.4517  -50.8672 C.3       17 UNK        -0.1800 
     97 C          -5.3877  -25.6389  -52.5288 C.2       17 UNK         0.5000 
     98 O          -5.8291  -25.7094  -53.6760 O.2       17 UNK        -0.5000 
     99 N          -4.1508  -25.2186  -52.2283 N.am      18 UNK        -0.5000 
    100 CA        -3.1561  -24.8026  -53.2200 C.3       18 UNK         0.1400 
    101 CB        -1.7554  -25.1809  -52.7136 C.3       18 UNK        -0.1800 
    102 C         -3.2210  -23.2990  -53.5452 C.2       18 UNK         0.5000 
    103 O         -2.6203  -22.8755  -54.5322 O.2       18 UNK        -0.5000 
    104 N         -3.9415  -22.5094  -52.7335 N.am      19 UNK        -0.5000 
    105 CA        -4.0201  -21.0426  -52.8140 C.3       19 UNK         0.1400 
    106 CB        -4.7544  -20.5051  -51.5760 C.3       19 UNK        -0.1800 
    107 C         -4.6492  -20.4863  -54.1074 C.2       19 UNK         0.5000 
    108 O         -4.5099  -19.2946  -54.3817 O.2       19 UNK        -0.5000 
    109 N         -5.2996  -21.3533  -54.8937 N.am      20 UNK        -0.5000 
    110 CA        -5.7855  -21.0570  -56.2407 C.3       20 UNK         0.1400 
    111 CB        -6.6952  -22.2069  -56.7001 C.3       20 UNK        -0.1800 
    112 C         -4.6519  -20.8250  -57.2637 C.2       20 UNK         0.5000 
    113 O         -4.8928  -20.1664  -58.2766 O.2       20 UNK        -0.5000 
    114 N         -3.4543  -21.3659  -56.9940 N.am      21 UNK        -0.5000 
    115 CA        -2.2762  -21.2562  -57.8571 C.3       21 UNK         0.1400 
    116 CB        -2.0336  -22.6126  -58.5392 C.3       21 UNK        -0.1800 
    117 C         -1.0140  -20.8035  -57.1006 C.2       21 UNK         0.5000 
    118 O         -0.1302  -20.2171  -57.7265 O.2       21 UNK        -0.5000 
    119 N         -0.9320  -21.0952  -55.7940 N.am      22 UNK        -0.5000 
    120 CA         0.2385  -20.8862  -54.9199 C.3       22 UNK         0.1400 
    121 C          1.4560  -21.8052  -55.2560 C.2       22 UNK         0.5000 
    122 N          1.2747  -22.9042  -55.9789 N.am      22 UNK        -0.7600 
    123 O          2.5782  -21.5446  -54.8309 O.2       22 UNK        -0.5000 
    124 C124        0.6360  -19.3908  -54.7500 C.3       23 UNK        -0.0398 
    125 S125       -0.6438  -18.4021  -53.9008 S.3       23 UNK        -0.2404 
    126 C126        0.0890  -18.2832  -52.2384 C.3       23 UNK        -0.0205 
    127 H127        4.7913   -8.7879  -47.6921 H         1 UNK         0.0600 
    128 H128        6.0857   -9.7181  -46.9318 H         1 UNK         0.0600 
    129 H129        5.1326   -8.5817  -45.9715 H         1 UNK         0.0600 
    130 H130        2.9402   -9.9853  -48.0258 H         1 UNK         0.3000 
    131 H131        2.5103  -12.5125  -46.6722 H         1 UNK         0.0600 
    132 H132        0.6177  -11.3042  -48.7351 H         1 UNK         0.0800 
    133 H133        2.1405  -12.0075  -49.2022 H         1 UNK         0.0800 
    134 H134        0.5649  -13.4758  -50.7894 H         1 UNK         0.0800 
    135 H135       -0.9297  -12.9839  -50.0244 H         1 UNK         0.0800 
    136 H136        0.8308  -15.7380  -51.5949 H         1 UNK         0.1150 
    137 H137       -2.2649  -18.6226  -50.9052 H         1 UNK         0.1150 
    138 H138       -2.4465  -14.7837  -49.0023 H         1 UNK         0.1150 
    139 H139       -4.5102  -16.3230  -49.2534 H         1 UNK         0.0800 
    140 H140       -4.2345  -17.9833  -49.7193 H         1 UNK         0.0800 
    141 H141       -5.5088  -18.7657  -48.0072 H         1 UNK         0.0800 
    142 H142       -5.3390  -18.5879  -46.3035 H         1 UNK         0.0800 
    143 H143       -4.9958  -20.9156  -47.6174 H         1 UNK         0.0600 
    144 H144       -2.4942  -19.6656  -48.1690 H         1 UNK         0.3000 
    145 H145       -0.5772  -22.5967  -48.5523 H         1 UNK         0.0600 
    146 H146       -0.3080  -22.0926  -50.9208 H         1 UNK         0.0600 
    147 H147       -1.9522  -22.6608  -50.6832 H         1 UNK         0.0600 
    148 H148       -1.6436  -20.9437  -50.8902 H         1 UNK         0.0600 
    149 H149        0.1743  -20.1131  -49.4566 H         1 UNK         0.3000 
    150 H150        1.8736  -19.1209  -48.2583 H         1 UNK         0.0600 
    151 H151        0.0622  -17.5618  -48.6317 H         1 UNK         0.0600 
    152 H152        1.1488  -16.7951  -47.4936 H         1 UNK         0.0600 
    153 H153       -0.3672  -17.5155  -46.9368 H         1 UNK         0.0600 
    154 H154        1.5970  -18.3340  -45.4514 H         1 UNK         0.3000 
    155 H155        3.9542  -20.6453  -44.2433 H         1 UNK         0.0600 
    156 H156        4.8053  -17.8162  -45.0381 H         1 UNK         0.0600 
    157 H157        5.6530  -19.3030  -45.4385 H         1 UNK         0.0600 
    158 H158        5.5300  -18.7904  -43.7627 H         1 UNK         0.0600 
    159 H159        2.9548  -18.0115  -43.4199 H         1 UNK         0.3000 
    160 H160        0.2441  -18.7306  -42.0198 H         1 UNK         0.0600 
    161 H161        2.1193  -19.9790  -39.9330 H         1 UNK         0.0600 
    162 H162        0.6360  -20.7104  -40.5354 H         1 UNK         0.0600 
    163 H163        0.5570  -19.2386  -39.5886 H         1 UNK         0.0600 
    164 H164        2.8201  -17.5049  -41.6966 H         1 UNK         0.3000 
    165 H165        1.4568  -14.5370  -40.2336 H         1 UNK         0.0600 
    166 H166        4.0820  -16.1036  -40.5210 H         1 UNK         0.0600 
    167 H167        3.9216  -14.4284  -40.0054 H         1 UNK         0.0600 
    168 H168        3.2537  -15.7212  -39.0223 H         1 UNK         0.0600 
    169 H169        1.5447  -13.9607  -42.3449 H         1 UNK         0.3000 
    170 H170        2.7409  -13.6085  -44.5407 H         1 UNK         0.0600 
    171 H171        4.3289  -15.2061  -45.5962 H         1 UNK         0.0600 
    172 H172        3.0490  -16.3970  -45.7807 H         1 UNK         0.0600 
    173 H173        2.9796  -14.8860  -46.6734 H         1 UNK         0.0600 
    174 H174        0.5480  -13.8988  -44.8868 H         1 UNK         0.3000 
    175 H175       -1.4988  -15.5291  -45.7664 H         1 UNK         0.0600 
    176 H176       -1.7865  -17.0958  -43.1356 H         1 UNK         0.0600 
    177 H177       -3.0999  -16.7397  -44.2586 H         1 UNK         0.0600 
    178 H178       -1.7899  -17.7985  -44.7498 H         1 UNK         0.0600 
    179 H179       -0.9215  -14.2138  -43.2336 H         1 UNK         0.3000 
    180 H180       -3.5794  -11.8687  -43.5752 H         1 UNK         0.0600 
    181 H181       -2.0452  -13.3600  -41.3783 H         1 UNK         0.0600 
    182 H182       -3.7769  -13.4268  -41.6590 H         1 UNK         0.0600 
    183 H183       -3.0298  -11.9154  -41.1672 H         1 UNK         0.0600 
    184 H184       -1.7993  -10.6495  -43.9306 H         1 UNK         0.3000 
    185 H185        0.1252   -9.6825  -43.8315 H         1 UNK         0.0600 
    186 H186        1.1291   -9.9361  -41.5467 H         1 UNK         0.0600 
    187 H187        2.3126  -11.0702  -42.1867 H         1 UNK         0.0600 
    188 H188        2.3151   -9.3915  -42.7232 H         1 UNK         0.0600 
    189 H189        2.4741  -11.0856  -44.6291 H         1 UNK         0.3000 
    190 H190       -2.1126  -20.5874  -45.6939 H         1 UNK         0.3000 
    191 H191       -3.5415  -21.7013  -43.3032 H         1 UNK         0.0600 
    192 H192       -1.4444  -20.9928  -42.0972 H         1 UNK         0.0600 
    193 H193       -2.3363  -19.6385  -42.7758 H         1 UNK         0.0600 
    194 H194       -0.8817  -20.2215  -43.5784 H         1 UNK         0.0600 
    195 H195       -0.5782  -21.9809  -45.3320 H         1 UNK         0.3000 
    196 H196        0.3793  -24.3089  -44.0432 H         1 UNK         0.0600 
    197 H197        1.1317  -23.0871  -46.7506 H         1 UNK         0.0600 
    198 H198        1.8183  -22.6473  -45.1889 H         1 UNK         0.0600 
    199 H199        2.0948  -24.2511  -45.8492 H         1 UNK         0.0600 
    200 H200       -1.8158  -24.0045  -46.7938 H         1 UNK         0.3000 
    201 H201       -1.8245  -26.9713  -47.1679 H         1 UNK         0.0600 
    202 H202       -2.0493  -24.8358  -49.3552 H         1 UNK         0.0600 
    203 H203       -2.0959  -26.5787  -49.5856 H         1 UNK         0.0600 
    204 H204       -0.6124  -25.8087  -49.0509 H         1 UNK         0.0600 
    205 H205       -3.4823  -24.8736  -45.6179 H         1 UNK         0.3000 
    206 H206       -5.5792  -24.3742  -45.0827 H         1 UNK         0.0600 
    207 H207       -5.5458  -26.8313  -44.5916 H         1 UNK         0.0600 
    208 H208       -7.1590  -26.2748  -45.0000 H         1 UNK         0.0600 
    209 H209       -6.2137  -27.1618  -46.1895 H         1 UNK         0.0600 
    210 H210       -4.7915  -23.4630  -47.7009 H         1 UNK         0.3000 
    211 H211       -5.5201  -22.2667  -49.3665 H         1 UNK         0.0600 
    212 H212       -7.7629  -21.3384  -49.4861 H         1 UNK         0.0600 
    213 H213       -7.3161  -21.4063  -47.7898 H         1 UNK         0.0600 
    214 H214       -8.4207  -22.6023  -48.4611 H         1 UNK         0.0600 
    215 H215       -5.6487  -25.4271  -49.3998 H         1 UNK         0.3000 
    216 H216       -7.3244  -25.9941  -51.6786 H         1 UNK         0.0600 
    217 H217       -4.9438  -27.5650  -50.5580 H         1 UNK         0.0600 
    218 H218       -6.1663  -28.1713  -51.6661 H         1 UNK         0.0600 
    219 H219       -6.6155  -27.7322  -50.0244 H         1 UNK         0.0600 
    220 H220       -3.8676  -25.2089  -51.2596 H         1 UNK         0.3000 
    221 H221       -3.3258  -25.3404  -54.1552 H         1 UNK         0.0600 
    222 H222       -1.6766  -26.2546  -52.5425 H         1 UNK         0.0600 
    223 H223       -1.5069  -24.6762  -51.7811 H         1 UNK         0.0600 
    224 H224       -0.9897  -24.9135  -53.4433 H         1 UNK         0.0600 
    225 H225       -4.4574  -22.9490  -51.9876 H         1 UNK         0.3000 
    226 H226       -2.9980  -20.6597  -52.7924 H         1 UNK         0.0600 
    227 H227       -5.7692  -20.8983  -51.5097 H         1 UNK         0.0600 
    228 H228       -4.2253  -20.7621  -50.6596 H         1 UNK         0.0600 
    229 H229       -4.8290  -19.4176  -51.6077 H         1 UNK         0.0600 
    230 H230       -5.3810  -22.3097  -54.5816 H         1 UNK         0.3000 
    231 H231       -6.3820  -20.1435  -56.1955 H         1 UNK         0.0600 
    232 H232       -6.1544  -23.1531  -56.7476 H         1 UNK         0.0600 
    233 H233       -7.1022  -22.0109  -57.6930 H         1 UNK         0.0600 
    234 H234       -7.5403  -22.3364  -56.0236 H         1 UNK         0.0600 
    235 H235       -3.3412  -21.8930  -56.1357 H         1 UNK         0.3000 
    236 H236       -2.4470  -20.5112  -58.6369 H         1 UNK         0.0600 
    237 H237       -2.8824  -22.8957  -59.1619 H         1 UNK         0.0600 
    238 H238       -1.1551  -22.5769  -59.1848 H         1 UNK         0.0600 
    239 H239       -1.8753  -23.4068  -57.8085 H         1 UNK         0.0600 
    240 H240       -1.6713  -21.6479  -55.3679 H         1 UNK         0.3000 
    241 H241       -0.0804  -21.2382  -53.9380 H         1 UNK         0.0600 
    242 H242        2.0631  -23.4981  -56.1828 H         1 UNK         0.3800 
    243 H243        0.3592  -23.1512  -56.3172 H         1 UNK         0.3800 
    244 H244        0.8440  -18.9310  -55.7159 H         1 UNK         0.0800 
    245 H245        1.5652  -19.2988  -54.1866 H         1 UNK         0.0800 
    246 H246        1.1376  -17.9935  -52.3215 H         1 UNK         0.0800 
    247 H247        0.0793  -19.2686  -51.7717 H         1 UNK         0.0800 
@<TRIPOS>BOND
     1    1    2 1    
     2    1  127 1    
     3    1  128 1    
     4    1  129 1    
     5    2    3 2    
     6    2    4 am   BACKBONE|DICT|INTERRES
     7    4    5 1    
     8    4  130 1    
     9    5    6 1    
    10    5   65 1    
    11    5  131 1    
    12    6    7 1    
    13    6  132 1    
    14    6  133 1    
    15    7    8 1    
    16    8    9 1    
    17    8  134 1    
    18    8  135 1    
    19    9   10 ar   
    20    9   14 ar   
    21   10   11 ar   
    22   10  136 1    
    23   11   12 ar   
    24   11  126 1    
    25   12   13 ar   
    26   12  137 1    
    27   13   14 ar   
    28   13   15 1    
    29   14  138 1    
    30   15   16 1    
    31   15  139 1    
    32   15  140 1    
    33   16   17 1    
    34   17   18 1    
    35   17  141 1    
    36   17  142 1    
    37   18   19 1    
    38   18   67 1    
    39   18  143 1    
    40   19   20 am   BACKBONE|DICT|INTERRES
    41   19  144 1    
    42   20   21 2    
    43   20   22 1    
    44   22   23 1    
    45   22   24 1    
    46   22  145 1    
    47   23  146 1    
    48   23  147 1    
    49   23  148 1    
    50   24   25 am   BACKBONE|DICT|INTERRES
    51   24  149 1    
    52   25   26 2    
    53   25   27 1    
    54   27   28 1    
    55   27   29 1    
    56   27  150 1    
    57   28  151 1    
    58   28  152 1    
    59   28  153 1    
    60   29   30 am   BACKBONE|DICT|INTERRES
    61   29  154 1    
    62   30   31 2    
    63   30   32 1    
    64   32   33 1    
    65   32   34 1    
    66   32  155 1    
    67   33  156 1    
    68   33  157 1    
    69   33  158 1    
    70   34   35 am   BACKBONE|DICT|INTERRES
    71   34  159 1    
    72   35   36 2    
    73   35   37 1    
    74   37   38 1    
    75   37   39 1    
    76   37  160 1    
    77   38  161 1    
    78   38  162 1    
    79   38  163 1    
    80   39   40 am   BACKBONE|DICT|INTERRES
    81   39  164 1    
    82   40   41 2    
    83   40   42 1    
    84   42   43 1    
    85   42   44 1    
    86   42  165 1    
    87   43  166 1    
    88   43  167 1    
    89   43  168 1    
    90   44   45 am   BACKBONE|DICT|INTERRES
    91   44  169 1    
    92   45   46 2    
    93   45   47 1    
    94   47   48 1    
    95   47   49 1    
    96   47  170 1    
    97   48  171 1    
    98   48  172 1    
    99   48  173 1    
   100   49   50 am   BACKBONE|DICT|INTERRES
   101   49  174 1    
   102   50   51 2    
   103   50   52 1    
   104   52   53 1    
   105   52   54 1    
   106   52  175 1    
   107   53  176 1    
   108   53  177 1    
   109   53  178 1    
   110   54   55 am   BACKBONE|DICT|INTERRES
   111   54  179 1    
   112   55   56 2    
   113   55   57 1    
   114   57   58 1    
   115   57   59 1    
   116   57  180 1    
   117   58  181 1    
   118   58  182 1    
   119   58  183 1    
   120   59   60 am   BACKBONE|DICT|INTERRES
   121   59  184 1    
   122   60   61 2    
   123   60   62 1    
   124   62   63 1    
   125   62   64 1    
   126   62  185 1    
   127   63  186 1    
   128   63  187 1    
   129   63  188 1    
   130   64   65 am   BACKBONE|DICT|INTERRES
   131   64  189 1    
   132   65   66 2    
   133   67   68 2    
   134   67   69 am   BACKBONE|DICT|INTERRES
   135   69   70 1    
   136   69  190 1    
   137   70   71 1    
   138   70   72 1    
   139   70  191 1    
   140   71  192 1    
   141   71  193 1    
   142   71  194 1    
   143   72   73 2    
   144   72   74 am   BACKBONE|DICT|INTERRES
   145   74   75 1    
   146   74  195 1    
   147   75   76 1    
   148   75   77 1    
   149   75  196 1    
   150   76  197 1    
   151   76  198 1    
   152   76  199 1    
   153   77   78 2    
   154   77   79 am   BACKBONE|DICT|INTERRES
   155   79   80 1    
   156   79  200 1    
   157   80   81 1    
   158   80   82 1    
   159   80  201 1    
   160   81  202 1    
   161   81  203 1    
   162   81  204 1    
   163   82   83 2    
   164   82   84 am   BACKBONE|DICT|INTERRES
   165   84   85 1    
   166   84  205 1    
   167   85   86 1    
   168   85   87 1    
   169   85  206 1    
   170   86  207 1    
   171   86  208 1    
   172   86  209 1    
   173   87   88 2    
   174   87   89 am   BACKBONE|DICT|INTERRES
   175   89   90 1    
   176   89  210 1    
   177   90   91 1    
   178   90   92 1    
   179   90  211 1    
   180   91  212 1    
   181   91  213 1    
   182   91  214 1    
   183   92   93 2    
   184   92   94 am   BACKBONE|DICT|INTERRES
   185   94   95 1    
   186   94  215 1    
   187   95   96 1    
   188   95   97 1    
   189   95  216 1    
   190   96  217 1    
   191   96  218 1    
   192   96  219 1    
   193   97   98 2    
   194   97   99 am   BACKBONE|DICT|INTERRES
   195   99  100 1    
   196   99  220 1    
   197  100  101 1    
   198  100  102 1    
   199  100  221 1    
   200  101  222 1    
   201  101  223 1    
   202  101  224 1    
   203  102  103 2    
   204  102  104 am   BACKBONE|DICT|INTERRES
   205  104  105 1    
   206  104  225 1    
   207  105  106 1    
   208  105  107 1    
   209  105  226 1    
   210  106  227 1    
   211  106  228 1    
   212  106  229 1    
   213  107  108 2    
   214  107  109 am   BACKBONE|DICT|INTERRES
   215  109  110 1    
   216  109  230 1    
   217  110  111 1    
   218  110  112 1    
   219  110  231 1    
   220  111  232 1    
   221  111  233 1    
   222  111  234 1    
   223  112  113 2    
   224  112  114 am   BACKBONE|DICT|INTERRES
   225  114  115 1    
   226  114  235 1    
   227  115  116 1    
   228  115  117 1    
   229  115  236 1    
   230  116  237 1    
   231  116  238 1    
   232  116  239 1    
   233  117  118 2    
   234  117  119 am   BACKBONE|DICT|INTERRES
   235  119  120 1    
   236  119  240 1    
   237  120  121 1    
   238  120  124 1    
   239  120  241 1    
   240  121  122 am   BACKBONE|DICT|INTERRES
   241  121  123 2    
   242  122  242 1    
   243  122  243 1    
   244  124  125 1    
   245  124  244 1    
   246  124  245 1    
   247  125  126 1    
   248  126  246 1    
   249  126  247 1    
@<TRIPOS>SUBSTRUCTURE
     1 UNK         1 GROUP             0       ****    0 ROOT    
