@<TRIPOS>MOLECULE
3R540
247   249    1
SMALL
USER_CHARGES


@<TRIPOS>ATOM
      1 CA          0.1430   -8.0331  -44.9183 C.3       0 UNK        -0.1800 
      2 C           0.4123   -9.4685  -45.3453 C.2       0 UNK         0.5000 
      3 O           0.4382  -10.3610  -44.5002 O.2       0 UNK        -0.5000 
      4 N           0.6213   -9.6908  -46.6503 N.am      1 UNK        -0.5000 
      5 CA          0.8864  -10.9918  -47.2814 C.3       1 UNK         0.1400 
      6 C6         -0.3630  -11.9205  -47.2993 C.3       23 UNK        -0.0398 
      7 S7         -0.4338  -12.9184  -48.8264 S.3       23 UNK        -0.2404 
      8 C8         -0.2524  -14.6194  -48.2027 C.3       23 UNK        -0.0205 
      9 C9          0.1869  -15.5536  -49.3210 C.ar      23 UNK        -0.0193 
     10 C10        -0.7126  -15.9336  -50.3235 C.ar      23 UNK        -0.1150 
     11 C11        -0.2976  -16.7517  -51.3804 C.ar      23 UNK        -0.0193 
     12 C12         1.0226  -17.2058  -51.4155 C.ar      23 UNK        -0.1150 
     13 C13         1.9203  -16.8650  -50.4004 C.ar      23 UNK        -0.0193 
     14 C14         1.5019  -16.0256  -49.3648 C.ar      23 UNK        -0.1150 
     15 C15         3.3347  -17.4271  -50.4148 C.3       23 UNK        -0.0205 
     16 S16         3.5783  -18.7122  -49.1436 S.3       23 UNK        -0.2404 
     17 C17         2.1083  -19.7698  -49.3930 C.3       23 UNK        -0.0398 
     18 CA          2.2715  -21.1977  -48.8203 C.3       11 UNK         0.1400 
     19 N           2.5786  -21.1816  -47.3841 N.am      11 UNK        -0.5000 
     20 C           3.2537  -22.1359  -46.7325 C.2       10 UNK         0.5000 
     21 O           3.6954  -23.1507  -47.2725 O.2       10 UNK        -0.5000 
     22 CA          3.4537  -21.9314  -45.2192 C.3       10 UNK         0.1400 
     23 CB          4.5743  -20.9141  -44.9547 C.3       10 UNK        -0.1800 
     24 N           2.2375  -21.5129  -44.5167 N.am      10 UNK        -0.5000 
     25 C           1.1337  -22.2629  -44.3803 C.2       9 UNK         0.5000 
     26 O           1.0006  -23.3813  -44.8768 O.2       9 UNK        -0.5000 
     27 CA         -0.0266  -21.6546  -43.5704 C.3       9 UNK         0.1400 
     28 CB          0.2609  -21.7102  -42.0624 C.3       9 UNK        -0.1800 
     29 N          -0.3058  -20.2777  -43.9704 N.am      9 UNK        -0.5000 
     30 C          -0.8631  -19.9415  -45.1402 C.2       8 UNK         0.5000 
     31 O          -1.3079  -20.7645  -45.9383 O.2       8 UNK        -0.5000 
     32 CA         -0.9075  -18.4467  -45.5046 C.3       8 UNK         0.1400 
     33 CB         -2.2132  -17.8067  -45.0149 C.3       8 UNK        -0.1800 
     34 N           0.2396  -17.6926  -45.0012 N.am      8 UNK        -0.5000 
     35 C           1.5061  -17.9135  -45.3803 C.2       7 UNK         0.5000 
     36 O           1.8294  -18.7628  -46.2073 O.2       7 UNK        -0.5000 
     37 CA          2.5987  -17.0966  -44.6744 C.3       7 UNK         0.1400 
     38 CB          2.7131  -15.6977  -45.2855 C.3       7 UNK        -0.1800 
     39 N           2.3564  -16.9959  -43.2364 N.am      7 UNK        -0.5000 
     40 C           2.4354  -18.0326  -42.3912 C.2       6 UNK         0.5000 
     41 O           2.7823  -19.1652  -42.7266 O.2       6 UNK        -0.5000 
     42 CA          1.9925  -17.7699  -40.9430 C.3       6 UNK         0.1400 
     43 CB          3.1289  -17.1405  -40.1238 C.3       6 UNK        -0.1800 
     44 N           0.8021  -16.9186  -40.8894 N.am      6 UNK        -0.5000 
     45 C          -0.4214  -17.3380  -41.2453 C.2       5 UNK         0.5000 
     46 O          -0.6603  -18.4830  -41.6270 O.2       5 UNK        -0.5000 
     47 CA         -1.5703  -16.3138  -41.1952 C.3       5 UNK         0.1400 
     48 CB         -2.2492  -16.3381  -39.8179 C.3       5 UNK        -0.1800 
     49 N          -1.1623  -14.9438  -41.5037 N.am      5 UNK        -0.5000 
     50 C          -0.6444  -14.5287  -42.6676 C.2       4 UNK         0.5000 
     51 O          -0.4288  -15.2765  -43.6219 O.2       4 UNK        -0.5000 
     52 CA         -0.2834  -13.0324  -42.7842 C.3       4 UNK         0.1400 
     53 CB         -0.7726  -12.1730  -41.5972 C.3       4 UNK        -0.1800 
     54 N           1.1484  -12.7976  -42.9970 N.am      4 UNK        -0.5000 
     55 C           2.1699  -13.3073  -42.2920 C.2       3 UNK         0.5000 
     56 O           2.0289  -14.1407  -41.3952 O.2       3 UNK        -0.5000 
     57 CA          3.5827  -12.8027  -42.6379 C.3       3 UNK         0.1400 
     58 CB          4.6826  -13.8282  -42.2920 C.3       3 UNK        -0.1800 
     59 N           3.6927  -12.3897  -44.0384 N.am      3 UNK        -0.5000 
     60 C           4.5479  -11.4723  -44.5032 C.2       2 UNK         0.5000 
     61 O           5.3218  -10.8382  -43.7845 O.2       2 UNK        -0.5000 
     62 CA          4.5496  -11.2043  -46.0219 C.3       2 UNK         0.1400 
     63 CB          5.2285  -12.3532  -46.7945 C.3       2 UNK        -0.1800 
     64 N           3.2315  -10.8743  -46.5798 N.am      2 UNK        -0.5000 
     65 C           2.1570  -11.6653  -46.7119 C.2       1 UNK         0.5000 
     66 O           2.1358  -12.8435  -46.3604 O.2       1 UNK        -0.5000 
     67 C           1.0170  -22.0430  -49.1386 C.2       11 UNK         0.5000 
     68 O           0.7161  -22.2509  -50.3143 O.2       11 UNK        -0.5000 
     69 N           0.3048  -22.4942  -48.0947 N.am      12 UNK        -0.5000 
     70 CA         -0.9272  -23.2877  -48.1158 C.3       12 UNK         0.1400 
     71 CB         -0.6991  -24.6598  -48.7799 C.3       12 UNK        -0.1800 
     72 C          -2.1521  -22.5357  -48.6783 C.2       12 UNK         0.5000 
     73 O          -3.1485  -23.1657  -49.0268 O.2       12 UNK        -0.5000 
     74 N          -2.1066  -21.1962  -48.6675 N.am      13 UNK        -0.5000 
     75 CA         -3.2225  -20.3047  -48.9977 C.3       13 UNK         0.1400 
     76 CB         -2.7330  -18.8481  -48.9607 C.3       13 UNK        -0.1800 
     77 C          -4.4320  -20.4735  -48.0530 C.2       13 UNK         0.5000 
     78 O          -5.5566  -20.1596  -48.4399 O.2       13 UNK        -0.5000 
     79 N          -4.1762  -20.9706  -46.8355 N.am      14 UNK        -0.5000 
     80 CA         -5.1792  -21.3098  -45.8286 C.3       14 UNK         0.1400 
     81 CB         -4.4793  -21.3754  -44.4608 C.3       14 UNK        -0.1800 
     82 C          -5.9377  -22.6266  -46.1129 C.2       14 UNK         0.5000 
     83 O          -6.9484  -22.8793  -45.4546 O.2       14 UNK        -0.5000 
     84 N          -5.4440  -23.4575  -47.0439 N.am      15 UNK        -0.5000 
     85 CA         -6.0380  -24.7484  -47.4043 C.3       15 UNK         0.1400 
     86 CB         -4.9588  -25.6216  -48.0672 C.3       15 UNK        -0.1800 
     87 C          -7.2627  -24.6026  -48.3310 C.2       15 UNK         0.5000 
     88 O          -7.5875  -23.4997  -48.7791 O.2       15 UNK        -0.5000 
     89 N          -7.9091  -25.7390  -48.6299 N.am      16 UNK        -0.5000 
     90 CA         -9.0108  -25.8587  -49.5890 C.3       16 UNK         0.1400 
     91 CB         -9.5026  -27.3134  -49.6164 C.3       16 UNK        -0.1800 
     92 C          -8.5870  -25.4020  -50.9979 C.2       16 UNK         0.5000 
     93 O          -7.5132  -25.7909  -51.4660 O.2       16 UNK        -0.5000 
     94 N          -9.4059  -24.5351  -51.6130 N.am      17 UNK        -0.5000 
     95 CA         -9.1591  -23.8356  -52.8853 C.3       17 UNK         0.1400 
     96 CB         -9.1853  -24.8319  -54.0637 C.3       17 UNK        -0.1800 
     97 C          -7.8733  -22.9748  -52.8785 C.2       17 UNK         0.5000 
     98 O          -7.2989  -22.7166  -53.9391 O.2       17 UNK        -0.5000 
     99 N          -7.4126  -22.5965  -51.6751 N.am      18 UNK        -0.5000 
    100 CA        -6.1272  -21.9644  -51.3752 C.3       18 UNK         0.1400 
    101 CB        -6.1091  -20.5095  -51.8922 C.3       18 UNK        -0.1800 
    102 C         -4.9228  -22.7965  -51.8629 C.2       18 UNK         0.5000 
    103 O         -3.9227  -22.2131  -52.2697 O.2       18 UNK        -0.5000 
    104 N         -5.0554  -24.1344  -51.8683 N.am      19 UNK        -0.5000 
    105 CA        -4.1202  -25.1028  -52.4547 C.3       19 UNK         0.1400 
    106 CB        -2.7890  -25.1459  -51.6788 C.3       19 UNK        -0.1800 
    107 C         -3.9294  -24.8690  -53.9673 C.2       19 UNK         0.5000 
    108 O         -2.7987  -24.7669  -54.4485 O.2       19 UNK        -0.5000 
    109 N         -5.0632  -24.7502  -54.6746 N.am      20 UNK        -0.5000 
    110 CA        -5.1907  -24.4466  -56.1033 C.3       20 UNK         0.1400 
    111 CB        -4.6828  -25.6265  -56.9581 C.3       20 UNK        -0.1800 
    112 C         -4.5337  -23.0992  -56.4674 C.2       20 UNK         0.5000 
    113 O         -3.7282  -23.0320  -57.3978 O.2       20 UNK        -0.5000 
    114 N         -4.8887  -22.0596  -55.6979 N.am      21 UNK        -0.5000 
    115 CA        -4.3547  -20.6947  -55.7601 C.3       21 UNK         0.1400 
    116 CB        -4.7571  -20.0038  -57.0803 C.3       21 UNK        -0.1800 
    117 C         -2.8378  -20.6355  -55.4738 C.2       21 UNK         0.5000 
    118 O         -2.0721  -20.0725  -56.2593 O.2       21 UNK        -0.5000 
    119 N         -2.4500  -21.2048  -54.3278 N.am      22 UNK        -0.5000 
    120 CA        -1.1054  -21.1883  -53.7339 C.3       22 UNK         0.1400 
    121 C         -0.0573  -22.0093  -54.5399 C.2       22 UNK         0.5000 
    122 N         -0.4243  -23.1642  -55.0826 N.am      22 UNK        -0.7600 
    123 O          1.0981  -21.6134  -54.6735 O.2       22 UNK        -0.5000 
    124 C124       -0.6232  -19.7592  -53.3504 C.3       23 UNK        -0.0398 
    125 S125       -1.8515  -18.8423  -52.3515 S.3       23 UNK        -0.2404 
    126 C126       -1.2655  -17.1245  -52.4952 C.3       23 UNK        -0.0205 
    127 H127        0.1489   -7.3487  -45.7669 H         1 UNK         0.0600 
    128 H128        0.9037   -7.7046  -44.2101 H         1 UNK         0.0600 
    129 H129       -0.8298   -7.9640  -44.4317 H         1 UNK         0.0600 
    130 H130        0.5917   -8.9051  -47.2857 H         1 UNK         0.3000 
    131 H131        1.1329  -10.7404  -48.3143 H         1 UNK         0.0600 
    132 H132       -1.2722  -11.3181  -47.2879 H         1 UNK         0.0800 
    133 H133       -0.4245  -12.5504  -46.4099 H         1 UNK         0.0800 
    134 H134        0.4717  -14.6414  -47.3870 H         1 UNK         0.0800 
    135 H135       -1.2005  -14.9598  -47.7838 H         1 UNK         0.0800 
    136 H136       -1.7301  -15.5702  -50.2909 H         1 UNK         0.1150 
    137 H137        1.3490  -17.8373  -52.2287 H         1 UNK         0.1150 
    138 H138        2.2015  -15.7476  -48.5901 H         1 UNK         0.1150 
    139 H139        3.5717  -17.8480  -51.3931 H         1 UNK         0.0800 
    140 H140        4.0493  -16.6201  -50.2473 H         1 UNK         0.0800 
    141 H141        1.2495  -19.2714  -48.9388 H         1 UNK         0.0800 
    142 H142        1.9062  -19.8195  -50.4645 H         1 UNK         0.0800 
    143 H143        3.1053  -21.6681  -49.3458 H         1 UNK         0.0600 
    144 H144        2.2885  -20.3446  -46.8776 H         1 UNK         0.3000 
    145 H145        3.7642  -22.8891  -44.7965 H         1 UNK         0.0600 
    146 H146        4.7862  -20.8289  -43.8888 H         1 UNK         0.0600 
    147 H147        4.3122  -19.9223  -45.3241 H         1 UNK         0.0600 
    148 H148        5.4997  -21.2142  -45.4477 H         1 UNK         0.0600 
    149 H149        2.2744  -20.6098  -44.0547 H         1 UNK         0.3000 
    150 H150       -0.9190  -22.2545  -43.7622 H         1 UNK         0.0600 
    151 H151        1.1249  -21.1037  -41.7907 H         1 UNK         0.0600 
    152 H152       -0.5923  -21.3499  -41.4873 H         1 UNK         0.0600 
    153 H153        0.4621  -22.7327  -41.7407 H         1 UNK         0.0600 
    154 H154       -0.0407  -19.5459  -43.3215 H         1 UNK         0.3000 
    155 H155       -0.8749  -18.3764  -46.5924 H         1 UNK         0.0600 
    156 H156       -3.0805  -18.3133  -45.4401 H         1 UNK         0.0600 
    157 H157       -2.2731  -16.7576  -45.3054 H         1 UNK         0.0600 
    158 H158       -2.3020  -17.8625  -43.9305 H         1 UNK         0.0600 
    159 H159        0.0437  -16.9301  -44.3568 H         1 UNK         0.3000 
    160 H160        3.5504  -17.6094  -44.8274 H         1 UNK         0.0600 
    161 H161        1.8173  -15.1061  -45.0981 H         1 UNK         0.0600 
    162 H162        2.8512  -15.7525  -46.3651 H         1 UNK         0.0600 
    163 H163        3.5684  -15.1573  -44.8850 H         1 UNK         0.0600 
    164 H164        2.0140  -16.1127  -42.8841 H         1 UNK         0.3000 
    165 H165        1.7468  -18.7326  -40.4892 H         1 UNK         0.0600 
    166 H166        2.8236  -16.9696  -39.0914 H         1 UNK         0.0600 
    167 H167        3.9995  -17.7971  -40.1015 H         1 UNK         0.0600 
    168 H168        3.4519  -16.1870  -40.5405 H         1 UNK         0.0600 
    169 H169        0.9452  -15.9426  -40.6583 H         1 UNK         0.3000 
    170 H170       -2.3097  -16.6112  -41.9404 H         1 UNK         0.0600 
    171 H171       -2.5898  -17.3439  -39.5682 H         1 UNK         0.0600 
    172 H172       -1.5691  -16.0162  -39.0282 H         1 UNK         0.0600 
    173 H173       -3.1229  -15.6865  -39.7962 H         1 UNK         0.0600 
    174 H174       -1.2777  -14.2643  -40.7662 H         1 UNK         0.3000 
    175 H175       -0.7905  -12.6750  -43.6812 H         1 UNK         0.0600 
    176 H176       -0.2766  -12.4412  -40.6636 H         1 UNK         0.0600 
    177 H177       -0.5741  -11.1167  -41.7808 H         1 UNK         0.0600 
    178 H178       -1.8490  -12.2712  -41.4510 H         1 UNK         0.0600 
    179 H179        1.3475  -12.0948  -43.6998 H         1 UNK         0.3000 
    180 H180        3.7350  -11.9239  -42.0082 H         1 UNK         0.0600 
    181 H181        4.6815  -14.0574  -41.2259 H         1 UNK         0.0600 
    182 H182        5.6747  -13.4471  -42.5334 H         1 UNK         0.0600 
    183 H183        4.5452  -14.7672  -42.8272 H         1 UNK         0.0600 
    184 H184        3.0730  -12.8399  -44.7087 H         1 UNK         0.3000 
    185 H185        5.1590  -10.3126  -46.1779 H         1 UNK         0.0600 
    186 H186        6.2491  -12.5058  -46.4416 H         1 UNK         0.0600 
    187 H187        4.7018  -13.3003  -46.6750 H         1 UNK         0.0600 
    188 H188        5.2829  -12.1328  -47.8605 H         1 UNK         0.0600 
    189 H189        3.1198   -9.9069  -46.8496 H         1 UNK         0.3000 
    190 H190        0.6416  -22.2572  -47.1713 H         1 UNK         0.3000 
    191 H191       -1.1638  -23.4766  -47.0676 H         1 UNK         0.0600 
    192 H192       -1.5642  -25.3089  -48.6415 H         1 UNK         0.0600 
    193 H193        0.1591  -25.1703  -48.3431 H         1 UNK         0.0600 
    194 H194       -0.5254  -24.5680  -49.8520 H         1 UNK         0.0600 
    195 H195       -1.2851  -20.7667  -48.2685 H         1 UNK         0.3000 
    196 H196       -3.5368  -20.5445  -50.0141 H         1 UNK         0.0600 
    197 H197       -3.4197  -18.2004  -49.5065 H         1 UNK         0.0600 
    198 H198       -1.7488  -18.7372  -49.4156 H         1 UNK         0.0600 
    199 H199       -2.6745  -18.4654  -47.9434 H         1 UNK         0.0600 
    200 H200       -3.2077  -21.1481  -46.5899 H         1 UNK         0.3000 
    201 H201       -5.9204  -20.5087  -45.7949 H         1 UNK         0.0600 
    202 H202       -5.1897  -21.6035  -43.6652 H         1 UNK         0.0600 
    203 H203       -4.0097  -20.4239  -44.2107 H         1 UNK         0.0600 
    204 H204       -3.7057  -22.1442  -44.4423 H         1 UNK         0.0600 
    205 H205       -4.6440  -23.1675  -47.5949 H         1 UNK         0.3000 
    206 H206       -6.3649  -25.2454  -46.4887 H         1 UNK         0.0600 
    207 H207       -4.7168  -25.2625  -49.0672 H         1 UNK         0.0600 
    208 H208       -4.0389  -25.6342  -47.4822 H         1 UNK         0.0600 
    209 H209       -5.2905  -26.6554  -48.1669 H         1 UNK         0.0600 
    210 H210       -7.5662  -26.6060  -48.2434 H         1 UNK         0.3000 
    211 H211       -9.8267  -25.2239  -49.2375 H         1 UNK         0.0600 
    212 H212       -8.7156  -27.9981  -49.9355 H         1 UNK         0.0600 
    213 H213      -10.3384  -27.4296  -50.3076 H         1 UNK         0.0600 
    214 H214       -9.8483  -27.6328  -48.6331 H         1 UNK         0.0600 
    215 H215      -10.2566  -24.2665  -51.1372 H         1 UNK         0.3000 
    216 H216       -9.9872  -23.1386  -53.0208 H         1 UNK         0.0600 
    217 H217      -10.1020  -25.4215  -54.0598 H         1 UNK         0.0600 
    218 H218       -8.3428  -25.5231  -54.0313 H         1 UNK         0.0600 
    219 H219       -9.1425  -24.3102  -55.0205 H         1 UNK         0.0600 
    220 H220       -7.9327  -22.8853  -50.8548 H         1 UNK         0.3000 
    221 H221       -6.0436  -21.9363  -50.2899 H         1 UNK         0.0600 
    222 H222       -5.1905  -19.9959  -51.6082 H         1 UNK         0.0600 
    223 H223       -6.1856  -20.4631  -52.9778 H         1 UNK         0.0600 
    224 H224       -6.9369  -19.9374  -51.4738 H         1 UNK         0.0600 
    225 H225       -5.9334  -24.5308  -51.5486 H         1 UNK         0.3000 
    226 H226       -4.5891  -26.0826  -52.3531 H         1 UNK         0.0600 
    227 H227       -2.9571  -25.3943  -50.6327 H         1 UNK         0.0600 
    228 H228       -2.1219  -25.9063  -52.0857 H         1 UNK         0.0600 
    229 H229       -2.2600  -24.1932  -51.7174 H         1 UNK         0.0600 
    230 H230       -5.9348  -24.7818  -54.1647 H         1 UNK         0.3000 
    231 H231       -6.2576  -24.3315  -56.3008 H         1 UNK         0.0600 
    232 H232       -4.8718  -25.4495  -58.0175 H         1 UNK         0.0600 
    233 H233       -5.1886  -26.5538  -56.6893 H         1 UNK         0.0600 
    234 H234       -3.6102  -25.7832  -56.8395 H         1 UNK         0.0600 
    235 H235       -5.5760  -22.2320  -54.9704 H         1 UNK         0.3000 
    236 H236       -4.8344  -20.1435  -54.9506 H         1 UNK         0.0600 
    237 H237       -5.8365  -20.0352  -57.2280 H         1 UNK         0.0600 
    238 H238       -4.4611  -18.9541  -57.0744 H         1 UNK         0.0600 
    239 H239       -4.2858  -20.4694  -57.9461 H         1 UNK         0.0600 
    240 H240       -3.1500  -21.6355  -53.7251 H         1 UNK         0.3000 
    241 H241       -1.2059  -21.7344  -52.7947 H         1 UNK         0.0600 
    242 H242       -1.3559  -23.5438  -54.9349 H         1 UNK         0.3800 
    243 H243        0.2491  -23.6991  -55.6064 H         1 UNK         0.3800 
    244 H244       -0.3904  -19.1861  -54.2488 H         1 UNK         0.0800 
    245 H245        0.2997  -19.8259  -52.7735 H         1 UNK         0.0800 
    246 H246       -2.1341  -16.4650  -52.4695 H         1 UNK         0.0800 
    247 H247       -0.7963  -16.9633  -53.4666 H         1 UNK         0.0800 
@<TRIPOS>BOND
     1    1    2 1    
     2    1  127 1    
     3    1  128 1    
     4    1  129 1    
     5    2    3 2    
     6    2    4 am   BACKBONE|DICT|INTERRES
     7    4    5 1    
     8    4  130 1    
     9    5    6 1    
    10    5   65 1    
    11    5  131 1    
    12    6    7 1    
    13    6  132 1    
    14    6  133 1    
    15    7    8 1    
    16    8    9 1    
    17    8  134 1    
    18    8  135 1    
    19    9   10 ar   
    20    9   14 ar   
    21   10   11 ar   
    22   10  136 1    
    23   11   12 ar   
    24   11  126 1    
    25   12   13 ar   
    26   12  137 1    
    27   13   14 ar   
    28   13   15 1    
    29   14  138 1    
    30   15   16 1    
    31   15  139 1    
    32   15  140 1    
    33   16   17 1    
    34   17   18 1    
    35   17  141 1    
    36   17  142 1    
    37   18   19 1    
    38   18   67 1    
    39   18  143 1    
    40   19   20 am   BACKBONE|DICT|INTERRES
    41   19  144 1    
    42   20   21 2    
    43   20   22 1    
    44   22   23 1    
    45   22   24 1    
    46   22  145 1    
    47   23  146 1    
    48   23  147 1    
    49   23  148 1    
    50   24   25 am   BACKBONE|DICT|INTERRES
    51   24  149 1    
    52   25   26 2    
    53   25   27 1    
    54   27   28 1    
    55   27   29 1    
    56   27  150 1    
    57   28  151 1    
    58   28  152 1    
    59   28  153 1    
    60   29   30 am   BACKBONE|DICT|INTERRES
    61   29  154 1    
    62   30   31 2    
    63   30   32 1    
    64   32   33 1    
    65   32   34 1    
    66   32  155 1    
    67   33  156 1    
    68   33  157 1    
    69   33  158 1    
    70   34   35 am   BACKBONE|DICT|INTERRES
    71   34  159 1    
    72   35   36 2    
    73   35   37 1    
    74   37   38 1    
    75   37   39 1    
    76   37  160 1    
    77   38  161 1    
    78   38  162 1    
    79   38  163 1    
    80   39   40 am   BACKBONE|DICT|INTERRES
    81   39  164 1    
    82   40   41 2    
    83   40   42 1    
    84   42   43 1    
    85   42   44 1    
    86   42  165 1    
    87   43  166 1    
    88   43  167 1    
    89   43  168 1    
    90   44   45 am   BACKBONE|DICT|INTERRES
    91   44  169 1    
    92   45   46 2    
    93   45   47 1    
    94   47   48 1    
    95   47   49 1    
    96   47  170 1    
    97   48  171 1    
    98   48  172 1    
    99   48  173 1    
   100   49   50 am   BACKBONE|DICT|INTERRES
   101   49  174 1    
   102   50   51 2    
   103   50   52 1    
   104   52   53 1    
   105   52   54 1    
   106   52  175 1    
   107   53  176 1    
   108   53  177 1    
   109   53  178 1    
   110   54   55 am   BACKBONE|DICT|INTERRES
   111   54  179 1    
   112   55   56 2    
   113   55   57 1    
   114   57   58 1    
   115   57   59 1    
   116   57  180 1    
   117   58  181 1    
   118   58  182 1    
   119   58  183 1    
   120   59   60 am   BACKBONE|DICT|INTERRES
   121   59  184 1    
   122   60   61 2    
   123   60   62 1    
   124   62   63 1    
   125   62   64 1    
   126   62  185 1    
   127   63  186 1    
   128   63  187 1    
   129   63  188 1    
   130   64   65 am   BACKBONE|DICT|INTERRES
   131   64  189 1    
   132   65   66 2    
   133   67   68 2    
   134   67   69 am   BACKBONE|DICT|INTERRES
   135   69   70 1    
   136   69  190 1    
   137   70   71 1    
   138   70   72 1    
   139   70  191 1    
   140   71  192 1    
   141   71  193 1    
   142   71  194 1    
   143   72   73 2    
   144   72   74 am   BACKBONE|DICT|INTERRES
   145   74   75 1    
   146   74  195 1    
   147   75   76 1    
   148   75   77 1    
   149   75  196 1    
   150   76  197 1    
   151   76  198 1    
   152   76  199 1    
   153   77   78 2    
   154   77   79 am   BACKBONE|DICT|INTERRES
   155   79   80 1    
   156   79  200 1    
   157   80   81 1    
   158   80   82 1    
   159   80  201 1    
   160   81  202 1    
   161   81  203 1    
   162   81  204 1    
   163   82   83 2    
   164   82   84 am   BACKBONE|DICT|INTERRES
   165   84   85 1    
   166   84  205 1    
   167   85   86 1    
   168   85   87 1    
   169   85  206 1    
   170   86  207 1    
   171   86  208 1    
   172   86  209 1    
   173   87   88 2    
   174   87   89 am   BACKBONE|DICT|INTERRES
   175   89   90 1    
   176   89  210 1    
   177   90   91 1    
   178   90   92 1    
   179   90  211 1    
   180   91  212 1    
   181   91  213 1    
   182   91  214 1    
   183   92   93 2    
   184   92   94 am   BACKBONE|DICT|INTERRES
   185   94   95 1    
   186   94  215 1    
   187   95   96 1    
   188   95   97 1    
   189   95  216 1    
   190   96  217 1    
   191   96  218 1    
   192   96  219 1    
   193   97   98 2    
   194   97   99 am   BACKBONE|DICT|INTERRES
   195   99  100 1    
   196   99  220 1    
   197  100  101 1    
   198  100  102 1    
   199  100  221 1    
   200  101  222 1    
   201  101  223 1    
   202  101  224 1    
   203  102  103 2    
   204  102  104 am   BACKBONE|DICT|INTERRES
   205  104  105 1    
   206  104  225 1    
   207  105  106 1    
   208  105  107 1    
   209  105  226 1    
   210  106  227 1    
   211  106  228 1    
   212  106  229 1    
   213  107  108 2    
   214  107  109 am   BACKBONE|DICT|INTERRES
   215  109  110 1    
   216  109  230 1    
   217  110  111 1    
   218  110  112 1    
   219  110  231 1    
   220  111  232 1    
   221  111  233 1    
   222  111  234 1    
   223  112  113 2    
   224  112  114 am   BACKBONE|DICT|INTERRES
   225  114  115 1    
   226  114  235 1    
   227  115  116 1    
   228  115  117 1    
   229  115  236 1    
   230  116  237 1    
   231  116  238 1    
   232  116  239 1    
   233  117  118 2    
   234  117  119 am   BACKBONE|DICT|INTERRES
   235  119  120 1    
   236  119  240 1    
   237  120  121 1    
   238  120  124 1    
   239  120  241 1    
   240  121  122 am   BACKBONE|DICT|INTERRES
   241  121  123 2    
   242  122  242 1    
   243  122  243 1    
   244  124  125 1    
   245  124  244 1    
   246  124  245 1    
   247  125  126 1    
   248  126  246 1    
   249  126  247 1    
@<TRIPOS>SUBSTRUCTURE
     1 UNK         1 GROUP             0       ****    0 ROOT    
