@<TRIPOS>MOLECULE
3R540
247   249    1
SMALL
USER_CHARGES


@<TRIPOS>ATOM
      1 CA          5.7960   -9.6940  -49.7262 C.3       0 UNK        -0.1800 
      2 C           5.0894  -11.0321  -49.5598 C.2       0 UNK         0.5000 
      3 O           4.6522  -11.6171  -50.5502 O.2       0 UNK        -0.5000 
      4 N           4.9841  -11.5127  -48.3131 N.am      1 UNK        -0.5000 
      5 CA          4.3196  -12.7597  -47.9142 C.3       1 UNK         0.1400 
      6 C6          5.0131  -14.0302  -48.4825 C.3       23 UNK        -0.0398 
      7 S7          4.8477  -15.4665  -47.3656 S.3       23 UNK        -0.2404 
      8 C8          5.3918  -16.8330  -48.4476 C.3       23 UNK        -0.0205 
      9 C9          4.2762  -17.5514  -49.2099 C.ar      23 UNK        -0.0193 
     10 C10         3.1216  -16.8920  -49.6507 C.ar      23 UNK        -0.1150 
     11 C11         2.1349  -17.5760  -50.3647 C.ar      23 UNK        -0.0193 
     12 C12         2.3194  -18.9249  -50.6667 C.ar      23 UNK        -0.1150 
     13 C13         3.4545  -19.6086  -50.2235 C.ar      23 UNK        -0.0193 
     14 C14         4.4277  -18.9122  -49.4998 C.ar      23 UNK        -0.1150 
     15 C15         3.6397  -21.0963  -50.5174 C.3       23 UNK        -0.0205 
     16 S16         2.1402  -22.1021  -50.2303 S.3       23 UNK        -0.2404 
     17 C17         1.6472  -21.5297  -48.5729 C.3       23 UNK        -0.0398 
     18 CA          0.7300  -22.5153  -47.8182 C.3       11 UNK         0.1400 
     19 N           0.7753  -22.2627  -46.3774 N.am      11 UNK        -0.5000 
     20 C           0.2564  -23.0660  -45.4411 C.2       10 UNK         0.5000 
     21 O          -0.2891  -24.1409  -45.6893 O.2       10 UNK        -0.5000 
     22 CA          0.3227  -22.5611  -43.9887 C.3       10 UNK         0.1400 
     23 CB          1.7086  -22.8285  -43.3836 C.3       10 UNK        -0.1800 
     24 N           0.0010  -21.1370  -43.8737 N.am      10 UNK        -0.5000 
     25 C          -1.1958  -20.6073  -44.1669 C.2       9 UNK         0.5000 
     26 O          -2.1662  -21.2739  -44.5250 O.2       9 UNK        -0.5000 
     27 CA         -1.3202  -19.0746  -44.0987 C.3       9 UNK         0.1400 
     28 CB         -1.4700  -18.5980  -42.6468 C.3       9 UNK        -0.1800 
     29 N          -0.1937  -18.3877  -44.7284 N.am      9 UNK        -0.5000 
     30 C           0.1357  -18.4887  -46.0238 C.2       8 UNK         0.5000 
     31 O          -0.4896  -19.1598  -46.8412 O.2       8 UNK        -0.5000 
     32 CA          1.4046  -17.7526  -46.4756 C.3       8 UNK         0.1400 
     33 CB          1.1093  -16.2628  -46.6871 C.3       8 UNK        -0.1800 
     34 N           2.5011  -17.9161  -45.5232 N.am      8 UNK        -0.5000 
     35 C           3.1037  -19.0845  -45.2616 C.2       7 UNK         0.5000 
     36 O           2.8073  -20.1486  -45.8042 O.2       7 UNK        -0.5000 
     37 CA          4.1826  -19.0684  -44.1658 C.3       7 UNK         0.1400 
     38 CB          5.4933  -18.4690  -44.6977 C.3       7 UNK        -0.1800 
     39 N           3.7527  -18.3327  -42.9764 N.am      7 UNK        -0.5000 
     40 C           2.7360  -18.7008  -42.1833 C.2       6 UNK         0.5000 
     41 O           2.0722  -19.7240  -42.3476 O.2       6 UNK        -0.5000 
     42 CA          2.3715  -17.7384  -41.0382 C.3       6 UNK         0.1400 
     43 CB          3.2349  -18.0202  -39.7996 C.3       6 UNK        -0.1800 
     44 N           2.4903  -16.3238  -41.4039 N.am      6 UNK        -0.5000 
     45 C           1.7824  -15.7286  -42.3728 C.2       5 UNK         0.5000 
     46 O           0.9929  -16.3248  -43.1080 O.2       5 UNK        -0.5000 
     47 CA          2.0363  -14.2276  -42.5851 C.3       5 UNK         0.1400 
     48 CB          3.0708  -14.0186  -43.7037 C.3       5 UNK        -0.1800 
     49 N           0.7975  -13.5300  -42.9285 N.am      5 UNK        -0.5000 
     50 C          -0.1963  -13.2792  -42.0622 C.2       4 UNK         0.5000 
     51 O          -0.1285  -13.5456  -40.8610 O.2       4 UNK        -0.5000 
     52 CA         -1.4760  -12.6042  -42.6028 C.3       4 UNK         0.1400 
     53 CB         -1.4616  -11.1002  -42.2882 C.3       4 UNK        -0.1800 
     54 N          -1.6683  -12.7786  -44.0417 N.am      4 UNK        -0.5000 
     55 C          -2.0094  -13.9279  -44.6388 C.2       3 UNK         0.5000 
     56 O          -2.3245  -14.9460  -44.0228 O.2       3 UNK        -0.5000 
     57 CA         -1.9924  -13.9553  -46.1841 C.3       3 UNK         0.1400 
     58 CB         -3.4271  -13.9401  -46.7343 C.3       3 UNK        -0.1800 
     59 N          -1.2242  -12.8880  -46.8454 N.am      3 UNK        -0.5000 
     60 C           0.0717  -12.6103  -46.6472 C.2       2 UNK         0.5000 
     61 O           0.7537  -13.1387  -45.7688 O.2       2 UNK        -0.5000 
     62 CA          0.6994  -11.5259  -47.5441 C.3       2 UNK         0.1400 
     63 CB          0.3576  -10.1260  -47.0106 C.3       2 UNK        -0.1800 
     64 N           2.1560  -11.6647  -47.5986 N.am      2 UNK        -0.5000 
     65 C           2.7966  -12.6917  -48.1746 C.2       1 UNK         0.5000 
     66 O           2.2328  -13.5266  -48.8834 O.2       1 UNK        -0.5000 
     67 C          -0.7192  -22.5031  -48.3559 C.2       11 UNK         0.5000 
     68 O          -1.0990  -23.4016  -49.1067 O.2       11 UNK        -0.5000 
     69 N          -1.5263  -21.5266  -47.9168 N.am      12 UNK        -0.5000 
     70 CA         -2.9493  -21.4229  -48.2367 C.3       12 UNK         0.1400 
     71 CB         -3.5026  -20.0755  -47.7522 C.3       12 UNK        -0.1800 
     72 C          -3.7765  -22.5892  -47.6707 C.2       12 UNK         0.5000 
     73 O          -4.6653  -23.0828  -48.3642 O.2       12 UNK        -0.5000 
     74 N          -3.4483  -23.0358  -46.4500 N.am      13 UNK        -0.5000 
     75 CA         -4.0386  -24.2113  -45.8086 C.3       13 UNK         0.1400 
     76 CB         -3.6217  -24.2663  -44.3318 C.3       13 UNK        -0.1800 
     77 C          -3.6818  -25.5236  -46.5305 C.2       13 UNK         0.5000 
     78 O          -4.5471  -26.3880  -46.6670 O.2       13 UNK        -0.5000 
     79 N          -2.4426  -25.6367  -47.0319 N.am      14 UNK        -0.5000 
     80 CA         -1.9922  -26.7425  -47.8851 C.3       14 UNK         0.1400 
     81 CB         -0.4673  -26.6786  -48.0583 C.3       14 UNK        -0.1800 
     82 C          -2.7081  -26.7677  -49.2522 C.2       14 UNK         0.5000 
     83 O          -2.9584  -27.8466  -49.7894 O.2       14 UNK        -0.5000 
     84 N          -3.0848  -25.5832  -49.7527 N.am      15 UNK        -0.5000 
     85 CA         -3.9458  -25.3711  -50.9198 C.3       15 UNK         0.1400 
     86 CB         -3.5839  -24.0161  -51.5505 C.3       15 UNK        -0.1800 
     87 C          -5.4559  -25.4589  -50.5876 C.2       15 UNK         0.5000 
     88 O          -6.2836  -25.0474  -51.4068 O.2       15 UNK        -0.5000 
     89 N          -5.7902  -25.9574  -49.3851 N.am      16 UNK        -0.5000 
     90 CA         -7.1248  -26.2197  -48.8301 C.3       16 UNK         0.1400 
     91 CB         -7.8290  -27.3204  -49.6504 C.3       16 UNK        -0.1800 
     92 C          -8.0132  -24.9689  -48.6678 C.2       16 UNK         0.5000 
     93 O          -9.2258  -25.1081  -48.5016 O.2       16 UNK        -0.5000 
     94 N          -7.4109  -23.7737  -48.7702 N.am      17 UNK        -0.5000 
     95 CA         -8.0432  -22.4569  -48.9127 C.3       17 UNK         0.1400 
     96 CB         -8.7825  -22.0613  -47.6190 C.3       17 UNK        -0.1800 
     97 C          -8.9356  -22.3244  -50.1716 C.2       17 UNK         0.5000 
     98 O          -9.7007  -21.3646  -50.2733 O.2       17 UNK        -0.5000 
     99 N          -8.8233  -23.2784  -51.1078 N.am      18 UNK        -0.5000 
    100 CA        -9.6019  -23.3469  -52.3400 C.3       18 UNK         0.1400 
    101 CB        -9.7804  -24.8189  -52.7495 C.3       18 UNK        -0.1800 
    102 C         -8.9029  -22.5312  -53.4326 C.2       18 UNK         0.5000 
    103 O         -9.4720  -21.5599  -53.9319 O.2       18 UNK        -0.5000 
    104 N         -7.6565  -22.9140  -53.7420 N.am      19 UNK        -0.5000 
    105 CA        -6.7594  -22.1357  -54.5966 C.3       19 UNK         0.1400 
    106 CB        -5.7399  -23.0775  -55.2554 C.3       19 UNK        -0.1800 
    107 C         -6.0494  -21.0254  -53.7997 C.2       19 UNK         0.5000 
    108 O         -5.6910  -20.0013  -54.3792 O.2       19 UNK        -0.5000 
    109 N         -5.8558  -21.2608  -52.4902 N.am      20 UNK        -0.5000 
    110 CA        -5.2567  -20.3687  -51.4859 C.3       20 UNK         0.1400 
    111 CB        -6.1392  -19.1236  -51.2709 C.3       20 UNK        -0.1800 
    112 C         -3.7769  -20.0009  -51.7390 C.2       20 UNK         0.5000 
    113 O         -3.2552  -19.1010  -51.0801 O.2       20 UNK        -0.5000 
    114 N         -3.1224  -20.7236  -52.6587 N.am      21 UNK        -0.5000 
    115 CA        -1.7256  -20.6369  -53.0975 C.3       21 UNK         0.1400 
    116 CB        -0.7598  -20.9370  -51.9401 C.3       21 UNK        -0.1800 
    117 C         -1.3556  -19.3283  -53.8261 C.2       21 UNK         0.5000 
    118 O         -0.8028  -19.3931  -54.9250 O.2       21 UNK        -0.5000 
    119 N         -1.6777  -18.1803  -53.2249 N.am      22 UNK        -0.5000 
    120 CA        -1.5237  -16.8385  -53.7991 C.3       22 UNK         0.1400 
    121 C         -2.9162  -16.2772  -54.1839 C.2       22 UNK         0.5000 
    122 N         -3.0683  -15.7410  -55.3871 N.am      22 UNK        -0.7600 
    123 O         -3.8514  -16.2870  -53.3868 O.2       22 UNK        -0.5000 
    124 C124       -0.8020  -15.8733  -52.8245 C.3       23 UNK        -0.0398 
    125 S125        0.9339  -16.3541  -52.5294 S.3       23 UNK        -0.2404 
    126 C126        0.8549  -16.8767  -50.7910 C.3       23 UNK        -0.0205 
    127 H127        6.1367   -9.2925  -48.7715 H         1 UNK         0.0600 
    128 H128        5.1212   -8.9675  -50.1788 H         1 UNK         0.0600 
    129 H129        6.6637   -9.8063  -50.3764 H         1 UNK         0.0600 
    130 H130        5.3723  -10.9718  -47.5527 H         1 UNK         0.3000 
    131 H131        4.4287  -12.7881  -46.8285 H         1 UNK         0.0600 
    132 H132        6.0830  -13.8472  -48.5908 H         1 UNK         0.0800 
    133 H133        4.6569  -14.2723  -49.4847 H         1 UNK         0.0800 
    134 H134        6.1302  -16.4661  -49.1614 H         1 UNK         0.0800 
    135 H135        5.9138  -17.5518  -47.8144 H         1 UNK         0.0800 
    136 H136        2.9760  -15.8467  -49.4335 H         1 UNK         0.1150 
    137 H137        1.5635  -19.4474  -51.2316 H         1 UNK         0.1150 
    138 H138        5.3136  -19.4326  -49.1633 H         1 UNK         0.1150 
    139 H139        3.9487  -21.2133  -51.5566 H         1 UNK         0.0800 
    140 H140        4.4460  -21.5062  -49.9072 H         1 UNK         0.0800 
    141 H141        1.1883  -20.5421  -48.6424 H         1 UNK         0.0800 
    142 H142        2.5717  -21.3940  -48.0117 H         1 UNK         0.0800 
    143 H143        1.1231  -23.5232  -47.9685 H         1 UNK         0.0600 
    144 H144        1.2421  -21.4103  -46.0839 H         1 UNK         0.3000 
    145 H145       -0.4149  -23.1194  -43.4088 H         1 UNK         0.0600 
    146 H146        1.9709  -23.8847  -43.4568 H         1 UNK         0.0600 
    147 H147        2.4871  -22.2587  -43.8924 H         1 UNK         0.0600 
    148 H148        1.7349  -22.5591  -42.3276 H         1 UNK         0.0600 
    149 H149        0.7447  -20.5276  -43.5449 H         1 UNK         0.3000 
    150 H150       -2.2230  -18.7899  -44.6427 H         1 UNK         0.0600 
    151 H151       -1.6218  -17.5190  -42.6014 H         1 UNK         0.0600 
    152 H152       -0.5888  -18.8366  -42.0516 H         1 UNK         0.0600 
    153 H153       -2.3290  -19.0692  -42.1677 H         1 UNK         0.0600 
    154 H154        0.3496  -17.7656  -44.1340 H         1 UNK         0.3000 
    155 H155        1.7215  -18.1804  -47.4287 H         1 UNK         0.0600 
    156 H156        0.3439  -16.1234  -47.4509 H         1 UNK         0.0600 
    157 H157        1.9921  -15.7200  -47.0184 H         1 UNK         0.0600 
    158 H158        0.7533  -15.7916  -45.7710 H         1 UNK         0.0600 
    159 H159        2.7711  -17.0988  -44.9980 H         1 UNK         0.3000 
    160 H160        4.3743  -20.1029  -43.8727 H         1 UNK         0.0600 
    161 H161        5.8309  -18.9997  -45.5889 H         1 UNK         0.0600 
    162 H162        6.2890  -18.5415  -43.9562 H         1 UNK         0.0600 
    163 H163        5.3790  -17.4181  -44.9653 H         1 UNK         0.0600 
    164 H164        4.2393  -17.4739  -42.7670 H         1 UNK         0.3000 
    165 H165        1.3287  -17.9238  -40.7734 H         1 UNK         0.0600 
    166 H166        2.9215  -17.4094  -38.9527 H         1 UNK         0.0600 
    167 H167        3.1499  -19.0641  -39.4943 H         1 UNK         0.0600 
    168 H168        4.2900  -17.8182  -39.9882 H         1 UNK         0.0600 
    169 H169        3.1274  -15.7692  -40.8505 H         1 UNK         0.3000 
    170 H170        2.4304  -13.7952  -41.6631 H         1 UNK         0.0600 
    171 H171        3.2342  -12.9587  -43.8988 H         1 UNK         0.0600 
    172 H172        4.0338  -14.4524  -43.4323 H         1 UNK         0.0600 
    173 H173        2.7565  -14.4843  -44.6386 H         1 UNK         0.0600 
    174 H174        0.6586  -13.3349  -43.9172 H         1 UNK         0.3000 
    175 H175       -2.3268  -13.0534  -42.0862 H         1 UNK         0.0600 
    176 H176       -0.6373  -10.5924  -42.7907 H         1 UNK         0.0600 
    177 H177       -2.3911  -10.6226  -42.5990 H         1 UNK         0.0600 
    178 H178       -1.3507  -10.9256  -41.2171 H         1 UNK         0.0600 
    179 H179       -1.4198  -11.9975  -44.6296 H         1 UNK         0.3000 
    180 H180       -1.5356  -14.9036  -46.4707 H         1 UNK         0.0600 
    181 H181       -4.0247  -14.7409  -46.2963 H         1 UNK         0.0600 
    182 H182       -3.4384  -14.0853  -47.8147 H         1 UNK         0.0600 
    183 H183       -3.9302  -12.9976  -46.5149 H         1 UNK         0.0600 
    184 H184       -1.7175  -12.3780  -47.5639 H         1 UNK         0.3000 
    185 H185        0.3006  -11.6311  -48.5552 H         1 UNK         0.0600 
    186 H186        0.7313   -9.9792  -45.9962 H         1 UNK         0.0600 
    187 H187        0.7869   -9.3478  -47.6421 H         1 UNK         0.0600 
    188 H188       -0.7210   -9.9652  -46.9892 H         1 UNK         0.0600 
    189 H189        2.6876  -11.0211  -47.0321 H         1 UNK         0.3000 
    190 H190       -1.1370  -20.7801  -47.3437 H         1 UNK         0.3000 
    191 H191       -3.0383  -21.4554  -49.3227 H         1 UNK         0.0600 
    192 H192       -3.4077  -19.9656  -46.6717 H         1 UNK         0.0600 
    193 H193       -4.5587  -19.9723  -48.0045 H         1 UNK         0.0600 
    194 H194       -2.9751  -19.2442  -48.2206 H         1 UNK         0.0600 
    195 H195       -2.7535  -22.5252  -45.9126 H         1 UNK         0.3000 
    196 H196       -5.1243  -24.0997  -45.8479 H         1 UNK         0.0600 
    197 H197       -4.0754  -25.1216  -43.8298 H         1 UNK         0.0600 
    198 H198       -3.9405  -23.3701  -43.7994 H         1 UNK         0.0600 
    199 H199       -2.5414  -24.3550  -44.2195 H         1 UNK         0.0600 
    200 H200       -1.7612  -24.9143  -46.8205 H         1 UNK         0.3000 
    201 H201       -2.2322  -27.6761  -47.3720 H         1 UNK         0.0600 
    202 H202        0.0402  -26.7013  -47.0938 H         1 UNK         0.0600 
    203 H203       -0.1543  -25.7743  -48.5788 H         1 UNK         0.0600 
    204 H204       -0.1060  -27.5296  -48.6368 H         1 UNK         0.0600 
    205 H205       -2.7781  -24.7475  -49.2679 H         1 UNK         0.3000 
    206 H206       -3.7380  -26.1493  -51.6564 H         1 UNK         0.0600 
    207 H207       -4.1320  -23.8548  -52.4769 H         1 UNK         0.0600 
    208 H208       -3.8131  -23.1867  -50.8833 H         1 UNK         0.0600 
    209 H209       -2.5219  -23.9646  -51.7914 H         1 UNK         0.0600 
    210 H210       -5.0323  -26.1982  -48.7586 H         1 UNK         0.3000 
    211 H211       -6.9675  -26.6078  -47.8234 H         1 UNK         0.0600 
    212 H212       -8.0860  -26.9760  -50.6528 H         1 UNK         0.0600 
    213 H213       -8.7533  -27.6410  -49.1687 H         1 UNK         0.0600 
    214 H214       -7.1965  -28.2025  -49.7506 H         1 UNK         0.0600 
    215 H215       -6.3956  -23.7627  -48.8322 H         1 UNK         0.3000 
    216 H216       -7.2253  -21.7487  -49.0513 H         1 UNK         0.0600 
    217 H217       -9.1191  -21.0249  -47.6613 H         1 UNK         0.0600 
    218 H218       -8.1307  -22.1537  -46.7502 H         1 UNK         0.0600 
    219 H219       -9.6618  -22.6825  -47.4476 H         1 UNK         0.0600 
    220 H220       -8.1369  -24.0099  -50.9665 H         1 UNK         0.3000 
    221 H221      -10.5933  -22.9200  -52.1734 H         1 UNK         0.0600 
    222 H222       -8.8253  -25.3282  -52.8843 H         1 UNK         0.0600 
    223 H223      -10.3417  -25.3676  -51.9928 H         1 UNK         0.0600 
    224 H224      -10.3330  -24.8992  -53.6863 H         1 UNK         0.0600 
    225 H225       -7.2712  -23.7353  -53.2943 H         1 UNK         0.3000 
    226 H226       -7.3356  -21.6571  -55.3916 H         1 UNK         0.0600 
    227 H227       -6.2386  -23.8064  -55.8945 H         1 UNK         0.0600 
    228 H228       -5.0417  -22.5216  -55.8828 H         1 UNK         0.0600 
    229 H229       -5.1557  -23.6276  -54.5191 H         1 UNK         0.0600 
    230 H230       -6.1845  -22.1472  -52.1361 H         1 UNK         0.3000 
    231 H231       -5.2606  -20.9324  -50.5521 H         1 UNK         0.0600 
    232 H232       -6.1304  -18.4681  -52.1424 H         1 UNK         0.0600 
    233 H233       -7.1736  -19.4026  -51.0692 H         1 UNK         0.0600 
    234 H234       -5.7905  -18.5375  -50.4197 H         1 UNK         0.0600 
    235 H235       -3.6751  -21.4026  -53.1599 H         1 UNK         0.3000 
    236 H236       -1.6058  -21.4399  -53.8266 H         1 UNK         0.0600 
    237 H237       -0.7886  -20.1698  -51.1659 H         1 UNK         0.0600 
    238 H238       -0.9912  -21.8932  -51.4716 H         1 UNK         0.0600 
    239 H239        0.2633  -20.9990  -52.3101 H         1 UNK         0.0600 
    240 H240       -2.2032  -18.2386  -52.3559 H         1 UNK         0.3000 
    241 H241       -0.9221  -16.8951  -54.7085 H         1 UNK         0.0600 
    242 H242       -3.9666  -15.3604  -55.6423 H         1 UNK         0.3800 
    243 H243       -2.3132  -15.7136  -56.0553 H         1 UNK         0.3800 
    244 H244       -0.7881  -14.8622  -53.2355 H         1 UNK         0.0800 
    245 H245       -1.3402  -15.8059  -51.8773 H         1 UNK         0.0800 
    246 H246        0.0091  -17.5521  -50.6495 H         1 UNK         0.0800 
    247 H247        0.6679  -16.0063  -50.1594 H         1 UNK         0.0800 
@<TRIPOS>BOND
     1    1    2 1    
     2    1  127 1    
     3    1  128 1    
     4    1  129 1    
     5    2    3 2    
     6    2    4 am   BACKBONE|DICT|INTERRES
     7    4    5 1    
     8    4  130 1    
     9    5    6 1    
    10    5   65 1    
    11    5  131 1    
    12    6    7 1    
    13    6  132 1    
    14    6  133 1    
    15    7    8 1    
    16    8    9 1    
    17    8  134 1    
    18    8  135 1    
    19    9   10 ar   
    20    9   14 ar   
    21   10   11 ar   
    22   10  136 1    
    23   11   12 ar   
    24   11  126 1    
    25   12   13 ar   
    26   12  137 1    
    27   13   14 ar   
    28   13   15 1    
    29   14  138 1    
    30   15   16 1    
    31   15  139 1    
    32   15  140 1    
    33   16   17 1    
    34   17   18 1    
    35   17  141 1    
    36   17  142 1    
    37   18   19 1    
    38   18   67 1    
    39   18  143 1    
    40   19   20 am   BACKBONE|DICT|INTERRES
    41   19  144 1    
    42   20   21 2    
    43   20   22 1    
    44   22   23 1    
    45   22   24 1    
    46   22  145 1    
    47   23  146 1    
    48   23  147 1    
    49   23  148 1    
    50   24   25 am   BACKBONE|DICT|INTERRES
    51   24  149 1    
    52   25   26 2    
    53   25   27 1    
    54   27   28 1    
    55   27   29 1    
    56   27  150 1    
    57   28  151 1    
    58   28  152 1    
    59   28  153 1    
    60   29   30 am   BACKBONE|DICT|INTERRES
    61   29  154 1    
    62   30   31 2    
    63   30   32 1    
    64   32   33 1    
    65   32   34 1    
    66   32  155 1    
    67   33  156 1    
    68   33  157 1    
    69   33  158 1    
    70   34   35 am   BACKBONE|DICT|INTERRES
    71   34  159 1    
    72   35   36 2    
    73   35   37 1    
    74   37   38 1    
    75   37   39 1    
    76   37  160 1    
    77   38  161 1    
    78   38  162 1    
    79   38  163 1    
    80   39   40 am   BACKBONE|DICT|INTERRES
    81   39  164 1    
    82   40   41 2    
    83   40   42 1    
    84   42   43 1    
    85   42   44 1    
    86   42  165 1    
    87   43  166 1    
    88   43  167 1    
    89   43  168 1    
    90   44   45 am   BACKBONE|DICT|INTERRES
    91   44  169 1    
    92   45   46 2    
    93   45   47 1    
    94   47   48 1    
    95   47   49 1    
    96   47  170 1    
    97   48  171 1    
    98   48  172 1    
    99   48  173 1    
   100   49   50 am   BACKBONE|DICT|INTERRES
   101   49  174 1    
   102   50   51 2    
   103   50   52 1    
   104   52   53 1    
   105   52   54 1    
   106   52  175 1    
   107   53  176 1    
   108   53  177 1    
   109   53  178 1    
   110   54   55 am   BACKBONE|DICT|INTERRES
   111   54  179 1    
   112   55   56 2    
   113   55   57 1    
   114   57   58 1    
   115   57   59 1    
   116   57  180 1    
   117   58  181 1    
   118   58  182 1    
   119   58  183 1    
   120   59   60 am   BACKBONE|DICT|INTERRES
   121   59  184 1    
   122   60   61 2    
   123   60   62 1    
   124   62   63 1    
   125   62   64 1    
   126   62  185 1    
   127   63  186 1    
   128   63  187 1    
   129   63  188 1    
   130   64   65 am   BACKBONE|DICT|INTERRES
   131   64  189 1    
   132   65   66 2    
   133   67   68 2    
   134   67   69 am   BACKBONE|DICT|INTERRES
   135   69   70 1    
   136   69  190 1    
   137   70   71 1    
   138   70   72 1    
   139   70  191 1    
   140   71  192 1    
   141   71  193 1    
   142   71  194 1    
   143   72   73 2    
   144   72   74 am   BACKBONE|DICT|INTERRES
   145   74   75 1    
   146   74  195 1    
   147   75   76 1    
   148   75   77 1    
   149   75  196 1    
   150   76  197 1    
   151   76  198 1    
   152   76  199 1    
   153   77   78 2    
   154   77   79 am   BACKBONE|DICT|INTERRES
   155   79   80 1    
   156   79  200 1    
   157   80   81 1    
   158   80   82 1    
   159   80  201 1    
   160   81  202 1    
   161   81  203 1    
   162   81  204 1    
   163   82   83 2    
   164   82   84 am   BACKBONE|DICT|INTERRES
   165   84   85 1    
   166   84  205 1    
   167   85   86 1    
   168   85   87 1    
   169   85  206 1    
   170   86  207 1    
   171   86  208 1    
   172   86  209 1    
   173   87   88 2    
   174   87   89 am   BACKBONE|DICT|INTERRES
   175   89   90 1    
   176   89  210 1    
   177   90   91 1    
   178   90   92 1    
   179   90  211 1    
   180   91  212 1    
   181   91  213 1    
   182   91  214 1    
   183   92   93 2    
   184   92   94 am   BACKBONE|DICT|INTERRES
   185   94   95 1    
   186   94  215 1    
   187   95   96 1    
   188   95   97 1    
   189   95  216 1    
   190   96  217 1    
   191   96  218 1    
   192   96  219 1    
   193   97   98 2    
   194   97   99 am   BACKBONE|DICT|INTERRES
   195   99  100 1    
   196   99  220 1    
   197  100  101 1    
   198  100  102 1    
   199  100  221 1    
   200  101  222 1    
   201  101  223 1    
   202  101  224 1    
   203  102  103 2    
   204  102  104 am   BACKBONE|DICT|INTERRES
   205  104  105 1    
   206  104  225 1    
   207  105  106 1    
   208  105  107 1    
   209  105  226 1    
   210  106  227 1    
   211  106  228 1    
   212  106  229 1    
   213  107  108 2    
   214  107  109 am   BACKBONE|DICT|INTERRES
   215  109  110 1    
   216  109  230 1    
   217  110  111 1    
   218  110  112 1    
   219  110  231 1    
   220  111  232 1    
   221  111  233 1    
   222  111  234 1    
   223  112  113 2    
   224  112  114 am   BACKBONE|DICT|INTERRES
   225  114  115 1    
   226  114  235 1    
   227  115  116 1    
   228  115  117 1    
   229  115  236 1    
   230  116  237 1    
   231  116  238 1    
   232  116  239 1    
   233  117  118 2    
   234  117  119 am   BACKBONE|DICT|INTERRES
   235  119  120 1    
   236  119  240 1    
   237  120  121 1    
   238  120  124 1    
   239  120  241 1    
   240  121  122 am   BACKBONE|DICT|INTERRES
   241  121  123 2    
   242  122  242 1    
   243  122  243 1    
   244  124  125 1    
   245  124  244 1    
   246  124  245 1    
   247  125  126 1    
   248  126  246 1    
   249  126  247 1    
@<TRIPOS>SUBSTRUCTURE
     1 UNK         1 GROUP             0       ****    0 ROOT    
