@<TRIPOS>MOLECULE
3R540
247   249    1
SMALL
USER_CHARGES


@<TRIPOS>ATOM
      1 CA         -3.0064  -13.4371  -49.7500 C.3       0 UNK        -0.1800 
      2 C          -1.8364  -13.8619  -48.8745 C.2       0 UNK         0.5000 
      3 O          -1.4823  -13.1433  -47.9392 O.2       0 UNK        -0.5000 
      4 N          -1.2411  -15.0240  -49.1719 N.am      1 UNK        -0.5000 
      5 CA         -0.1288  -15.6832  -48.4678 C.3       1 UNK         0.1400 
      6 C6         -0.4150  -15.9991  -46.9760 C.3       23 UNK        -0.0398 
      7 S7         -1.7436  -17.2273  -46.8055 S.3       23 UNK        -0.2404 
      8 C8         -3.0911  -16.2256  -46.1115 C.3       23 UNK        -0.0205 
      9 C9         -4.3913  -17.0053  -46.1643 C.ar      23 UNK        -0.0193 
     10 C10        -5.3117  -16.7576  -47.1836 C.ar      23 UNK        -0.1150 
     11 C11        -6.4776  -17.5184  -47.2866 C.ar      23 UNK        -0.0193 
     12 C12        -6.7268  -18.5267  -46.3499 C.ar      23 UNK        -0.1150 
     13 C13        -5.8210  -18.7748  -45.3116 C.ar      23 UNK        -0.0193 
     14 C14        -4.6592  -17.9998  -45.2204 C.ar      23 UNK        -0.1150 
     15 C15        -6.1306  -19.8542  -44.2773 C.3       23 UNK        -0.0205 
     16 S16        -4.6977  -20.8871  -43.8120 S.3       23 UNK        -0.2404 
     17 C17        -4.3427  -21.7913  -45.3541 C.3       23 UNK        -0.0398 
     18 CA         -2.9404  -21.4627  -45.9472 C.3       11 UNK         0.1400 
     19 N          -1.8331  -21.7439  -45.0261 N.am      11 UNK        -0.5000 
     20 C          -1.4333  -22.9491  -44.5968 C.2       10 UNK         0.5000 
     21 O          -1.9507  -24.0094  -44.9532 O.2       10 UNK        -0.5000 
     22 CA         -0.2542  -22.9836  -43.6065 C.3       10 UNK         0.1400 
     23 CB          1.0862  -22.9754  -44.3526 C.3       10 UNK        -0.1800 
     24 N          -0.2633  -21.8748  -42.6525 N.am      10 UNK        -0.5000 
     25 C          -1.0936  -21.7685  -41.6067 C.2       9 UNK         0.5000 
     26 O          -1.9563  -22.6025  -41.3299 O.2       9 UNK        -0.5000 
     27 CA         -0.9136  -20.5344  -40.7022 C.3       9 UNK         0.1400 
     28 CB          0.1512  -20.8058  -39.6285 C.3       9 UNK        -0.1800 
     29 N          -0.5373  -19.3423  -41.4608 N.am      9 UNK        -0.5000 
     30 C          -1.3963  -18.6017  -42.1728 C.2       8 UNK         0.5000 
     31 O          -2.6134  -18.7750  -42.1614 O.2       8 UNK        -0.5000 
     32 CA         -0.8084  -17.4846  -43.0564 C.3       8 UNK         0.1400 
     33 CB         -0.8230  -16.1384  -42.3210 C.3       8 UNK        -0.1800 
     34 N           0.5424  -17.7635  -43.5494 N.am      8 UNK        -0.5000 
     35 C           0.8413  -18.7636  -44.3916 C.2       7 UNK         0.5000 
     36 O           0.0121  -19.5573  -44.8335 O.2       7 UNK        -0.5000 
     37 CA          2.3218  -18.9431  -44.7612 C.3       7 UNK         0.1400 
     38 CB          2.7198  -18.0371  -45.9307 C.3       7 UNK        -0.1800 
     39 N           3.2075  -18.7052  -43.6241 N.am      7 UNK        -0.5000 
     40 C           3.2994  -19.5339  -42.5746 C.2       6 UNK         0.5000 
     41 O           2.6688  -20.5872  -42.4765 O.2       6 UNK        -0.5000 
     42 CA          4.2052  -19.0781  -41.4181 C.3       6 UNK         0.1400 
     43 CB          5.6886  -19.2290  -41.7888 C.3       6 UNK        -0.1800 
     44 N           3.9409  -17.6957  -41.0205 N.am      6 UNK        -0.5000 
     45 C           2.7752  -17.2514  -40.5293 C.2       5 UNK         0.5000 
     46 O           1.8011  -17.9728  -40.3222 O.2       5 UNK        -0.5000 
     47 CA          2.6665  -15.7433  -40.2421 C.3       5 UNK         0.1400 
     48 CB          3.0097  -15.4534  -38.7734 C.3       5 UNK        -0.1800 
     49 N           3.5103  -14.9138  -41.1031 N.am      5 UNK        -0.5000 
     50 C           3.4188  -14.8151  -42.4368 C.2       4 UNK         0.5000 
     51 O           2.5947  -15.4396  -43.1122 O.2       4 UNK        -0.5000 
     52 CA          4.4042  -13.8239  -43.0967 C.3       4 UNK         0.1400 
     53 CB          5.7983  -13.8316  -42.4283 C.3       4 UNK        -0.1800 
     54 N           4.5542  -13.9853  -44.5445 N.am      4 UNK        -0.5000 
     55 C           4.9971  -15.0546  -45.2172 C.2       3 UNK         0.5000 
     56 O           5.2500  -16.1426  -44.6937 O.2       3 UNK        -0.5000 
     57 CA          5.2231  -14.8385  -46.7312 C.3       3 UNK         0.1400 
     58 CB          5.7198  -16.0970  -47.4643 C.3       3 UNK        -0.1800 
     59 N           4.0453  -14.3208  -47.4320 N.am      3 UNK        -0.5000 
     60 C           3.6003  -13.0593  -47.4269 C.2       2 UNK         0.5000 
     61 O           4.1083  -12.1698  -46.7425 O.2       2 UNK        -0.5000 
     62 CA          2.3913  -12.7203  -48.3248 C.3       2 UNK         0.1400 
     63 CB          2.8397  -12.4788  -49.7782 C.3       2 UNK        -0.1800 
     64 N           1.2720  -13.6709  -48.2703 N.am      2 UNK        -0.5000 
     65 C           1.2221  -14.9591  -48.6335 C.2       1 UNK         0.5000 
     66 O           2.1851  -15.5847  -49.0782 O.2       1 UNK        -0.5000 
     67 C          -2.6799  -22.1422  -47.3124 C.2       11 UNK         0.5000 
     68 O          -1.7380  -21.7604  -48.0112 O.2       11 UNK        -0.5000 
     69 N          -3.4856  -23.1540  -47.6671 N.am      12 UNK        -0.5000 
     70 CA         -3.3874  -23.9130  -48.9137 C.3       12 UNK         0.1400 
     71 CB         -4.5673  -24.8912  -49.0080 C.3       12 UNK        -0.1800 
     72 C          -2.0533  -24.6578  -49.0873 C.2       12 UNK         0.5000 
     73 O          -1.5859  -24.7920  -50.2178 O.2       12 UNK        -0.5000 
     74 N          -1.4294  -25.0699  -47.9740 N.am      13 UNK        -0.5000 
     75 CA         -0.1122  -25.7115  -47.9604 C.3       13 UNK         0.1400 
     76 CB          0.1221  -26.3652  -46.5902 C.3       13 UNK        -0.1800 
     77 C           1.0436  -24.7596  -48.3381 C.2       13 UNK         0.5000 
     78 O           2.1105  -25.2403  -48.7211 O.2       13 UNK        -0.5000 
     79 N           0.8094  -23.4418  -48.2579 N.am      14 UNK        -0.5000 
     80 CA          1.7206  -22.3948  -48.7246 C.3       14 UNK         0.1400 
     81 CB          1.8615  -21.3308  -47.6242 C.3       14 UNK        -0.1800 
     82 C           1.2544  -21.7652  -50.0531 C.2       14 UNK         0.5000 
     83 O           1.8844  -20.8100  -50.5081 O.2       14 UNK        -0.5000 
     84 N           0.1764  -22.3003  -50.6524 N.am      15 UNK        -0.5000 
     85 CA         -0.4794  -21.8333  -51.8784 C.3       15 UNK         0.1400 
     86 CB          0.4277  -22.0689  -53.1040 C.3       15 UNK        -0.1800 
     87 C          -0.9665  -20.3749  -51.7504 C.2       15 UNK         0.5000 
     88 O          -0.5829  -19.5199  -52.5506 O.2       15 UNK        -0.5000 
     89 N          -1.7915  -20.1311  -50.7193 N.am      16 UNK        -0.5000 
     90 CA         -2.3037  -18.8311  -50.2649 C.3       16 UNK         0.1400 
     91 CB         -3.4576  -19.0709  -49.2830 C.3       16 UNK        -0.1800 
     92 C          -2.7647  -17.8463  -51.3558 C.2       16 UNK         0.5000 
     93 O          -2.4531  -16.6579  -51.2660 O.2       16 UNK        -0.5000 
     94 N          -3.4777  -18.3678  -52.3593 N.am      17 UNK        -0.5000 
     95 CA         -3.9659  -17.6363  -53.5261 C.3       17 UNK         0.1400 
     96 CB         -5.4959  -17.4956  -53.4362 C.3       17 UNK        -0.1800 
     97 C          -3.5029  -18.3425  -54.8119 C.2       17 UNK         0.5000 
     98 O          -4.2961  -18.5327  -55.7356 O.2       17 UNK        -0.5000 
     99 N          -2.2285  -18.7593  -54.8316 N.am      18 UNK        -0.5000 
    100 CA        -1.5517  -19.4720  -55.9171 C.3       18 UNK         0.1400 
    101 CB        -1.3413  -18.5362  -57.1294 C.3       18 UNK        -0.1800 
    102 C         -2.2692  -20.7967  -56.2475 C.2       18 UNK         0.5000 
    103 O         -2.4583  -21.6114  -55.3433 O.2       18 UNK        -0.5000 
    104 N         -2.6771  -20.9810  -57.5101 N.am      19 UNK        -0.5000 
    105 CA        -3.3717  -22.1688  -58.0109 C.3       19 UNK         0.1400 
    106 CB        -3.4704  -22.0798  -59.5415 C.3       19 UNK        -0.1800 
    107 C         -4.7664  -22.3957  -57.3937 C.2       19 UNK         0.5000 
    108 O         -5.2061  -23.5440  -57.3216 O.2       19 UNK        -0.5000 
    109 N         -5.4351  -21.3181  -56.9541 N.am      20 UNK        -0.5000 
    110 CA        -6.7172  -21.3936  -56.2476 C.3       20 UNK         0.1400 
    111 CB        -7.4232  -20.0307  -56.3109 C.3       20 UNK        -0.1800 
    112 C         -6.5428  -21.8458  -54.7863 C.2       20 UNK         0.5000 
    113 O         -7.4296  -22.5057  -54.2421 O.2       20 UNK        -0.5000 
    114 N         -5.4021  -21.4730  -54.1836 N.am      21 UNK        -0.5000 
    115 CA        -4.9005  -21.8682  -52.8603 C.3       21 UNK         0.1400 
    116 CB        -4.4909  -23.3545  -52.8895 C.3       21 UNK        -0.1800 
    117 C         -5.8356  -21.5541  -51.6690 C.2       21 UNK         0.5000 
    118 O         -5.6180  -22.0871  -50.5829 O.2       21 UNK        -0.5000 
    119 N         -6.8572  -20.7140  -51.8846 N.am      22 UNK        -0.5000 
    120 CA        -7.9887  -20.4840  -50.9669 C.3       22 UNK         0.1400 
    121 C         -8.8838  -21.7460  -50.7493 C.2       22 UNK         0.5000 
    122 N         -8.9032  -22.7036  -51.6708 N.am      22 UNK        -0.7600 
    123 O         -9.5969  -21.8517  -49.7549 O.2       22 UNK        -0.5000 
    124 C124       -7.5767  -19.7790  -49.6424 C.3       23 UNK        -0.0398 
    125 S125       -6.9603  -18.0898  -49.9483 S.3       23 UNK        -0.2404 
    126 C126       -7.4559  -17.2408  -48.4167 C.3       23 UNK        -0.0205 
    127 H127       -3.1837  -14.1414  -50.5627 H         1 UNK         0.0600 
    128 H128       -2.8126  -12.4572  -50.1862 H         1 UNK         0.0600 
    129 H129       -3.9157  -13.3727  -49.1524 H         1 UNK         0.0600 
    130 H130       -1.6018  -15.5473  -49.9667 H         1 UNK         0.3000 
    131 H131       -0.0027  -16.6389  -48.9789 H         1 UNK         0.0600 
    132 H132        0.4663  -16.4195  -46.4941 H         1 UNK         0.0800 
    133 H133       -0.6567  -15.0991  -46.4097 H         1 UNK         0.0800 
    134 H134       -2.8616  -15.9439  -45.0836 H         1 UNK         0.0800 
    135 H135       -3.1860  -15.2958  -46.6730 H         1 UNK         0.0800 
    136 H136       -5.1064  -15.9922  -47.9191 H         1 UNK         0.1150 
    137 H137       -7.6307  -19.1142  -46.4277 H         1 UNK         0.1150 
    138 H138       -3.9490  -18.1844  -44.4269 H         1 UNK         0.1150 
    139 H139       -6.5067  -19.3648  -43.3783 H         1 UNK         0.0800 
    140 H140       -6.9311  -20.5073  -44.6282 H         1 UNK         0.0800 
    141 H141       -5.1240  -21.5598  -46.0805 H         1 UNK         0.0800 
    142 H142       -4.4341  -22.8549  -45.1291 H         1 UNK         0.0800 
    143 H143       -2.9051  -20.3882  -46.1327 H         1 UNK         0.0600 
    144 H144       -1.2793  -20.9341  -44.7569 H         1 UNK         0.3000 
    145 H145       -0.3236  -23.9197  -43.0485 H         1 UNK         0.0600 
    146 H146        1.9166  -23.1629  -43.6717 H         1 UNK         0.0600 
    147 H147        1.2580  -22.0115  -44.8258 H         1 UNK         0.0600 
    148 H148        1.1240  -23.7354  -45.1317 H         1 UNK         0.0600 
    149 H149        0.4329  -21.1542  -42.7918 H         1 UNK         0.3000 
    150 H150       -1.8634  -20.3477  -40.1964 H         1 UNK         0.0600 
    151 H151       -0.1020  -21.6883  -39.0397 H         1 UNK         0.0600 
    152 H152        0.2356  -19.9666  -38.9378 H         1 UNK         0.0600 
    153 H153        1.1344  -20.9742  -40.0700 H         1 UNK         0.0600 
    154 H154        0.4394  -19.0712  -41.4344 H         1 UNK         0.3000 
    155 H155       -1.4577  -17.3993  -43.9263 H         1 UNK         0.0600 
    156 H156       -1.8434  -15.8455  -42.0711 H         1 UNK         0.0600 
    157 H157       -0.3953  -15.3441  -42.9333 H         1 UNK         0.0600 
    158 H158       -0.2628  -16.1903  -41.3891 H         1 UNK         0.0600 
    159 H159        1.2817  -17.1378  -43.2493 H         1 UNK         0.3000 
    160 H160        2.4595  -19.9761  -45.0829 H         1 UNK         0.0600 
    161 H161        2.6622  -16.9816  -45.6635 H         1 UNK         0.0600 
    162 H162        2.0742  -18.2013  -46.7944 H         1 UNK         0.0600 
    163 H163        3.7401  -18.2528  -46.2434 H         1 UNK         0.0600 
    164 H164        3.7351  -17.8413  -43.6266 H         1 UNK         0.3000 
    165 H165        3.9990  -19.7208  -40.5596 H         1 UNK         0.0600 
    166 H166        6.3323  -18.9902  -40.9421 H         1 UNK         0.0600 
    167 H167        5.9134  -20.2535  -42.0883 H         1 UNK         0.0600 
    168 H168        5.9674  -18.5756  -42.6169 H         1 UNK         0.0600 
    169 H169        4.6825  -17.0280  -41.1696 H         1 UNK         0.3000 
    170 H170        1.6319  -15.4447  -40.4111 H         1 UNK         0.0600 
    171 H171        4.0473  -15.7006  -38.5455 H         1 UNK         0.0600 
    172 H172        2.8527  -14.4022  -38.5307 H         1 UNK         0.0600 
    173 H173        2.3782  -16.0375  -38.1024 H         1 UNK         0.0600 
    174 H174        4.2106  -14.3595  -40.6322 H         1 UNK         0.3000 
    175 H175        3.9725  -12.8324  -42.9544 H         1 UNK         0.0600 
    176 H176        6.2394  -14.8292  -42.4248 H         1 UNK         0.0600 
    177 H177        6.4871  -13.1680  -42.9515 H         1 UNK         0.0600 
    178 H178        5.7549  -13.4837  -41.3959 H         1 UNK         0.0600 
    179 H179        4.3455  -13.1615  -45.1010 H         1 UNK         0.3000 
    180 H180        6.0174  -14.0935  -46.8112 H         1 UNK         0.0600 
    181 H181        6.0358  -15.8556  -48.4792 H         1 UNK         0.0600 
    182 H182        4.9430  -16.8560  -47.5357 H         1 UNK         0.0600 
    183 H183        6.5776  -16.5418  -46.9584 H         1 UNK         0.0600 
    184 H184        3.5382  -14.9800  -48.0181 H         1 UNK         0.3000 
    185 H185        1.9863  -11.7784  -47.9514 H         1 UNK         0.0600 
    186 H186        2.0049  -12.1523  -50.3984 H         1 UNK         0.0600 
    187 H187        3.6032  -11.7013  -49.8258 H         1 UNK         0.0600 
    188 H188        3.2619  -13.3767  -50.2302 H         1 UNK         0.0600 
    189 H189        0.3930  -13.2764  -47.9420 H         1 UNK         0.3000 
    190 H190       -4.2142  -23.4433  -47.0323 H         1 UNK         0.3000 
    191 H191       -3.4587  -23.1971  -49.7326 H         1 UNK         0.0600 
    192 H192       -5.5208  -24.3638  -48.9704 H         1 UNK         0.0600 
    193 H193       -4.5528  -25.6203  -48.1969 H         1 UNK         0.0600 
    194 H194       -4.5421  -25.4428  -49.9487 H         1 UNK         0.0600 
    195 H195       -1.8560  -24.8843  -47.0739 H         1 UNK         0.3000 
    196 H196       -0.1202  -26.5075  -48.7082 H         1 UNK         0.0600 
    197 H197       -0.6191  -27.1405  -46.3954 H         1 UNK         0.0600 
    198 H198        0.0642  -25.6423  -45.7787 H         1 UNK         0.0600 
    199 H199        1.1042  -26.8373  -46.5419 H         1 UNK         0.0600 
    200 H200       -0.1036  -23.1197  -47.9570 H         1 UNK         0.3000 
    201 H201        2.7133  -22.8077  -48.9136 H         1 UNK         0.0600 
    202 H202        2.3762  -21.7477  -46.7607 H         1 UNK         0.0600 
    203 H203        0.8926  -20.9491  -47.2987 H         1 UNK         0.0600 
    204 H204        2.4552  -20.4803  -47.9611 H         1 UNK         0.0600 
    205 H205       -0.2526  -23.1080  -50.2185 H         1 UNK         0.3000 
    206 H206       -1.3711  -22.4484  -52.0094 H         1 UNK         0.0600 
    207 H207        1.3336  -21.4635  -53.0657 H         1 UNK         0.0600 
    208 H208        0.7259  -23.1147  -53.1766 H         1 UNK         0.0600 
    209 H209       -0.0927  -21.8166  -54.0275 H         1 UNK         0.0600 
    210 H210       -1.9561  -20.8928  -50.0729 H         1 UNK         0.3000 
    211 H211       -1.4910  -18.3475  -49.7222 H         1 UNK         0.0600 
    212 H212       -4.2077  -19.7506  -49.6873 H         1 UNK         0.0600 
    213 H213       -3.9614  -18.1363  -49.0427 H         1 UNK         0.0600 
    214 H214       -3.0978  -19.4807  -48.3429 H         1 UNK         0.0600 
    215 H215       -3.6409  -19.3614  -52.3542 H         1 UNK         0.3000 
    216 H216       -3.5351  -16.6336  -53.5565 H         1 UNK         0.0600 
    217 H217       -5.8901  -16.9323  -54.2828 H         1 UNK         0.0600 
    218 H218       -5.7862  -16.9617  -52.5316 H         1 UNK         0.0600 
    219 H219       -5.9905  -18.4660  -53.4268 H         1 UNK         0.0600 
    220 H220       -1.6767  -18.6582  -53.9845 H         1 UNK         0.3000 
    221 H221       -0.5668  -19.7472  -55.5372 H         1 UNK         0.0600 
    222 H222       -2.2840  -18.2143  -57.5733 H         1 UNK         0.0600 
    223 H223       -0.7964  -17.6394  -56.8344 H         1 UNK         0.0600 
    224 H224       -0.7519  -19.0230  -57.9074 H         1 UNK         0.0600 
    225 H225       -2.5017  -20.2473  -58.1811 H         1 UNK         0.3000 
    226 H226       -2.7614  -23.0387  -57.7590 H         1 UNK         0.0600 
    227 H227       -2.4827  -22.0124  -59.9981 H         1 UNK         0.0600 
    228 H228       -3.9574  -22.9644  -59.9543 H         1 UNK         0.0600 
    229 H229       -4.0477  -21.2099  -59.8573 H         1 UNK         0.0600 
    230 H230       -5.0048  -20.4050  -57.0300 H         1 UNK         0.3000 
    231 H231       -7.3537  -22.1255  -56.7496 H         1 UNK         0.0600 
    232 H232       -8.4023  -20.0774  -55.8324 H         1 UNK         0.0600 
    233 H233       -7.5812  -19.7165  -57.3426 H         1 UNK         0.0600 
    234 H234       -6.8512  -19.2513  -55.8076 H         1 UNK         0.0600 
    235 H235       -4.7431  -20.9609  -54.7542 H         1 UNK         0.3000 
    236 H236       -3.9942  -21.2858  -52.6953 H         1 UNK         0.0600 
    237 H237       -5.3584  -24.0085  -52.9841 H         1 UNK         0.0600 
    238 H238       -3.8230  -23.5616  -53.7260 H         1 UNK         0.0600 
    239 H239       -3.9617  -23.6417  -51.9817 H         1 UNK         0.0600 
    240 H240       -6.9680  -20.3373  -52.8131 H         1 UNK         0.3000 
    241 H241       -8.6492  -19.7958  -51.4955 H         1 UNK         0.0600 
    242 H242       -8.3473  -22.6276  -52.5180 H         1 UNK         0.3800 
    243 H243       -9.4902  -23.5105  -51.5324 H         1 UNK         0.3800 
    244 H244       -8.4328  -19.7062  -48.9709 H         1 UNK         0.0800 
    245 H245       -6.8188  -20.3465  -49.1020 H         1 UNK         0.0800 
    246 H246       -8.4701  -17.5249  -48.1326 H         1 UNK         0.0800 
    247 H247       -7.4893  -16.1677  -48.6104 H         1 UNK         0.0800 
@<TRIPOS>BOND
     1    1    2 1    
     2    1  127 1    
     3    1  128 1    
     4    1  129 1    
     5    2    3 2    
     6    2    4 am   BACKBONE|DICT|INTERRES
     7    4    5 1    
     8    4  130 1    
     9    5    6 1    
    10    5   65 1    
    11    5  131 1    
    12    6    7 1    
    13    6  132 1    
    14    6  133 1    
    15    7    8 1    
    16    8    9 1    
    17    8  134 1    
    18    8  135 1    
    19    9   10 ar   
    20    9   14 ar   
    21   10   11 ar   
    22   10  136 1    
    23   11   12 ar   
    24   11  126 1    
    25   12   13 ar   
    26   12  137 1    
    27   13   14 ar   
    28   13   15 1    
    29   14  138 1    
    30   15   16 1    
    31   15  139 1    
    32   15  140 1    
    33   16   17 1    
    34   17   18 1    
    35   17  141 1    
    36   17  142 1    
    37   18   19 1    
    38   18   67 1    
    39   18  143 1    
    40   19   20 am   BACKBONE|DICT|INTERRES
    41   19  144 1    
    42   20   21 2    
    43   20   22 1    
    44   22   23 1    
    45   22   24 1    
    46   22  145 1    
    47   23  146 1    
    48   23  147 1    
    49   23  148 1    
    50   24   25 am   BACKBONE|DICT|INTERRES
    51   24  149 1    
    52   25   26 2    
    53   25   27 1    
    54   27   28 1    
    55   27   29 1    
    56   27  150 1    
    57   28  151 1    
    58   28  152 1    
    59   28  153 1    
    60   29   30 am   BACKBONE|DICT|INTERRES
    61   29  154 1    
    62   30   31 2    
    63   30   32 1    
    64   32   33 1    
    65   32   34 1    
    66   32  155 1    
    67   33  156 1    
    68   33  157 1    
    69   33  158 1    
    70   34   35 am   BACKBONE|DICT|INTERRES
    71   34  159 1    
    72   35   36 2    
    73   35   37 1    
    74   37   38 1    
    75   37   39 1    
    76   37  160 1    
    77   38  161 1    
    78   38  162 1    
    79   38  163 1    
    80   39   40 am   BACKBONE|DICT|INTERRES
    81   39  164 1    
    82   40   41 2    
    83   40   42 1    
    84   42   43 1    
    85   42   44 1    
    86   42  165 1    
    87   43  166 1    
    88   43  167 1    
    89   43  168 1    
    90   44   45 am   BACKBONE|DICT|INTERRES
    91   44  169 1    
    92   45   46 2    
    93   45   47 1    
    94   47   48 1    
    95   47   49 1    
    96   47  170 1    
    97   48  171 1    
    98   48  172 1    
    99   48  173 1    
   100   49   50 am   BACKBONE|DICT|INTERRES
   101   49  174 1    
   102   50   51 2    
   103   50   52 1    
   104   52   53 1    
   105   52   54 1    
   106   52  175 1    
   107   53  176 1    
   108   53  177 1    
   109   53  178 1    
   110   54   55 am   BACKBONE|DICT|INTERRES
   111   54  179 1    
   112   55   56 2    
   113   55   57 1    
   114   57   58 1    
   115   57   59 1    
   116   57  180 1    
   117   58  181 1    
   118   58  182 1    
   119   58  183 1    
   120   59   60 am   BACKBONE|DICT|INTERRES
   121   59  184 1    
   122   60   61 2    
   123   60   62 1    
   124   62   63 1    
   125   62   64 1    
   126   62  185 1    
   127   63  186 1    
   128   63  187 1    
   129   63  188 1    
   130   64   65 am   BACKBONE|DICT|INTERRES
   131   64  189 1    
   132   65   66 2    
   133   67   68 2    
   134   67   69 am   BACKBONE|DICT|INTERRES
   135   69   70 1    
   136   69  190 1    
   137   70   71 1    
   138   70   72 1    
   139   70  191 1    
   140   71  192 1    
   141   71  193 1    
   142   71  194 1    
   143   72   73 2    
   144   72   74 am   BACKBONE|DICT|INTERRES
   145   74   75 1    
   146   74  195 1    
   147   75   76 1    
   148   75   77 1    
   149   75  196 1    
   150   76  197 1    
   151   76  198 1    
   152   76  199 1    
   153   77   78 2    
   154   77   79 am   BACKBONE|DICT|INTERRES
   155   79   80 1    
   156   79  200 1    
   157   80   81 1    
   158   80   82 1    
   159   80  201 1    
   160   81  202 1    
   161   81  203 1    
   162   81  204 1    
   163   82   83 2    
   164   82   84 am   BACKBONE|DICT|INTERRES
   165   84   85 1    
   166   84  205 1    
   167   85   86 1    
   168   85   87 1    
   169   85  206 1    
   170   86  207 1    
   171   86  208 1    
   172   86  209 1    
   173   87   88 2    
   174   87   89 am   BACKBONE|DICT|INTERRES
   175   89   90 1    
   176   89  210 1    
   177   90   91 1    
   178   90   92 1    
   179   90  211 1    
   180   91  212 1    
   181   91  213 1    
   182   91  214 1    
   183   92   93 2    
   184   92   94 am   BACKBONE|DICT|INTERRES
   185   94   95 1    
   186   94  215 1    
   187   95   96 1    
   188   95   97 1    
   189   95  216 1    
   190   96  217 1    
   191   96  218 1    
   192   96  219 1    
   193   97   98 2    
   194   97   99 am   BACKBONE|DICT|INTERRES
   195   99  100 1    
   196   99  220 1    
   197  100  101 1    
   198  100  102 1    
   199  100  221 1    
   200  101  222 1    
   201  101  223 1    
   202  101  224 1    
   203  102  103 2    
   204  102  104 am   BACKBONE|DICT|INTERRES
   205  104  105 1    
   206  104  225 1    
   207  105  106 1    
   208  105  107 1    
   209  105  226 1    
   210  106  227 1    
   211  106  228 1    
   212  106  229 1    
   213  107  108 2    
   214  107  109 am   BACKBONE|DICT|INTERRES
   215  109  110 1    
   216  109  230 1    
   217  110  111 1    
   218  110  112 1    
   219  110  231 1    
   220  111  232 1    
   221  111  233 1    
   222  111  234 1    
   223  112  113 2    
   224  112  114 am   BACKBONE|DICT|INTERRES
   225  114  115 1    
   226  114  235 1    
   227  115  116 1    
   228  115  117 1    
   229  115  236 1    
   230  116  237 1    
   231  116  238 1    
   232  116  239 1    
   233  117  118 2    
   234  117  119 am   BACKBONE|DICT|INTERRES
   235  119  120 1    
   236  119  240 1    
   237  120  121 1    
   238  120  124 1    
   239  120  241 1    
   240  121  122 am   BACKBONE|DICT|INTERRES
   241  121  123 2    
   242  122  242 1    
   243  122  243 1    
   244  124  125 1    
   245  124  244 1    
   246  124  245 1    
   247  125  126 1    
   248  126  246 1    
   249  126  247 1    
@<TRIPOS>SUBSTRUCTURE
     1 UNK         1 GROUP             0       ****    0 ROOT    
