@<TRIPOS>MOLECULE
3R540
247   249    1
SMALL
USER_CHARGES


@<TRIPOS>ATOM
      1 CA         -2.9132  -13.4178  -49.4516 C.3       0 UNK        -0.1800 
      2 C          -1.4320  -13.4333  -49.1052 C.2       0 UNK         0.5000 
      3 O          -0.8302  -12.3747  -48.9201 O.2       0 UNK        -0.5000 
      4 N          -0.8443  -14.6320  -49.0255 N.am      1 UNK        -0.5000 
      5 CA          0.5506  -14.8579  -48.6344 C.3       1 UNK         0.1400 
      6 C6          1.0253  -16.2974  -48.9538 C.3       23 UNK        -0.0398 
      7 S7          0.8737  -16.7381  -50.7167 S.3       23 UNK        -0.2404 
      8 C8         -0.3304  -18.1017  -50.6463 C.3       23 UNK        -0.0205 
      9 C9         -1.7312  -17.6064  -50.3228 C.ar      23 UNK        -0.0193 
     10 C10        -2.5160  -17.0245  -51.3210 C.ar      23 UNK        -0.1150 
     11 C11        -3.8139  -16.5866  -51.0433 C.ar      23 UNK        -0.0193 
     12 C12        -4.3262  -16.7406  -49.7517 C.ar      23 UNK        -0.1150 
     13 C13        -3.5437  -17.3038  -48.7390 C.ar      23 UNK        -0.0193 
     14 C14        -2.2452  -17.7297  -49.0301 C.ar      23 UNK        -0.1150 
     15 C15        -4.0978  -17.4434  -47.3306 C.3       23 UNK        -0.0205 
     16 S16        -4.7609  -19.1166  -47.0519 S.3       23 UNK        -0.2404 
     17 C17        -3.6465  -19.7340  -45.7506 C.3       23 UNK        -0.0398 
     18 CA         -2.3195  -20.3169  -46.3141 C.3       11 UNK         0.1400 
     19 N          -1.1394  -19.7034  -45.7002 N.am      11 UNK        -0.5000 
     20 C           0.1265  -19.8711  -46.1083 C.2       10 UNK         0.5000 
     21 O           0.4400  -20.4744  -47.1332 O.2       10 UNK        -0.5000 
     22 CA          1.2309  -19.3137  -45.1879 C.3       10 UNK         0.1400 
     23 CB          1.5407  -17.8463  -45.5133 C.3       10 UNK        -0.1800 
     24 N           0.8883  -19.4356  -43.7699 N.am      10 UNK        -0.5000 
     25 C           0.7664  -20.6030  -43.1219 C.2       9 UNK         0.5000 
     26 O           0.9854  -21.6963  -43.6401 O.2       9 UNK        -0.5000 
     27 CA          0.2589  -20.5425  -41.6714 C.3       9 UNK         0.1400 
     28 CB          1.4107  -20.2747  -40.6900 C.3       9 UNK        -0.1800 
     29 N          -0.7880  -19.5349  -41.4991 N.am      9 UNK        -0.5000 
     30 C          -2.0165  -19.6217  -42.0304 C.2       8 UNK         0.5000 
     31 O          -2.4087  -20.5794  -42.6975 O.2       8 UNK        -0.5000 
     32 CA         -2.9413  -18.4075  -41.8257 C.3       8 UNK         0.1400 
     33 CB         -3.6181  -18.4682  -40.4485 C.3       8 UNK        -0.1800 
     34 N          -2.2317  -17.1341  -41.9630 N.am      8 UNK        -0.5000 
     35 C          -1.6676  -16.6963  -43.0986 C.2       7 UNK         0.5000 
     36 O          -1.7301  -17.3025  -44.1660 O.2       7 UNK        -0.5000 
     37 CA         -0.8388  -15.4021  -43.0062 C.3       7 UNK         0.1400 
     38 CB         -1.7227  -14.1666  -43.2265 C.3       7 UNK        -0.1800 
     39 N          -0.1226  -15.2779  -41.7332 N.am      7 UNK        -0.5000 
     40 C           0.8482  -16.1116  -41.3407 C.2       6 UNK         0.5000 
     41 O           1.2600  -17.0517  -42.0276 O.2       6 UNK        -0.5000 
     42 CA          1.4075  -15.8983  -39.9290 C.3       6 UNK         0.1400 
     43 CB          0.4654  -16.5002  -38.8712 C.3       6 UNK        -0.1800 
     44 N           2.7084  -16.5472  -39.8517 N.am      6 UNK        -0.5000 
     45 C           3.7151  -16.2034  -39.0420 C.2       5 UNK         0.5000 
     46 O           3.6317  -15.3192  -38.1884 O.2       5 UNK        -0.5000 
     47 CA          5.0461  -16.9688  -39.2117 C.3       5 UNK         0.1400 
     48 CB          5.2058  -18.0134  -38.0959 C.3       5 UNK        -0.1800 
     49 N           5.1984  -17.6399  -40.5085 N.am      5 UNK        -0.5000 
     50 C           5.2804  -17.0198  -41.6936 C.2       4 UNK         0.5000 
     51 O           5.2531  -15.7931  -41.8155 O.2       4 UNK        -0.5000 
     52 CA          5.3868  -17.9310  -42.9354 C.3       4 UNK         0.1400 
     53 CB          4.3110  -19.0322  -42.9281 C.3       4 UNK        -0.1800 
     54 N           5.2418  -17.1616  -44.1695 N.am      4 UNK        -0.5000 
     55 C           6.2276  -16.5139  -44.8028 C.2       3 UNK         0.5000 
     56 O           7.4109  -16.5636  -44.4637 O.2       3 UNK        -0.5000 
     57 CA          5.8235  -15.6760  -46.0325 C.3       3 UNK         0.1400 
     58 CB          6.0802  -16.4660  -47.3256 C.3       3 UNK        -0.1800 
     59 N           4.4182  -15.2564  -46.0091 N.am      3 UNK        -0.5000 
     60 C           3.9336  -14.2530  -45.2617 C.2       2 UNK         0.5000 
     61 O           4.6327  -13.5533  -44.5285 O.2       2 UNK        -0.5000 
     62 CA          2.4229  -13.9796  -45.3858 C.3       2 UNK         0.1400 
     63 CB          2.0071  -12.5806  -44.8909 C.3       2 UNK        -0.1800 
     64 N           1.9837  -14.1829  -46.7675 N.am      2 UNK        -0.5000 
     65 C           0.7577  -14.5733  -47.1322 C.2       1 UNK         0.5000 
     66 O          -0.1637  -14.7654  -46.3368 O.2       1 UNK        -0.5000 
     67 C          -2.2720  -21.8520  -46.2024 C.2       11 UNK         0.5000 
     68 O          -2.4075  -22.5345  -47.2156 O.2       11 UNK        -0.5000 
     69 N          -2.0345  -22.3604  -44.9845 N.am      12 UNK        -0.5000 
     70 CA         -1.9295  -23.7895  -44.6772 C.3       12 UNK         0.1400 
     71 CB         -1.8498  -23.9717  -43.1542 C.3       12 UNK        -0.1800 
     72 C          -0.7468  -24.4951  -45.3714 C.2       12 UNK         0.5000 
     73 O          -0.8494  -25.6828  -45.6793 O.2       12 UNK        -0.5000 
     74 N           0.3455  -23.7575  -45.6126 N.am      13 UNK        -0.5000 
     75 CA          1.5085  -24.2086  -46.3790 C.3       13 UNK         0.1400 
     76 CB          2.6873  -23.2624  -46.1019 C.3       13 UNK        -0.1800 
     77 C           1.2375  -24.3042  -47.8952 C.2       13 UNK         0.5000 
     78 O           1.9370  -25.0473  -48.5856 O.2       13 UNK        -0.5000 
     79 N           0.2389  -23.5586  -48.3827 N.am      14 UNK        -0.5000 
     80 CA         -0.2577  -23.5860  -49.7552 C.3       14 UNK         0.1400 
     81 CB         -0.5672  -22.1365  -50.1836 C.3       14 UNK        -0.1800 
     82 C          -1.4921  -24.5088  -49.8524 C.2       14 UNK         0.5000 
     83 O          -1.7176  -25.3474  -48.9772 O.2       14 UNK        -0.5000 
     84 N          -2.2855  -24.3422  -50.9192 N.am      15 UNK        -0.5000 
     85 CA         -3.5611  -25.0409  -51.1180 C.3       15 UNK         0.1400 
     86 CB         -3.9327  -24.9728  -52.6061 C.3       15 UNK        -0.1800 
     87 C          -4.7098  -24.4816  -50.2492 C.2       15 UNK         0.5000 
     88 O          -5.7676  -25.1067  -50.1767 O.2       15 UNK        -0.5000 
     89 N          -4.4872  -23.3112  -49.6320 N.am      16 UNK        -0.5000 
     90 CA         -5.3735  -22.5559  -48.7376 C.3       16 UNK         0.1400 
     91 CB         -5.7389  -23.3848  -47.4886 C.3       16 UNK        -0.1800 
     92 C          -6.6223  -21.9421  -49.4065 C.2       16 UNK         0.5000 
     93 O          -7.4210  -21.3107  -48.7129 O.2       16 UNK        -0.5000 
     94 N          -6.7725  -22.1053  -50.7252 N.am      17 UNK        -0.5000 
     95 CA         -7.8749  -21.5978  -51.5324 C.3       17 UNK         0.1400 
     96 CB         -9.1702  -22.3758  -51.2206 C.3       17 UNK        -0.1800 
     97 C          -7.5159  -21.7373  -53.0176 C.2       17 UNK         0.5000 
     98 O          -6.6298  -22.5251  -53.3639 O.2       17 UNK        -0.5000 
     99 N          -8.2538  -20.9958  -53.8561 N.am      18 UNK        -0.5000 
    100 CA        -8.2202  -20.9936  -55.3228 C.3       18 UNK         0.1400 
    101 CB        -8.6605  -22.3727  -55.8631 C.3       18 UNK        -0.1800 
    102 C         -6.8709  -20.5416  -55.9197 C.2       18 UNK         0.5000 
    103 O         -5.9611  -20.1321  -55.1949 O.2       18 UNK        -0.5000 
    104 N         -6.7565  -20.6351  -57.2519 N.am      19 UNK        -0.5000 
    105 CA        -5.5530  -20.3091  -58.0250 C.3       19 UNK         0.1400 
    106 CB        -5.8791  -20.4041  -59.5227 C.3       19 UNK        -0.1800 
    107 C         -4.3329  -21.1882  -57.6808 C.2       19 UNK         0.5000 
    108 O         -3.2000  -20.7693  -57.9164 O.2       19 UNK        -0.5000 
    109 N         -4.5789  -22.3656  -57.0894 N.am      20 UNK        -0.5000 
    110 CA        -3.5632  -23.2617  -56.5380 C.3       20 UNK         0.1400 
    111 CB        -4.2436  -24.5643  -56.0928 C.3       20 UNK        -0.1800 
    112 C         -2.7590  -22.6353  -55.3789 C.2       20 UNK         0.5000 
    113 O         -1.5930  -22.9897  -55.2015 O.2       20 UNK        -0.5000 
    114 N         -3.3783  -21.7091  -54.6330 N.am      21 UNK        -0.5000 
    115 CA        -2.7147  -20.8783  -53.6315 C.3       21 UNK         0.1400 
    116 CB        -3.5823  -20.8067  -52.3624 C.3       21 UNK        -0.1800 
    117 C         -2.4559  -19.4692  -54.1860 C.2       21 UNK         0.5000 
    118 O         -1.3360  -18.9699  -54.0813 O.2       21 UNK        -0.5000 
    119 N         -3.5014  -18.8487  -54.7430 N.am      22 UNK        -0.5000 
    120 CA        -3.5462  -17.4164  -55.0719 C.3       22 UNK         0.1400 
    121 C         -3.0319  -17.0382  -56.4897 C.2       22 UNK         0.5000 
    122 N         -2.6399  -17.9740  -57.3431 N.am      22 UNK        -0.7600 
    123 O         -2.9696  -15.8576  -56.8218 O.2       22 UNK        -0.5000 
    124 C124       -4.9520  -16.8202  -54.7972 C.3       23 UNK        -0.0398 
    125 S125       -5.5684  -17.1555  -53.1072 S.3       23 UNK        -0.2404 
    126 C126       -4.6530  -15.9247  -52.1267 C.3       23 UNK        -0.0205 
    127 H127       -3.4568  -14.1457  -48.8498 H         1 UNK         0.0600 
    128 H128       -3.0586  -13.6568  -50.5048 H         1 UNK         0.0600 
    129 H129       -3.3449  -12.4352  -49.2608 H         1 UNK         0.0600 
    130 H130       -1.3911  -15.4654  -49.1927 H         1 UNK         0.3000 
    131 H131        1.1705  -14.1601  -49.2016 H         1 UNK         0.0600 
    132 H132        0.4837  -17.0236  -48.3464 H         1 UNK         0.0800 
    133 H133        2.0778  -16.4155  -48.6910 H         1 UNK         0.0800 
    134 H134       -0.0039  -18.8464  -49.9181 H         1 UNK         0.0800 
    135 H135       -0.3414  -18.6103  -51.6107 H         1 UNK         0.0800 
    136 H136       -2.1060  -16.9110  -52.3129 H         1 UNK         0.1150 
    137 H137       -5.3312  -16.4090  -49.5315 H         1 UNK         0.1150 
    138 H138       -1.6339  -18.1572  -48.2495 H         1 UNK         0.1150 
    139 H139       -3.3173  -17.2041  -46.6062 H         1 UNK         0.0800 
    140 H140       -4.8947  -16.7171  -47.1646 H         1 UNK         0.0800 
    141 H141       -4.2028  -20.4679  -45.1638 H         1 UNK         0.0800 
    142 H142       -3.4629  -18.9200  -45.0521 H         1 UNK         0.0800 
    143 H143       -2.2600  -20.0996  -47.3811 H         1 UNK         0.0600 
    144 H144       -1.3049  -19.1116  -44.8928 H         1 UNK         0.3000 
    145 H145        2.1372  -19.8974  -45.3619 H         1 UNK         0.0600 
    146 H146        2.2698  -17.4298  -44.8196 H         1 UNK         0.0600 
    147 H147        1.9540  -17.7548  -46.5171 H         1 UNK         0.0600 
    148 H148        0.6448  -17.2281  -45.4634 H         1 UNK         0.0600 
    149 H149        0.7367  -18.5745  -43.2554 H         1 UNK         0.3000 
    150 H150       -0.1685  -21.5176  -41.4290 H         1 UNK         0.0600 
    151 H151        2.1861  -21.0359  -40.7849 H         1 UNK         0.0600 
    152 H152        1.0613  -20.2947  -39.6577 H         1 UNK         0.0600 
    153 H153        1.8811  -19.3084  -40.8640 H         1 UNK         0.0600 
    154 H154       -0.5316  -18.6934  -41.0069 H         1 UNK         0.3000 
    155 H155       -3.7194  -18.4470  -42.5906 H         1 UNK         0.0600 
    156 H156       -4.3335  -17.6550  -40.3251 H         1 UNK         0.0600 
    157 H157       -4.1663  -19.4032  -40.3245 H         1 UNK         0.0600 
    158 H158       -2.8921  -18.4029  -39.6371 H         1 UNK         0.0600 
    159 H159       -2.1364  -16.5719  -41.1307 H         1 UNK         0.3000 
    160 H160       -0.0959  -15.4369  -43.8032 H         1 UNK         0.0600 
    161 H161       -2.4771  -14.0628  -42.4459 H         1 UNK         0.0600 
    162 H162       -2.2430  -14.2293  -44.1835 H         1 UNK         0.0600 
    163 H163       -1.1258  -13.2546  -43.2446 H         1 UNK         0.0600 
    164 H164       -0.4138  -14.5305  -41.1195 H         1 UNK         0.3000 
    165 H165        1.5216  -14.8254  -39.7609 H         1 UNK         0.0600 
    166 H166        0.8506  -16.3393  -37.8642 H         1 UNK         0.0600 
    167 H167       -0.5231  -16.0416  -38.9144 H         1 UNK         0.0600 
    168 H168        0.3383  -17.5745  -39.0102 H         1 UNK         0.0600 
    169 H169        2.8665  -17.2409  -40.5703 H         1 UNK         0.3000 
    170 H170        5.8530  -16.2394  -39.1159 H         1 UNK         0.0600 
    171 H171        6.1780  -18.5038  -38.1492 H         1 UNK         0.0600 
    172 H172        4.4356  -18.7837  -38.1537 H         1 UNK         0.0600 
    173 H173        5.1322  -17.5493  -37.1114 H         1 UNK         0.0600 
    174 H174        5.2330  -18.6486  -40.4839 H         1 UNK         0.3000 
    175 H175        6.3694  -18.4070  -42.9193 H         1 UNK         0.0600 
    176 H176        4.4600  -19.7375  -42.1103 H         1 UNK         0.0600 
    177 H177        3.3143  -18.6078  -42.8197 H         1 UNK         0.0600 
    178 H178        4.3287  -19.6110  -43.8519 H         1 UNK         0.0600 
    179 H179        4.3000  -17.0151  -44.4947 H         1 UNK         0.3000 
    180 H180        6.4554  -14.7852  -46.0468 H         1 UNK         0.0600 
    181 H181        5.4696  -17.3685  -47.3752 H         1 UNK         0.0600 
    182 H182        7.1248  -16.7728  -47.3948 H         1 UNK         0.0600 
    183 H183        5.8619  -15.8627  -48.2069 H         1 UNK         0.0600 
    184 H184        3.7837  -15.7819  -46.5907 H         1 UNK         0.3000 
    185 H185        1.9400  -14.7212  -44.7473 H         1 UNK         0.0600 
    186 H186        2.2952  -12.4293  -43.8499 H         1 UNK         0.0600 
    187 H187        2.4737  -11.7927  -45.4829 H         1 UNK         0.0600 
    188 H188        0.9266  -12.4466  -44.9465 H         1 UNK         0.0600 
    189 H189        2.6864  -14.0178  -47.4760 H         1 UNK         0.3000 
    190 H190       -1.9652  -21.7236  -44.1953 H         1 UNK         0.3000 
    191 H191       -2.8456  -24.2677  -45.0300 H         1 UNK         0.0600 
    192 H192       -0.9546  -23.5063  -42.7413 H         1 UNK         0.0600 
    193 H193       -1.8229  -25.0290  -42.8879 H         1 UNK         0.0600 
    194 H194       -2.7153  -23.5324  -42.6575 H         1 UNK         0.0600 
    195 H195        0.3895  -22.8201  -45.2276 H         1 UNK         0.3000 
    196 H196        1.7837  -25.2058  -46.0297 H         1 UNK         0.0600 
    197 H197        3.5837  -23.5887  -46.6304 H         1 UNK         0.0600 
    198 H198        2.9289  -23.2331  -45.0392 H         1 UNK         0.0600 
    199 H199        2.4684  -22.2441  -46.4240 H         1 UNK         0.0600 
    200 H200       -0.3274  -23.0319  -47.7291 H         1 UNK         0.3000 
    201 H201        0.5080  -23.9853  -50.4230 H         1 UNK         0.0600 
    202 H202        0.2913  -21.4873  -50.0091 H         1 UNK         0.0600 
    203 H203       -1.4095  -21.7186  -49.6311 H         1 UNK         0.0600 
    204 H204       -0.7987  -22.0726  -51.2463 H         1 UNK         0.0600 
    205 H205       -2.0256  -23.6690  -51.6247 H         1 UNK         0.3000 
    206 H206       -3.4302  -26.0915  -50.8501 H         1 UNK         0.0600 
    207 H207       -3.1375  -25.3800  -53.2304 H         1 UNK         0.0600 
    208 H208       -4.8347  -25.5506  -52.8114 H         1 UNK         0.0600 
    209 H209       -4.1249  -23.9494  -52.9271 H         1 UNK         0.0600 
    210 H210       -3.5668  -22.9118  -49.7401 H         1 UNK         0.3000 
    211 H211       -4.7766  -21.7091  -48.4009 H         1 UNK         0.0600 
    212 H212       -6.4164  -24.2041  -47.7297 H         1 UNK         0.0600 
    213 H213       -6.2314  -22.7639  -46.7395 H         1 UNK         0.0600 
    214 H214       -4.8505  -23.8099  -47.0215 H         1 UNK         0.0600 
    215 H215       -6.0837  -22.6289  -51.2499 H         1 UNK         0.3000 
    216 H216       -8.0148  -20.5382  -51.3085 H         1 UNK         0.0600 
    217 H217       -9.0431  -23.4452  -51.3944 H         1 UNK         0.0600 
    218 H218       -9.9961  -22.0377  -51.8474 H         1 UNK         0.0600 
    219 H219       -9.4826  -22.2414  -50.1853 H         1 UNK         0.0600 
    220 H220       -8.9258  -20.3602  -53.4504 H         1 UNK         0.3000 
    221 H221       -8.9587  -20.2558  -55.6393 H         1 UNK         0.0600 
    222 H222       -9.5857  -22.7019  -55.3897 H         1 UNK         0.0600 
    223 H223       -7.9057  -23.1392  -55.6832 H         1 UNK         0.0600 
    224 H224       -8.8492  -22.3435  -56.9364 H         1 UNK         0.0600 
    225 H225       -7.5467  -20.9713  -57.7831 H         1 UNK         0.3000 
    226 H226       -5.2830  -19.2758  -57.7976 H         1 UNK         0.0600 
    227 H227       -6.6851  -19.7227  -59.7956 H         1 UNK         0.0600 
    228 H228       -5.0121  -20.1377  -60.1290 H         1 UNK         0.0600 
    229 H229       -6.1801  -21.4135  -59.8058 H         1 UNK         0.0600 
    230 H230       -5.5411  -22.6268  -56.9355 H         1 UNK         0.3000 
    231 H231       -2.8573  -23.4985  -57.3367 H         1 UNK         0.0600 
    232 H232       -4.9920  -24.3823  -55.3202 H         1 UNK         0.0600 
    233 H233       -3.5146  -25.2686  -55.6906 H         1 UNK         0.0600 
    234 H234       -4.7393  -25.0563  -56.9297 H         1 UNK         0.0600 
    235 H235       -4.3402  -21.4711  -54.8469 H         1 UNK         0.3000 
    236 H236       -1.7505  -21.3077  -53.3537 H         1 UNK         0.0600 
    237 H237       -4.5687  -20.3882  -52.5676 H         1 UNK         0.0600 
    238 H238       -3.7263  -21.7937  -51.9283 H         1 UNK         0.0600 
    239 H239       -3.1137  -20.1804  -51.6018 H         1 UNK         0.0600 
    240 H240       -4.3941  -19.3340  -54.8047 H         1 UNK         0.3000 
    241 H241       -2.8593  -16.9019  -54.4008 H         1 UNK         0.0600 
    242 H242       -2.6961  -18.9602  -57.1207 H         1 UNK         0.3800 
    243 H243       -2.2986  -17.6956  -58.2490 H         1 UNK         0.3800 
    244 H244       -5.6746  -17.2366  -55.5009 H         1 UNK         0.0800 
    245 H245       -4.9587  -15.7413  -54.9617 H         1 UNK         0.0800 
    246 H246       -4.0110  -15.3188  -52.7673 H         1 UNK         0.0800 
    247 H247       -5.3664  -15.2322  -51.6775 H         1 UNK         0.0800 
@<TRIPOS>BOND
     1    1    2 1    
     2    1  127 1    
     3    1  128 1    
     4    1  129 1    
     5    2    3 2    
     6    2    4 am   BACKBONE|DICT|INTERRES
     7    4    5 1    
     8    4  130 1    
     9    5    6 1    
    10    5   65 1    
    11    5  131 1    
    12    6    7 1    
    13    6  132 1    
    14    6  133 1    
    15    7    8 1    
    16    8    9 1    
    17    8  134 1    
    18    8  135 1    
    19    9   10 ar   
    20    9   14 ar   
    21   10   11 ar   
    22   10  136 1    
    23   11   12 ar   
    24   11  126 1    
    25   12   13 ar   
    26   12  137 1    
    27   13   14 ar   
    28   13   15 1    
    29   14  138 1    
    30   15   16 1    
    31   15  139 1    
    32   15  140 1    
    33   16   17 1    
    34   17   18 1    
    35   17  141 1    
    36   17  142 1    
    37   18   19 1    
    38   18   67 1    
    39   18  143 1    
    40   19   20 am   BACKBONE|DICT|INTERRES
    41   19  144 1    
    42   20   21 2    
    43   20   22 1    
    44   22   23 1    
    45   22   24 1    
    46   22  145 1    
    47   23  146 1    
    48   23  147 1    
    49   23  148 1    
    50   24   25 am   BACKBONE|DICT|INTERRES
    51   24  149 1    
    52   25   26 2    
    53   25   27 1    
    54   27   28 1    
    55   27   29 1    
    56   27  150 1    
    57   28  151 1    
    58   28  152 1    
    59   28  153 1    
    60   29   30 am   BACKBONE|DICT|INTERRES
    61   29  154 1    
    62   30   31 2    
    63   30   32 1    
    64   32   33 1    
    65   32   34 1    
    66   32  155 1    
    67   33  156 1    
    68   33  157 1    
    69   33  158 1    
    70   34   35 am   BACKBONE|DICT|INTERRES
    71   34  159 1    
    72   35   36 2    
    73   35   37 1    
    74   37   38 1    
    75   37   39 1    
    76   37  160 1    
    77   38  161 1    
    78   38  162 1    
    79   38  163 1    
    80   39   40 am   BACKBONE|DICT|INTERRES
    81   39  164 1    
    82   40   41 2    
    83   40   42 1    
    84   42   43 1    
    85   42   44 1    
    86   42  165 1    
    87   43  166 1    
    88   43  167 1    
    89   43  168 1    
    90   44   45 am   BACKBONE|DICT|INTERRES
    91   44  169 1    
    92   45   46 2    
    93   45   47 1    
    94   47   48 1    
    95   47   49 1    
    96   47  170 1    
    97   48  171 1    
    98   48  172 1    
    99   48  173 1    
   100   49   50 am   BACKBONE|DICT|INTERRES
   101   49  174 1    
   102   50   51 2    
   103   50   52 1    
   104   52   53 1    
   105   52   54 1    
   106   52  175 1    
   107   53  176 1    
   108   53  177 1    
   109   53  178 1    
   110   54   55 am   BACKBONE|DICT|INTERRES
   111   54  179 1    
   112   55   56 2    
   113   55   57 1    
   114   57   58 1    
   115   57   59 1    
   116   57  180 1    
   117   58  181 1    
   118   58  182 1    
   119   58  183 1    
   120   59   60 am   BACKBONE|DICT|INTERRES
   121   59  184 1    
   122   60   61 2    
   123   60   62 1    
   124   62   63 1    
   125   62   64 1    
   126   62  185 1    
   127   63  186 1    
   128   63  187 1    
   129   63  188 1    
   130   64   65 am   BACKBONE|DICT|INTERRES
   131   64  189 1    
   132   65   66 2    
   133   67   68 2    
   134   67   69 am   BACKBONE|DICT|INTERRES
   135   69   70 1    
   136   69  190 1    
   137   70   71 1    
   138   70   72 1    
   139   70  191 1    
   140   71  192 1    
   141   71  193 1    
   142   71  194 1    
   143   72   73 2    
   144   72   74 am   BACKBONE|DICT|INTERRES
   145   74   75 1    
   146   74  195 1    
   147   75   76 1    
   148   75   77 1    
   149   75  196 1    
   150   76  197 1    
   151   76  198 1    
   152   76  199 1    
   153   77   78 2    
   154   77   79 am   BACKBONE|DICT|INTERRES
   155   79   80 1    
   156   79  200 1    
   157   80   81 1    
   158   80   82 1    
   159   80  201 1    
   160   81  202 1    
   161   81  203 1    
   162   81  204 1    
   163   82   83 2    
   164   82   84 am   BACKBONE|DICT|INTERRES
   165   84   85 1    
   166   84  205 1    
   167   85   86 1    
   168   85   87 1    
   169   85  206 1    
   170   86  207 1    
   171   86  208 1    
   172   86  209 1    
   173   87   88 2    
   174   87   89 am   BACKBONE|DICT|INTERRES
   175   89   90 1    
   176   89  210 1    
   177   90   91 1    
   178   90   92 1    
   179   90  211 1    
   180   91  212 1    
   181   91  213 1    
   182   91  214 1    
   183   92   93 2    
   184   92   94 am   BACKBONE|DICT|INTERRES
   185   94   95 1    
   186   94  215 1    
   187   95   96 1    
   188   95   97 1    
   189   95  216 1    
   190   96  217 1    
   191   96  218 1    
   192   96  219 1    
   193   97   98 2    
   194   97   99 am   BACKBONE|DICT|INTERRES
   195   99  100 1    
   196   99  220 1    
   197  100  101 1    
   198  100  102 1    
   199  100  221 1    
   200  101  222 1    
   201  101  223 1    
   202  101  224 1    
   203  102  103 2    
   204  102  104 am   BACKBONE|DICT|INTERRES
   205  104  105 1    
   206  104  225 1    
   207  105  106 1    
   208  105  107 1    
   209  105  226 1    
   210  106  227 1    
   211  106  228 1    
   212  106  229 1    
   213  107  108 2    
   214  107  109 am   BACKBONE|DICT|INTERRES
   215  109  110 1    
   216  109  230 1    
   217  110  111 1    
   218  110  112 1    
   219  110  231 1    
   220  111  232 1    
   221  111  233 1    
   222  111  234 1    
   223  112  113 2    
   224  112  114 am   BACKBONE|DICT|INTERRES
   225  114  115 1    
   226  114  235 1    
   227  115  116 1    
   228  115  117 1    
   229  115  236 1    
   230  116  237 1    
   231  116  238 1    
   232  116  239 1    
   233  117  118 2    
   234  117  119 am   BACKBONE|DICT|INTERRES
   235  119  120 1    
   236  119  240 1    
   237  120  121 1    
   238  120  124 1    
   239  120  241 1    
   240  121  122 am   BACKBONE|DICT|INTERRES
   241  121  123 2    
   242  122  242 1    
   243  122  243 1    
   244  124  125 1    
   245  124  244 1    
   246  124  245 1    
   247  125  126 1    
   248  126  246 1    
   249  126  247 1    
@<TRIPOS>SUBSTRUCTURE
     1 UNK         1 GROUP             0       ****    0 ROOT    
