@<TRIPOS>MOLECULE
3R540
247   249    1
SMALL
USER_CHARGES


@<TRIPOS>ATOM
      1 CA          2.1952   -9.5762  -48.2974 C.3       0 UNK        -0.1800 
      2 C           1.8696  -10.5870  -47.2086 C.2       0 UNK         0.5000 
      3 O           2.6995  -10.8357  -46.3352 O.2       0 UNK        -0.5000 
      4 N           0.6581  -11.1567  -47.2383 N.am      1 UNK        -0.5000 
      5 CA          0.1765  -12.1963  -46.3148 C.3       1 UNK         0.1400 
      6 C6         -1.1961  -12.7602  -46.7508 C.3       23 UNK        -0.0398 
      7 S7         -1.1126  -13.5472  -48.3961 S.3       23 UNK        -0.2404 
      8 C8         -1.2515  -15.3023  -47.9362 C.3       23 UNK        -0.0205 
      9 C9         -1.0527  -16.2340  -49.1229 C.ar      23 UNK        -0.0193 
     10 C10        -1.9021  -16.1625  -50.2315 C.ar      23 UNK        -0.1150 
     11 C11        -1.7304  -17.0289  -51.3144 C.ar      23 UNK        -0.0193 
     12 C12        -0.7236  -17.9973  -51.2658 C.ar      23 UNK        -0.1150 
     13 C13         0.1146  -18.1017  -50.1529 C.ar      23 UNK        -0.0193 
     14 C14        -0.0367  -17.1942  -49.0982 C.ar      23 UNK        -0.1150 
     15 C15         1.1657  -19.2090  -50.1074 C.3       23 UNK        -0.0205 
     16 S16         1.2942  -20.0565  -48.4930 S.3       23 UNK        -0.2404 
     17 C17        -0.4544  -20.3514  -48.0604 C.3       23 UNK        -0.0398 
     18 CA         -0.6963  -21.7014  -47.3493 C.3       11 UNK         0.1400 
     19 N           0.0308  -21.8230  -46.0778 N.am      11 UNK        -0.5000 
     20 C           0.0950  -22.9458  -45.3463 C.2       10 UNK         0.5000 
     21 O          -0.4065  -24.0131  -45.6959 O.2       10 UNK        -0.5000 
     22 CA          0.7694  -22.8550  -43.9648 C.3       10 UNK         0.1400 
     23 CB          2.2975  -22.9594  -44.0782 C.3       10 UNK        -0.1800 
     24 N           0.3972  -21.6383  -43.2422 N.am      10 UNK        -0.5000 
     25 C          -0.8451  -21.3637  -42.8193 C.2       9 UNK         0.5000 
     26 O          -1.7903  -22.1412  -42.9395 O.2       9 UNK        -0.5000 
     27 CA         -1.0906  -19.9722  -42.2093 C.3       9 UNK         0.1400 
     28 CB         -0.7425  -19.9520  -40.7136 C.3       9 UNK        -0.1800 
     29 N          -0.3509  -18.9223  -42.9097 N.am      9 UNK        -0.5000 
     30 C          -0.6115  -18.5246  -44.1636 C.2       8 UNK         0.5000 
     31 O          -1.5351  -18.9709  -44.8446 O.2       8 UNK        -0.5000 
     32 CA          0.3541  -17.4912  -44.7744 C.3       8 UNK         0.1400 
     33 CB         -0.0711  -16.0644  -44.3974 C.3       8 UNK        -0.1800 
     34 N           1.7481  -17.7049  -44.3777 N.am      8 UNK        -0.5000 
     35 C           2.4507  -18.8117  -44.6600 C.2       7 UNK         0.5000 
     36 O           1.9988  -19.7546  -45.3063 O.2       7 UNK        -0.5000 
     37 CA          3.8614  -18.9199  -44.0556 C.3       7 UNK         0.1400 
     38 CB          4.8703  -18.0636  -44.8335 C.3       7 UNK        -0.1800 
     39 N           3.8888  -18.5500  -42.6407 N.am      7 UNK        -0.5000 
     40 C           3.2454  -19.1979  -41.6616 C.2       6 UNK         0.5000 
     41 O           2.5837  -20.2174  -41.8529 O.2       6 UNK        -0.5000 
     42 CA          3.2975  -18.5940  -40.2425 C.3       6 UNK         0.1400 
     43 CB          4.5336  -19.0874  -39.4670 C.3       6 UNK        -0.1800 
     44 N           3.1709  -17.1286  -40.2090 N.am      6 UNK        -0.5000 
     45 C           4.0374  -16.2060  -40.6472 C.2       5 UNK         0.5000 
     46 O           5.1596  -16.4653  -41.0895 O.2       5 UNK        -0.5000 
     47 CA          3.5428  -14.7476  -40.6297 C.3       5 UNK         0.1400 
     48 CB          4.0515  -14.0158  -39.3792 C.3       5 UNK        -0.1800 
     49 N           3.9714  -14.0128  -41.8196 N.am      5 UNK        -0.5000 
     50 C           3.6913  -14.3412  -43.0872 C.2       4 UNK         0.5000 
     51 O           2.9664  -15.2897  -43.3963 O.2       4 UNK        -0.5000 
     52 CA          4.3387  -13.4631  -44.1805 C.3       4 UNK         0.1400 
     53 CB          3.9771  -13.9285  -45.6026 C.3       4 UNK        -0.1800 
     54 N           3.9857  -12.0485  -44.0502 N.am      4 UNK        -0.5000 
     55 C           4.4700  -11.1874  -43.1448 C.2       3 UNK         0.5000 
     56 O           5.2953  -11.4957  -42.2835 O.2       3 UNK        -0.5000 
     57 CA          3.9287   -9.7490  -43.1966 C.3       3 UNK         0.1400 
     58 CB          4.7312   -8.9038  -44.1980 C.3       3 UNK        -0.1800 
     59 N           2.5133   -9.7231  -43.5660 N.am      3 UNK        -0.5000 
     60 C           1.4993   -9.7987  -42.6925 C.2       2 UNK         0.5000 
     61 O           1.6520   -9.8489  -41.4715 O.2       2 UNK        -0.5000 
     62 CA          0.0709   -9.8181  -43.2742 C.3       2 UNK         0.1400 
     63 CB         -0.4963   -8.3924  -43.3524 C.3       2 UNK        -0.1800 
     64 N           0.0017  -10.4317  -44.6012 N.am      2 UNK        -0.5000 
     65 C           0.1374  -11.7444  -44.8376 C.2       1 UNK         0.5000 
     66 O           0.2559  -12.5850  -43.9470 O.2       1 UNK        -0.5000 
     67 C          -2.2128  -21.9270  -47.1710 C.2       11 UNK         0.5000 
     68 O          -2.8300  -22.5839  -48.0108 O.2       11 UNK        -0.5000 
     69 N          -2.7835  -21.3997  -46.0777 N.am      12 UNK        -0.5000 
     70 CA         -4.1841  -21.5957  -45.7039 C.3       12 UNK         0.1400 
     71 CB         -4.5630  -20.6313  -44.5703 C.3       12 UNK        -0.1800 
     72 C          -4.4902  -23.0549  -45.3192 C.2       12 UNK         0.5000 
     73 O          -5.5075  -23.5904  -45.7579 O.2       12 UNK        -0.5000 
     74 N          -3.5900  -23.6859  -44.5514 N.am      13 UNK        -0.5000 
     75 CA         -3.6623  -25.0968  -44.1609 C.3       13 UNK         0.1400 
     76 CB         -2.5919  -25.3928  -43.0998 C.3       13 UNK        -0.1800 
     77 C          -3.5255  -26.0577  -45.3574 C.2       13 UNK         0.5000 
     78 O          -4.2357  -27.0620  -45.4154 O.2       13 UNK        -0.5000 
     79 N          -2.6467  -25.7118  -46.3084 N.am      14 UNK        -0.5000 
     80 CA         -2.4772  -26.4006  -47.5908 C.3       14 UNK         0.1400 
     81 CB         -1.1485  -25.9550  -48.2217 C.3       14 UNK        -0.1800 
     82 C          -3.6408  -26.1586  -48.5751 C.2       14 UNK         0.5000 
     83 O          -3.7545  -26.8905  -49.5588 O.2       14 UNK        -0.5000 
     84 N          -4.4678  -25.1411  -48.2934 N.am      15 UNK        -0.5000 
     85 CA         -5.6107  -24.6615  -49.0690 C.3       15 UNK         0.1400 
     86 CB         -6.7322  -25.7191  -49.1070 C.3       15 UNK        -0.1800 
     87 C          -5.1901  -24.1611  -50.4631 C.2       15 UNK         0.5000 
     88 O          -5.7724  -24.5678  -51.4691 O.2       15 UNK        -0.5000 
     89 N          -4.1835  -23.2745  -50.4923 N.am      16 UNK        -0.5000 
     90 CA         -3.5651  -22.7033  -51.6956 C.3       16 UNK         0.1400 
     91 CB         -2.5009  -21.6789  -51.2706 C.3       16 UNK        -0.1800 
     92 C          -4.5503  -22.0673  -52.6981 C.2       16 UNK         0.5000 
     93 O          -4.3248  -22.1505  -53.9068 O.2       16 UNK        -0.5000 
     94 N          -5.6341  -21.4690  -52.1870 N.am      17 UNK        -0.5000 
     95 CA         -6.7045  -20.8800  -52.9906 C.3       17 UNK         0.1400 
     96 CB         -7.5536  -19.9564  -52.1053 C.3       17 UNK        -0.1800 
     97 C          -7.5851  -21.9362  -53.6846 C.2       17 UNK         0.5000 
     98 O          -7.9824  -21.7311  -54.8314 O.2       17 UNK        -0.5000 
     99 N          -7.8560  -23.0525  -52.9940 N.am      18 UNK        -0.5000 
    100 CA        -8.6353  -24.1799  -53.5135 C.3       18 UNK         0.1400 
    101 CB        -9.1781  -25.0121  -52.3423 C.3       18 UNK        -0.1800 
    102 C         -7.8017  -25.0586  -54.4616 C.2       18 UNK         0.5000 
    103 O         -8.3292  -25.5595  -55.4549 O.2       18 UNK        -0.5000 
    104 N         -6.5046  -25.1951  -54.1544 N.am      19 UNK        -0.5000 
    105 CA        -5.5007  -25.8770  -54.9729 C.3       19 UNK         0.1400 
    106 CB        -4.2463  -26.1042  -54.1145 C.3       19 UNK        -0.1800 
    107 C         -5.1338  -25.1112  -56.2615 C.2       19 UNK         0.5000 
    108 O         -4.4914  -25.6894  -57.1388 O.2       19 UNK        -0.5000 
    109 N         -5.5329  -23.8324  -56.3420 N.am      20 UNK        -0.5000 
    110 CA        -5.2704  -22.8750  -57.4201 C.3       20 UNK         0.1400 
    111 CB        -5.9213  -23.3290  -58.7435 C.3       20 UNK        -0.1800 
    112 C         -3.7739  -22.5280  -57.5610 C.2       20 UNK         0.5000 
    113 O         -3.2995  -22.2563  -58.6656 O.2       20 UNK        -0.5000 
    114 N         -3.0604  -22.5233  -56.4269 N.am      21 UNK        -0.5000 
    115 CA        -1.6948  -22.0166  -56.3096 C.3       21 UNK         0.1400 
    116 CB        -1.0301  -22.6255  -55.0659 C.3       21 UNK        -0.1800 
    117 C         -1.6868  -20.4784  -56.2462 C.2       21 UNK         0.5000 
    118 O         -0.7611  -19.8536  -56.7657 O.2       21 UNK        -0.5000 
    119 N         -2.7329  -19.8996  -55.6405 N.am      22 UNK        -0.5000 
    120 CA        -3.0274  -18.4611  -55.6762 C.3       22 UNK         0.1400 
    121 C         -3.4947  -18.0087  -57.0869 C.2       22 UNK         0.5000 
    122 N         -3.0228  -16.8679  -57.5709 N.am      22 UNK        -0.7600 
    123 O         -4.3163  -18.6621  -57.7262 O.2       22 UNK        -0.5000 
    124 C124       -4.0798  -18.0577  -54.6125 C.3       23 UNK        -0.0398 
    125 S125       -3.5348  -18.4171  -52.9105 S.3       23 UNK        -0.2404 
    126 C126       -2.6014  -16.8959  -52.5539 C.3       23 UNK        -0.0205 
    127 H127        1.3632   -9.4431  -48.9892 H         1 UNK         0.0600 
    128 H128        2.4278   -8.6087  -47.8525 H         1 UNK         0.0600 
    129 H129        3.0630   -9.9080  -48.8672 H         1 UNK         0.0600 
    130 H130        0.0223  -10.9181  -47.9863 H         1 UNK         0.3000 
    131 H131        0.8947  -13.0158  -46.3620 H         1 UNK         0.0600 
    132 H132       -1.5653  -13.4876  -46.0250 H         1 UNK         0.0800 
    133 H133       -1.9428  -11.9651  -46.7862 H         1 UNK         0.0800 
    134 H134       -2.2321  -15.4884  -47.4959 H         1 UNK         0.0800 
    135 H135       -0.5134  -15.5165  -47.1636 H         1 UNK         0.0800 
    136 H136       -2.6847  -15.4171  -50.2555 H         1 UNK         0.1150 
    137 H137       -0.6014  -18.6763  -52.0983 H         1 UNK         0.1150 
    138 H138        0.6204  -17.2590  -48.2429 H         1 UNK         0.1150 
    139 H139        2.1372  -18.7829  -50.3601 H         1 UNK         0.0800 
    140 H140        0.9524  -19.9638  -50.8660 H         1 UNK         0.0800 
    141 H141       -1.0466  -20.3059  -48.9759 H         1 UNK         0.0800 
    142 H142       -0.7937  -19.5229  -47.4367 H         1 UNK         0.0800 
    143 H143       -0.3317  -22.4937  -48.0064 H         1 UNK         0.0600 
    144 H144        0.5321  -20.9999  -45.7550 H         1 UNK         0.3000 
    145 H145        0.4238  -23.7051  -43.3733 H         1 UNK         0.0600 
    146 H146        2.7692  -22.9215  -43.0961 H         1 UNK         0.0600 
    147 H147        2.5872  -23.9025  -44.5430 H         1 UNK         0.0600 
    148 H148        2.7191  -22.1570  -44.6821 H         1 UNK         0.0600 
    149 H149        1.1374  -20.9684  -43.0624 H         1 UNK         0.3000 
    150 H150       -2.1557  -19.7516  -42.3065 H         1 UNK         0.0600 
    151 H151        0.3043  -20.1943  -40.5345 H         1 UNK         0.0600 
    152 H152       -1.3420  -20.6820  -40.1682 H         1 UNK         0.0600 
    153 H153       -0.9426  -18.9748  -40.2738 H         1 UNK         0.0600 
    154 H154        0.4504  -18.5315  -42.4384 H         1 UNK         0.3000 
    155 H155        0.2980  -17.5921  -45.8596 H         1 UNK         0.0600 
    156 H156       -1.1060  -15.8726  -44.6834 H         1 UNK         0.0600 
    157 H157        0.5497  -15.3228  -44.9005 H         1 UNK         0.0600 
    158 H158        0.0116  -15.8894  -43.3241 H         1 UNK         0.0600 
    159 H159        2.2024  -16.9426  -43.8789 H         1 UNK         0.3000 
    160 H160        4.1733  -19.9635  -44.1338 H         1 UNK         0.0600 
    161 H161        4.6607  -17.0005  -44.7260 H         1 UNK         0.0600 
    162 H162        4.8468  -18.3000  -45.8982 H         1 UNK         0.0600 
    163 H163        5.8871  -18.2395  -44.4825 H         1 UNK         0.0600 
    164 H164        4.4153  -17.7203  -42.3859 H         1 UNK         0.3000 
    165 H165        2.4192  -18.9710  -39.7162 H         1 UNK         0.0600 
    166 H166        4.5495  -18.6865  -38.4535 H         1 UNK         0.0600 
    167 H167        5.4664  -18.8051  -39.9553 H         1 UNK         0.0600 
    168 H168        4.5291  -20.1751  -39.3865 H         1 UNK         0.0600 
    169 H169        2.2752  -16.7984  -39.8770 H         1 UNK         0.3000 
    170 H170        2.4510  -14.7436  -40.6183 H         1 UNK         0.0600 
    171 H171        3.7267  -14.5226  -38.4695 H         1 UNK         0.0600 
    172 H172        5.1411  -13.9678  -39.3581 H         1 UNK         0.0600 
    173 H173        3.6700  -12.9953  -39.3368 H         1 UNK         0.0600 
    174 H174        4.5754  -13.2109  -41.6711 H         1 UNK         0.3000 
    175 H175        5.4206  -13.5575  -44.0682 H         1 UNK         0.0600 
    176 H176        2.9002  -13.9207  -45.7644 H         1 UNK         0.0600 
    177 H177        4.4337  -13.2880  -46.3575 H         1 UNK         0.0600 
    178 H178        4.3276  -14.9436  -45.7865 H         1 UNK         0.0600 
    179 H179        3.3469  -11.6866  -44.7520 H         1 UNK         0.3000 
    180 H180        4.0576   -9.3059  -42.2067 H         1 UNK         0.0600 
    181 H181        4.6568   -9.2962  -45.2128 H         1 UNK         0.0600 
    182 H182        5.7886   -8.8843  -43.9312 H         1 UNK         0.0600 
    183 H183        4.3804   -7.8718  -44.2117 H         1 UNK         0.0600 
    184 H184        2.3098   -9.7510  -44.5572 H         1 UNK         0.3000 
    185 H185       -0.5564  -10.3972  -42.5931 H         1 UNK         0.0600 
    186 H186       -1.5308   -8.3976  -43.6961 H         1 UNK         0.0600 
    187 H187       -0.4830   -7.9129  -42.3727 H         1 UNK         0.0600 
    188 H188        0.0816   -7.7653  -44.0325 H         1 UNK         0.0600 
    189 H189       -0.0929   -9.8082  -45.3897 H         1 UNK         0.3000 
    190 H190       -2.2244  -20.8168  -45.4640 H         1 UNK         0.3000 
    191 H191       -4.7975  -21.3470  -46.5726 H         1 UNK         0.0600 
    192 H192       -5.6195  -20.7253  -44.3169 H         1 UNK         0.0600 
    193 H193       -4.3883  -19.5949  -44.8600 H         1 UNK         0.0600 
    194 H194       -3.9912  -20.8252  -43.6635 H         1 UNK         0.0600 
    195 H195       -2.8094  -23.1522  -44.1773 H         1 UNK         0.3000 
    196 H196       -4.6421  -25.2670  -43.7100 H         1 UNK         0.0600 
    197 H197       -1.5862  -25.2218  -43.4839 H         1 UNK         0.0600 
    198 H198       -2.7249  -24.7636  -42.2196 H         1 UNK         0.0600 
    199 H199       -2.6456  -26.4308  -42.7694 H         1 UNK         0.0600 
    200 H200       -2.0366  -24.9156  -46.1413 H         1 UNK         0.3000 
    201 H201       -2.4242  -27.4744  -47.4008 H         1 UNK         0.0600 
    202 H202       -1.1449  -24.8851  -48.4327 H         1 UNK         0.0600 
    203 H203       -0.9658  -26.4760  -49.1623 H         1 UNK         0.0600 
    204 H204       -0.3069  -26.1697  -47.5629 H         1 UNK         0.0600 
    205 H205       -4.2577  -24.5972  -47.4673 H         1 UNK         0.3000 
    206 H206       -5.9979  -23.7928  -48.5350 H         1 UNK         0.0600 
    207 H207       -6.9755  -26.0700  -48.1040 H         1 UNK         0.0600 
    208 H208       -7.6443  -25.2999  -49.5314 H         1 UNK         0.0600 
    209 H209       -6.4566  -26.5859  -49.7086 H         1 UNK         0.0600 
    210 H210       -3.7493  -23.0208  -49.6073 H         1 UNK         0.3000 
    211 H211       -3.0606  -23.5191  -52.2153 H         1 UNK         0.0600 
    212 H212       -2.0321  -21.2073  -52.1349 H         1 UNK         0.0600 
    213 H213       -1.7088  -22.1521  -50.6901 H         1 UNK         0.0600 
    214 H214       -2.9326  -20.8825  -50.6631 H         1 UNK         0.0600 
    215 H215       -5.7372  -21.4345  -51.1840 H         1 UNK         0.3000 
    216 H216       -6.2484  -20.2711  -53.7723 H         1 UNK         0.0600 
    217 H217       -8.0195  -20.5007  -51.2831 H         1 UNK         0.0600 
    218 H218       -8.3509  -19.4869  -52.6830 H         1 UNK         0.0600 
    219 H219       -6.9478  -19.1561  -51.6794 H         1 UNK         0.0600 
    220 H220       -7.4170  -23.1869  -52.0935 H         1 UNK         0.3000 
    221 H221       -9.4867  -23.7887  -54.0746 H         1 UNK         0.0600 
    222 H222       -9.7595  -24.3981  -51.6544 H         1 UNK         0.0600 
    223 H223       -8.3739  -25.4840  -51.7778 H         1 UNK         0.0600 
    224 H224       -9.8322  -25.8071  -52.7024 H         1 UNK         0.0600 
    225 H225       -6.1805  -24.8132  -53.2686 H         1 UNK         0.3000 
    226 H226       -5.9006  -26.8493  -55.2674 H         1 UNK         0.0600 
    227 H227       -3.7904  -25.1597  -53.8175 H         1 UNK         0.0600 
    228 H228       -4.4816  -26.6619  -53.2076 H         1 UNK         0.0600 
    229 H229       -3.4941  -26.6738  -54.6616 H         1 UNK         0.0600 
    230 H230       -6.0319  -23.4593  -55.5466 H         1 UNK         0.3000 
    231 H231       -5.7612  -21.9482  -57.1188 H         1 UNK         0.0600 
    232 H232       -6.9759  -23.5659  -58.6025 H         1 UNK         0.0600 
    233 H233       -5.4308  -24.2102  -59.1576 H         1 UNK         0.0600 
    234 H234       -5.8645  -22.5414  -59.4957 H         1 UNK         0.0600 
    235 H235       -3.5486  -22.7022  -55.5538 H         1 UNK         0.3000 
    236 H236       -1.1223  -22.3241  -57.1873 H         1 UNK         0.0600 
    237 H237       -1.0039  -23.7136  -55.1267 H         1 UNK         0.0600 
    238 H238       -0.0010  -22.2789  -54.9647 H         1 UNK         0.0600 
    239 H239       -1.5588  -22.3550  -54.1530 H         1 UNK         0.0600 
    240 H240       -3.4390  -20.4931  -55.2269 H         1 UNK         0.3000 
    241 H241       -2.0991  -17.9347  -55.4468 H         1 UNK         0.0600 
    242 H242       -3.3324  -16.5577  -58.4791 H         1 UNK         0.3800 
    243 H243       -2.3512  -16.3123  -57.0636 H         1 UNK         0.3800 
    244 H244       -5.0193  -18.5811  -54.7920 H         1 UNK         0.0800 
    245 H245       -4.3130  -16.9936  -54.6839 H         1 UNK         0.0800 
    246 H246       -3.3027  -16.0665  -52.4505 H         1 UNK         0.0800 
    247 H247       -1.9561  -16.6529  -53.3987 H         1 UNK         0.0800 
@<TRIPOS>BOND
     1    1    2 1    
     2    1  127 1    
     3    1  128 1    
     4    1  129 1    
     5    2    3 2    
     6    2    4 am   BACKBONE|DICT|INTERRES
     7    4    5 1    
     8    4  130 1    
     9    5    6 1    
    10    5   65 1    
    11    5  131 1    
    12    6    7 1    
    13    6  132 1    
    14    6  133 1    
    15    7    8 1    
    16    8    9 1    
    17    8  134 1    
    18    8  135 1    
    19    9   10 ar   
    20    9   14 ar   
    21   10   11 ar   
    22   10  136 1    
    23   11   12 ar   
    24   11  126 1    
    25   12   13 ar   
    26   12  137 1    
    27   13   14 ar   
    28   13   15 1    
    29   14  138 1    
    30   15   16 1    
    31   15  139 1    
    32   15  140 1    
    33   16   17 1    
    34   17   18 1    
    35   17  141 1    
    36   17  142 1    
    37   18   19 1    
    38   18   67 1    
    39   18  143 1    
    40   19   20 am   BACKBONE|DICT|INTERRES
    41   19  144 1    
    42   20   21 2    
    43   20   22 1    
    44   22   23 1    
    45   22   24 1    
    46   22  145 1    
    47   23  146 1    
    48   23  147 1    
    49   23  148 1    
    50   24   25 am   BACKBONE|DICT|INTERRES
    51   24  149 1    
    52   25   26 2    
    53   25   27 1    
    54   27   28 1    
    55   27   29 1    
    56   27  150 1    
    57   28  151 1    
    58   28  152 1    
    59   28  153 1    
    60   29   30 am   BACKBONE|DICT|INTERRES
    61   29  154 1    
    62   30   31 2    
    63   30   32 1    
    64   32   33 1    
    65   32   34 1    
    66   32  155 1    
    67   33  156 1    
    68   33  157 1    
    69   33  158 1    
    70   34   35 am   BACKBONE|DICT|INTERRES
    71   34  159 1    
    72   35   36 2    
    73   35   37 1    
    74   37   38 1    
    75   37   39 1    
    76   37  160 1    
    77   38  161 1    
    78   38  162 1    
    79   38  163 1    
    80   39   40 am   BACKBONE|DICT|INTERRES
    81   39  164 1    
    82   40   41 2    
    83   40   42 1    
    84   42   43 1    
    85   42   44 1    
    86   42  165 1    
    87   43  166 1    
    88   43  167 1    
    89   43  168 1    
    90   44   45 am   BACKBONE|DICT|INTERRES
    91   44  169 1    
    92   45   46 2    
    93   45   47 1    
    94   47   48 1    
    95   47   49 1    
    96   47  170 1    
    97   48  171 1    
    98   48  172 1    
    99   48  173 1    
   100   49   50 am   BACKBONE|DICT|INTERRES
   101   49  174 1    
   102   50   51 2    
   103   50   52 1    
   104   52   53 1    
   105   52   54 1    
   106   52  175 1    
   107   53  176 1    
   108   53  177 1    
   109   53  178 1    
   110   54   55 am   BACKBONE|DICT|INTERRES
   111   54  179 1    
   112   55   56 2    
   113   55   57 1    
   114   57   58 1    
   115   57   59 1    
   116   57  180 1    
   117   58  181 1    
   118   58  182 1    
   119   58  183 1    
   120   59   60 am   BACKBONE|DICT|INTERRES
   121   59  184 1    
   122   60   61 2    
   123   60   62 1    
   124   62   63 1    
   125   62   64 1    
   126   62  185 1    
   127   63  186 1    
   128   63  187 1    
   129   63  188 1    
   130   64   65 am   BACKBONE|DICT|INTERRES
   131   64  189 1    
   132   65   66 2    
   133   67   68 2    
   134   67   69 am   BACKBONE|DICT|INTERRES
   135   69   70 1    
   136   69  190 1    
   137   70   71 1    
   138   70   72 1    
   139   70  191 1    
   140   71  192 1    
   141   71  193 1    
   142   71  194 1    
   143   72   73 2    
   144   72   74 am   BACKBONE|DICT|INTERRES
   145   74   75 1    
   146   74  195 1    
   147   75   76 1    
   148   75   77 1    
   149   75  196 1    
   150   76  197 1    
   151   76  198 1    
   152   76  199 1    
   153   77   78 2    
   154   77   79 am   BACKBONE|DICT|INTERRES
   155   79   80 1    
   156   79  200 1    
   157   80   81 1    
   158   80   82 1    
   159   80  201 1    
   160   81  202 1    
   161   81  203 1    
   162   81  204 1    
   163   82   83 2    
   164   82   84 am   BACKBONE|DICT|INTERRES
   165   84   85 1    
   166   84  205 1    
   167   85   86 1    
   168   85   87 1    
   169   85  206 1    
   170   86  207 1    
   171   86  208 1    
   172   86  209 1    
   173   87   88 2    
   174   87   89 am   BACKBONE|DICT|INTERRES
   175   89   90 1    
   176   89  210 1    
   177   90   91 1    
   178   90   92 1    
   179   90  211 1    
   180   91  212 1    
   181   91  213 1    
   182   91  214 1    
   183   92   93 2    
   184   92   94 am   BACKBONE|DICT|INTERRES
   185   94   95 1    
   186   94  215 1    
   187   95   96 1    
   188   95   97 1    
   189   95  216 1    
   190   96  217 1    
   191   96  218 1    
   192   96  219 1    
   193   97   98 2    
   194   97   99 am   BACKBONE|DICT|INTERRES
   195   99  100 1    
   196   99  220 1    
   197  100  101 1    
   198  100  102 1    
   199  100  221 1    
   200  101  222 1    
   201  101  223 1    
   202  101  224 1    
   203  102  103 2    
   204  102  104 am   BACKBONE|DICT|INTERRES
   205  104  105 1    
   206  104  225 1    
   207  105  106 1    
   208  105  107 1    
   209  105  226 1    
   210  106  227 1    
   211  106  228 1    
   212  106  229 1    
   213  107  108 2    
   214  107  109 am   BACKBONE|DICT|INTERRES
   215  109  110 1    
   216  109  230 1    
   217  110  111 1    
   218  110  112 1    
   219  110  231 1    
   220  111  232 1    
   221  111  233 1    
   222  111  234 1    
   223  112  113 2    
   224  112  114 am   BACKBONE|DICT|INTERRES
   225  114  115 1    
   226  114  235 1    
   227  115  116 1    
   228  115  117 1    
   229  115  236 1    
   230  116  237 1    
   231  116  238 1    
   232  116  239 1    
   233  117  118 2    
   234  117  119 am   BACKBONE|DICT|INTERRES
   235  119  120 1    
   236  119  240 1    
   237  120  121 1    
   238  120  124 1    
   239  120  241 1    
   240  121  122 am   BACKBONE|DICT|INTERRES
   241  121  123 2    
   242  122  242 1    
   243  122  243 1    
   244  124  125 1    
   245  124  244 1    
   246  124  245 1    
   247  125  126 1    
   248  126  246 1    
   249  126  247 1    
@<TRIPOS>SUBSTRUCTURE
     1 UNK         1 GROUP             0       ****    0 ROOT    
