@<TRIPOS>MOLECULE
3R540
247   249    1
SMALL
USER_CHARGES


@<TRIPOS>ATOM
      1 CA          4.6376  -16.6221  -46.3512 C.3       0 UNK        -0.1800 
      2 C           5.2717  -16.0602  -47.6197 C.2       0 UNK         0.5000 
      3 O           6.2565  -16.6163  -48.1001 O.2       0 UNK        -0.5000 
      4 N           4.7625  -14.9603  -48.1904 N.am      1 UNK        -0.5000 
      5 CA          3.5956  -14.1806  -47.7487 C.3       1 UNK         0.1400 
      6 C6          2.6668  -13.7906  -48.9326 C.3       23 UNK        -0.0398 
      7 S7          2.2254  -15.1545  -50.0694 S.3       23 UNK        -0.2404 
      8 C8          1.1433  -16.1984  -49.0390 C.3       23 UNK        -0.0205 
      9 C9          0.0593  -16.9128  -49.8412 C.ar      23 UNK        -0.0193 
     10 C10         0.3724  -17.6432  -50.9934 C.ar      23 UNK        -0.1150 
     11 C11        -0.6337  -18.2704  -51.7353 C.ar      23 UNK        -0.0193 
     12 C12        -1.9608  -18.1901  -51.3023 C.ar      23 UNK        -0.1150 
     13 C13        -2.2861  -17.4852  -50.1407 C.ar      23 UNK        -0.0193 
     14 C14        -1.2724  -16.8469  -49.4188 C.ar      23 UNK        -0.1150 
     15 C15        -3.7356  -17.3867  -49.6807 C.3       23 UNK        -0.0205 
     16 S16        -4.3525  -18.9339  -48.9396 S.3       23 UNK        -0.2404 
     17 C17        -3.2178  -19.1665  -47.5308 C.3       23 UNK        -0.0398 
     18 CA         -2.2860  -20.3841  -47.7470 C.3       11 UNK         0.1400 
     19 N          -0.9935  -20.2404  -47.0780 N.am      11 UNK        -0.5000 
     20 C           0.0378  -21.0822  -47.2362 C.2       10 UNK         0.5000 
     21 O           0.0186  -22.0562  -47.9885 O.2       10 UNK        -0.5000 
     22 CA          1.2828  -20.8291  -46.3717 C.3       10 UNK         0.1400 
     23 CB          2.1461  -19.7129  -46.9772 C.3       10 UNK        -0.1800 
     24 N           0.9472  -20.5034  -44.9856 N.am      10 UNK        -0.5000 
     25 C           0.3013  -21.3218  -44.1427 C.2       9 UNK         0.5000 
     26 O          -0.0519  -22.4642  -44.4339 O.2       9 UNK        -0.5000 
     27 CA         -0.0564  -20.7530  -42.7582 C.3       9 UNK         0.1400 
     28 CB          1.1710  -20.7359  -41.8351 C.3       9 UNK        -0.1800 
     29 N          -0.6385  -19.4128  -42.8334 N.am      9 UNK        -0.5000 
     30 C          -1.7930  -19.1207  -43.4508 C.2       8 UNK         0.5000 
     31 O          -2.5115  -19.9573  -44.0000 O.2       8 UNK        -0.5000 
     32 CA         -2.1853  -17.6337  -43.5100 C.3       8 UNK         0.1400 
     33 CB         -2.7636  -17.1640  -42.1669 C.3       8 UNK        -0.1800 
     34 N          -1.0668  -16.7723  -43.8940 N.am      8 UNK        -0.5000 
     35 C          -0.4180  -16.8531  -45.0642 C.2       7 UNK         0.5000 
     36 O          -0.7124  -17.6395  -45.9609 O.2       7 UNK        -0.5000 
     37 CA          0.7983  -15.9377  -45.2511 C.3       7 UNK         0.1400 
     38 CB          0.3535  -14.4977  -45.5531 C.3       7 UNK        -0.1800 
     39 N           1.6914  -15.9545  -44.0970 N.am      7 UNK        -0.5000 
     40 C           2.3284  -17.0339  -43.6226 C.2       6 UNK         0.5000 
     41 O           2.2762  -18.1454  -44.1440 O.2       6 UNK        -0.5000 
     42 CA          3.1231  -16.8476  -42.3206 C.3       6 UNK         0.1400 
     43 CB          4.4996  -16.2231  -42.5961 C.3       6 UNK        -0.1800 
     44 N           2.3941  -16.0289  -41.3537 N.am      6 UNK        -0.5000 
     45 C           1.2629  -16.4067  -40.7415 C.2       5 UNK         0.5000 
     46 O           0.7281  -17.5048  -40.9005 O.2       5 UNK        -0.5000 
     47 CA          0.5996  -15.3576  -39.8319 C.3       5 UNK         0.1400 
     48 CB          1.2721  -15.3302  -38.4512 C.3       5 UNK        -0.1800 
     49 N           0.6320  -14.0157  -40.4177 N.am      5 UNK        -0.5000 
     50 C          -0.0619  -13.6575  -41.5067 C.2       4 UNK         0.5000 
     51 O          -0.8150  -14.4164  -42.1172 O.2       4 UNK        -0.5000 
     52 CA          0.1539  -12.2227  -42.0234 C.3       4 UNK         0.1400 
     53 CB         -0.7126  -11.2287  -41.2356 C.3       4 UNK        -0.1800 
     54 N           1.5528  -11.7795  -41.9959 N.am      4 UNK        -0.5000 
     55 C           2.5509  -12.3720  -42.6636 C.2       3 UNK         0.5000 
     56 O           2.4248  -13.4232  -43.2924 O.2       3 UNK        -0.5000 
     57 CA          3.9269  -11.7023  -42.6107 C.3       3 UNK         0.1400 
     58 CB          4.7297  -12.1972  -41.3969 C.3       3 UNK        -0.1800 
     59 N           4.6384  -12.0471  -43.8384 N.am      3 UNK        -0.5000 
     60 C           5.3881  -11.2109  -44.5616 C.2       2 UNK         0.5000 
     61 O           5.6380  -10.0541  -44.2191 O.2       2 UNK        -0.5000 
     62 CA          5.9709  -11.7396  -45.8895 C.3       2 UNK         0.1400 
     63 CB          7.4560  -12.0930  -45.7112 C.3       2 UNK        -0.1800 
     64 N           5.2877  -12.8972  -46.4808 N.am      2 UNK        -0.5000 
     65 C           4.0298  -12.9244  -46.9488 C.2       1 UNK         0.5000 
     66 O           3.2378  -11.9938  -46.8009 O.2       1 UNK        -0.5000 
     67 C          -2.9884  -21.6976  -47.3540 C.2       11 UNK         0.5000 
     68 O          -3.4590  -22.4195  -48.2313 O.2       11 UNK        -0.5000 
     69 N          -3.0228  -22.0067  -46.0512 N.am      12 UNK        -0.5000 
     70 CA         -3.5922  -23.2444  -45.5204 C.3       12 UNK         0.1400 
     71 CB         -3.6241  -23.1775  -43.9863 C.3       12 UNK        -0.1800 
     72 C          -2.8456  -24.5025  -46.0026 C.2       12 UNK         0.5000 
     73 O          -3.4909  -25.4751  -46.3946 O.2       12 UNK        -0.5000 
     74 N          -1.5077  -24.4548  -45.9702 N.am      13 UNK        -0.5000 
     75 CA         -0.6331  -25.5679  -46.3264 C.3       13 UNK         0.1400 
     76 CB          0.7681  -25.3249  -45.7417 C.3       13 UNK        -0.1800 
     77 C          -0.5548  -25.8247  -47.8410 C.2       13 UNK         0.5000 
     78 O          -0.8258  -26.9437  -48.2785 O.2       13 UNK        -0.5000 
     79 N          -0.1418  -24.8078  -48.6082 N.am      14 UNK        -0.5000 
     80 CA          0.2262  -24.9539  -50.0168 C.3       14 UNK         0.1400 
     81 CB          1.3946  -24.0081  -50.3390 C.3       14 UNK        -0.1800 
     82 C          -0.9491  -24.6908  -50.9669 C.2       14 UNK         0.5000 
     83 O          -1.0847  -25.4005  -51.9640 O.2       14 UNK        -0.5000 
     84 N          -1.7696  -23.6794  -50.6543 N.am      15 UNK        -0.5000 
     85 CA         -2.8786  -23.2374  -51.5052 C.3       15 UNK         0.1400 
     86 CB         -2.9681  -21.7045  -51.4625 C.3       15 UNK        -0.1800 
     87 C          -4.2240  -23.8769  -51.1197 C.2       15 UNK         0.5000 
     88 O          -5.2404  -23.5401  -51.7287 O.2       15 UNK        -0.5000 
     89 N          -4.2224  -24.7542  -50.1045 N.am      16 UNK        -0.5000 
     90 CA         -5.3771  -25.4674  -49.5491 C.3       16 UNK         0.1400 
     91 CB         -5.8821  -26.5223  -50.5557 C.3       16 UNK        -0.1800 
     92 C          -6.4886  -24.5153  -49.0546 C.2       16 UNK         0.5000 
     93 O          -7.6695  -24.7588  -49.3031 O.2       16 UNK        -0.5000 
     94 N          -6.0760  -23.4212  -48.3976 N.am      17 UNK        -0.5000 
     95 CA         -6.8999  -22.3020  -47.9271 C.3       17 UNK         0.1400 
     96 CB         -7.8907  -22.7546  -46.8348 C.3       17 UNK        -0.1800 
     97 C          -7.5662  -21.5451  -49.0952 C.2       17 UNK         0.5000 
     98 O          -8.7463  -21.1989  -49.0266 O.2       17 UNK        -0.5000 
     99 N          -6.7737  -21.3241  -50.1536 N.am      18 UNK        -0.5000 
    100 CA        -7.1035  -20.6536  -51.4153 C.3       18 UNK         0.1400 
    101 CB        -7.5789  -19.2038  -51.1843 C.3       18 UNK        -0.1800 
    102 C         -8.0559  -21.4500  -52.3317 C.2       18 UNK         0.5000 
    103 O         -8.5525  -20.8926  -53.3116 O.2       18 UNK        -0.5000 
    104 N         -8.2616  -22.7451  -52.0504 N.am      19 UNK        -0.5000 
    105 CA        -8.9734  -23.6704  -52.9372 C.3       19 UNK         0.1400 
    106 CB        -9.3654  -24.9330  -52.1572 C.3       19 UNK        -0.1800 
    107 C         -8.1429  -24.0342  -54.1850 C.2       19 UNK         0.5000 
    108 O         -8.7174  -24.3299  -55.2333 O.2       19 UNK        -0.5000 
    109 N         -6.8129  -23.9748  -54.0540 N.am      20 UNK        -0.5000 
    110 CA        -5.8275  -24.1408  -55.1148 C.3       20 UNK         0.1400 
    111 CB        -5.0916  -25.4776  -54.9074 C.3       20 UNK        -0.1800 
    112 C         -4.8882  -22.9219  -55.0859 C.2       20 UNK         0.5000 
    113 O         -3.6744  -23.0753  -54.9414 O.2       20 UNK        -0.5000 
    114 N         -5.4837  -21.7227  -55.1698 N.am      21 UNK        -0.5000 
    115 CA        -4.8065  -20.4250  -55.1165 C.3       21 UNK         0.1400 
    116 CB        -5.8525  -19.3052  -55.2226 C.3       21 UNK        -0.1800 
    117 C         -3.7216  -20.2519  -56.1972 C.2       21 UNK         0.5000 
    118 O         -3.9309  -20.6362  -57.3508 O.2       21 UNK        -0.5000 
    119 N         -2.5931  -19.6612  -55.7935 N.am      22 UNK        -0.5000 
    120 CA        -1.4609  -19.3057  -56.6583 C.3       22 UNK         0.1400 
    121 C         -1.7582  -18.1004  -57.5979 C.2       22 UNK         0.5000 
    122 N         -1.0196  -17.9672  -58.6917 N.am      22 UNK        -0.7600 
    123 O         -2.6319  -17.2741  -57.3412 O.2       22 UNK        -0.5000 
    124 C124       -0.1626  -19.1013  -55.8296 C.3       23 UNK        -0.0398 
    125 S125       -0.3259  -17.9071  -54.4524 S.3       23 UNK        -0.2404 
    126 C126       -0.2900  -19.0201  -53.0128 C.3       23 UNK        -0.0205 
    127 H127        4.5101  -15.8454  -45.5981 H         1 UNK         0.0600 
    128 H128        5.2651  -17.4021  -45.9196 H         1 UNK         0.0600 
    129 H129        3.6664  -17.0620  -46.5747 H         1 UNK         0.0600 
    130 H130        5.2049  -14.6137  -49.0302 H         1 UNK         0.3000 
    131 H131        2.9916  -14.7771  -47.0672 H         1 UNK         0.0600 
    132 H132        1.7409  -13.3478  -48.5606 H         1 UNK         0.0800 
    133 H133        3.1411  -13.0177  -49.5402 H         1 UNK         0.0800 
    134 H134        0.6812  -15.5743  -48.2760 H         1 UNK         0.0800 
    135 H135        1.7526  -16.9376  -48.5192 H         1 UNK         0.0800 
    136 H136        1.3987  -17.7025  -51.3276 H         1 UNK         0.1150 
    137 H137       -2.7443  -18.6710  -51.8706 H         1 UNK         0.1150 
    138 H138       -1.5227  -16.2952  -48.5234 H         1 UNK         0.1150 
    139 H139       -3.8574  -16.5745  -48.9624 H         1 UNK         0.0800 
    140 H140       -4.3659  -17.1325  -50.5340 H         1 UNK         0.0800 
    141 H141       -3.7947  -19.2522  -46.6081 H         1 UNK         0.0800 
    142 H142       -2.6362  -18.2552  -47.4178 H         1 UNK         0.0800 
    143 H143       -2.0487  -20.4452  -48.8109 H         1 UNK         0.0600 
    144 H144       -0.8794  -19.4274  -46.4772 H         1 UNK         0.3000 
    145 H145        1.8719  -21.7483  -46.3638 H         1 UNK         0.0600 
    146 H146        3.0861  -19.6059  -46.4357 H         1 UNK         0.0600 
    147 H147        2.3913  -19.9251  -48.0187 H         1 UNK         0.0600 
    148 H148        1.6325  -18.7524  -46.9480 H         1 UNK         0.0600 
    149 H149        1.2421  -19.5875  -44.6539 H         1 UNK         0.3000 
    150 H150       -0.8039  -21.4133  -42.3136 H         1 UNK         0.0600 
    151 H151        1.6094  -21.7309  -41.7500 H         1 UNK         0.0600 
    152 H152        0.9025  -20.4110  -40.8298 H         1 UNK         0.0600 
    153 H153        1.9465  -20.0654  -42.2057 H         1 UNK         0.0600 
    154 H154       -0.1178  -18.6652  -42.3867 H         1 UNK         0.3000 
    155 H155       -2.9619  -17.5270  -44.2702 H         1 UNK         0.0600 
    156 H156       -2.0190  -17.2023  -41.3712 H         1 UNK         0.0600 
    157 H157       -3.6042  -17.7888  -41.8628 H         1 UNK         0.0600 
    158 H158       -3.1272  -16.1384  -42.2331 H         1 UNK         0.0600 
    159 H159       -0.7838  -16.0652  -43.2220 H         1 UNK         0.3000 
    160 H160        1.3640  -16.3136  -46.1034 H         1 UNK         0.0600 
    161 H161       -0.1976  -14.0648  -44.7191 H         1 UNK         0.0600 
    162 H162       -0.3006  -14.4606  -46.4245 H         1 UNK         0.0600 
    163 H163        1.2047  -13.8487  -45.7544 H         1 UNK         0.0600 
    164 H164        1.8406  -15.0597  -43.6336 H         1 UNK         0.3000 
    165 H165        3.2797  -17.8344  -41.8796 H         1 UNK         0.0600 
    166 H166        5.0744  -16.1145  -41.6764 H         1 UNK         0.0600 
    167 H167        5.0828  -16.8528  -43.2689 H         1 UNK         0.0600 
    168 H168        4.4165  -15.2390  -43.0572 H         1 UNK         0.0600 
    169 H169        2.7337  -15.0912  -41.2035 H         1 UNK         0.3000 
    170 H170       -0.4449  -15.6470  -39.6967 H         1 UNK         0.0600 
    171 H171        1.2495  -16.3172  -37.9873 H         1 UNK         0.0600 
    172 H172        2.3162  -15.0210  -38.5151 H         1 UNK         0.0600 
    173 H173        0.7594  -14.6438  -37.7771 H         1 UNK         0.0600 
    174 H174        1.2310  -13.3329  -39.9776 H         1 UNK         0.3000 
    175 H175       -0.1736  -12.2010  -43.0648 H         1 UNK         0.0600 
    176 H176       -0.4069  -11.1662  -40.1906 H         1 UNK         0.0600 
    177 H177       -0.6531  -10.2278  -41.6637 H         1 UNK         0.0600 
    178 H178       -1.7622  -11.5257  -41.2536 H         1 UNK         0.0600 
    179 H179        1.7424  -10.9281  -41.4871 H         1 UNK         0.3000 
    180 H180        3.7827  -10.6221  -42.5415 H         1 UNK         0.0600 
    181 H181        4.8810  -13.2769  -41.4255 H         1 UNK         0.0600 
    182 H182        4.2173  -11.9600  -40.4638 H         1 UNK         0.0600 
    183 H183        5.7112  -11.7244  -41.3575 H         1 UNK         0.0600 
    184 H184        4.4059  -12.9540  -44.2193 H         1 UNK         0.3000 
    185 H185        5.9030  -10.9219  -46.6099 H         1 UNK         0.0600 
    186 H186        8.0157  -11.2480  -45.3076 H         1 UNK         0.0600 
    187 H187        7.5889  -12.9315  -45.0262 H         1 UNK         0.0600 
    188 H188        7.9169  -12.3588  -46.6627 H         1 UNK         0.0600 
    189 H189        5.8688  -13.7019  -46.6649 H         1 UNK         0.3000 
    190 H190       -2.6370  -21.3534  -45.3748 H         1 UNK         0.3000 
    191 H191       -4.6229  -23.3158  -45.8725 H         1 UNK         0.0600 
    192 H192       -2.6241  -23.0649  -43.5663 H         1 UNK         0.0600 
    193 H193       -4.0592  -24.0841  -43.5639 H         1 UNK         0.0600 
    194 H194       -4.2260  -22.3362  -43.6422 H         1 UNK         0.0600 
    195 H195       -1.0553  -23.6239  -45.5977 H         1 UNK         0.3000 
    196 H196       -1.0303  -26.4721  -45.8598 H         1 UNK         0.0600 
    197 H197        1.4453  -26.1423  -45.9926 H         1 UNK         0.0600 
    198 H198        0.7325  -25.2544  -44.6544 H         1 UNK         0.0600 
    199 H199        1.2104  -24.4022  -46.1196 H         1 UNK         0.0600 
    200 H200       -0.0015  -23.8866  -48.1982 H         1 UNK         0.3000 
    201 H201        0.5759  -25.9732  -50.1958 H         1 UNK         0.0600 
    202 H202        2.2447  -24.1930  -49.6822 H         1 UNK         0.0600 
    203 H203        1.1117  -22.9603  -50.2341 H         1 UNK         0.0600 
    204 H204        1.7385  -24.1509  -51.3642 H         1 UNK         0.0600 
    205 H205       -1.6172  -23.1642  -49.7970 H         1 UNK         0.3000 
    206 H206       -2.6756  -23.5220  -52.5387 H         1 UNK         0.0600 
    207 H207       -1.9897  -21.2470  -51.5992 H         1 UNK         0.0600 
    208 H208       -3.6178  -21.3382  -52.2546 H         1 UNK         0.0600 
    209 H209       -3.3801  -21.3413  -50.5242 H         1 UNK         0.0600 
    210 H210       -3.3405  -24.9154  -49.6396 H         1 UNK         0.3000 
    211 H211       -5.0198  -25.9984  -48.6660 H         1 UNK         0.0600 
    212 H212       -6.2345  -26.0654  -51.4803 H         1 UNK         0.0600 
    213 H213       -6.7055  -27.1039  -50.1396 H         1 UNK         0.0600 
    214 H214       -5.0900  -27.2245  -50.8153 H         1 UNK         0.0600 
    215 H215       -5.0712  -23.2760  -48.3133 H         1 UNK         0.3000 
    216 H216       -6.2111  -21.5929  -47.4654 H         1 UNK         0.0600 
    217 H217       -8.4001  -21.8973  -46.3934 H         1 UNK         0.0600 
    218 H218       -7.3759  -23.2763  -46.0280 H         1 UNK         0.0600 
    219 H219       -8.6582  -23.4204  -47.2299 H         1 UNK         0.0600 
    220 H220       -5.8386  -21.7043  -50.1110 H         1 UNK         0.3000 
    221 H221       -6.1610  -20.5971  -51.9617 H         1 UNK         0.0600 
    222 H222       -8.5650  -19.1682  -50.7213 H         1 UNK         0.0600 
    223 H223       -6.8878  -18.6559  -50.5449 H         1 UNK         0.0600 
    224 H224       -7.6444  -18.6587  -52.1263 H         1 UNK         0.0600 
    225 H225       -7.8110  -23.1438  -51.2375 H         1 UNK         0.3000 
    226 H226       -9.8911  -23.1860  -53.2771 H         1 UNK         0.0600 
    227 H227       -9.9624  -24.6860  -51.2791 H         1 UNK         0.0600 
    228 H228       -9.9594  -25.6052  -52.7775 H         1 UNK         0.0600 
    229 H229       -8.4899  -25.4872  -51.8211 H         1 UNK         0.0600 
    230 H230       -6.4206  -23.7220  -53.1484 H         1 UNK         0.3000 
    231 H231       -6.3088  -24.1552  -56.0946 H         1 UNK         0.0600 
    232 H232       -5.7860  -26.3171  -54.9426 H         1 UNK         0.0600 
    233 H233       -4.5790  -25.5091  -53.9449 H         1 UNK         0.0600 
    234 H234       -4.3453  -25.6389  -55.6859 H         1 UNK         0.0600 
    235 H235       -6.4865  -21.6966  -55.2845 H         1 UNK         0.3000 
    236 H236       -4.3320  -20.3468  -54.1385 H         1 UNK         0.0600 
    237 H237       -6.4099  -19.3643  -56.1582 H         1 UNK         0.0600 
    238 H238       -6.5674  -19.3499  -54.4018 H         1 UNK         0.0600 
    239 H239       -5.3794  -18.3229  -55.1845 H         1 UNK         0.0600 
    240 H240       -2.5267  -19.3199  -54.8468 H         1 UNK         0.3000 
    241 H241       -1.2880  -20.1627  -57.3127 H         1 UNK         0.0600 
    242 H242       -1.1942  -17.1869  -59.3064 H         1 UNK         0.3800 
    243 H243       -0.2969  -18.6291  -58.9301 H         1 UNK         0.3800 
    244 H244        0.6569  -18.7738  -56.4713 H         1 UNK         0.0800 
    245 H245        0.1594  -20.0632  -55.4284 H         1 UNK         0.0800 
    246 H246        0.6986  -19.4740  -52.9278 H         1 UNK         0.0800 
    247 H247       -0.9933  -19.8384  -53.1682 H         1 UNK         0.0800 
@<TRIPOS>BOND
     1    1    2 1    
     2    1  127 1    
     3    1  128 1    
     4    1  129 1    
     5    2    3 2    
     6    2    4 am   BACKBONE|DICT|INTERRES
     7    4    5 1    
     8    4  130 1    
     9    5    6 1    
    10    5   65 1    
    11    5  131 1    
    12    6    7 1    
    13    6  132 1    
    14    6  133 1    
    15    7    8 1    
    16    8    9 1    
    17    8  134 1    
    18    8  135 1    
    19    9   10 ar   
    20    9   14 ar   
    21   10   11 ar   
    22   10  136 1    
    23   11   12 ar   
    24   11  126 1    
    25   12   13 ar   
    26   12  137 1    
    27   13   14 ar   
    28   13   15 1    
    29   14  138 1    
    30   15   16 1    
    31   15  139 1    
    32   15  140 1    
    33   16   17 1    
    34   17   18 1    
    35   17  141 1    
    36   17  142 1    
    37   18   19 1    
    38   18   67 1    
    39   18  143 1    
    40   19   20 am   BACKBONE|DICT|INTERRES
    41   19  144 1    
    42   20   21 2    
    43   20   22 1    
    44   22   23 1    
    45   22   24 1    
    46   22  145 1    
    47   23  146 1    
    48   23  147 1    
    49   23  148 1    
    50   24   25 am   BACKBONE|DICT|INTERRES
    51   24  149 1    
    52   25   26 2    
    53   25   27 1    
    54   27   28 1    
    55   27   29 1    
    56   27  150 1    
    57   28  151 1    
    58   28  152 1    
    59   28  153 1    
    60   29   30 am   BACKBONE|DICT|INTERRES
    61   29  154 1    
    62   30   31 2    
    63   30   32 1    
    64   32   33 1    
    65   32   34 1    
    66   32  155 1    
    67   33  156 1    
    68   33  157 1    
    69   33  158 1    
    70   34   35 am   BACKBONE|DICT|INTERRES
    71   34  159 1    
    72   35   36 2    
    73   35   37 1    
    74   37   38 1    
    75   37   39 1    
    76   37  160 1    
    77   38  161 1    
    78   38  162 1    
    79   38  163 1    
    80   39   40 am   BACKBONE|DICT|INTERRES
    81   39  164 1    
    82   40   41 2    
    83   40   42 1    
    84   42   43 1    
    85   42   44 1    
    86   42  165 1    
    87   43  166 1    
    88   43  167 1    
    89   43  168 1    
    90   44   45 am   BACKBONE|DICT|INTERRES
    91   44  169 1    
    92   45   46 2    
    93   45   47 1    
    94   47   48 1    
    95   47   49 1    
    96   47  170 1    
    97   48  171 1    
    98   48  172 1    
    99   48  173 1    
   100   49   50 am   BACKBONE|DICT|INTERRES
   101   49  174 1    
   102   50   51 2    
   103   50   52 1    
   104   52   53 1    
   105   52   54 1    
   106   52  175 1    
   107   53  176 1    
   108   53  177 1    
   109   53  178 1    
   110   54   55 am   BACKBONE|DICT|INTERRES
   111   54  179 1    
   112   55   56 2    
   113   55   57 1    
   114   57   58 1    
   115   57   59 1    
   116   57  180 1    
   117   58  181 1    
   118   58  182 1    
   119   58  183 1    
   120   59   60 am   BACKBONE|DICT|INTERRES
   121   59  184 1    
   122   60   61 2    
   123   60   62 1    
   124   62   63 1    
   125   62   64 1    
   126   62  185 1    
   127   63  186 1    
   128   63  187 1    
   129   63  188 1    
   130   64   65 am   BACKBONE|DICT|INTERRES
   131   64  189 1    
   132   65   66 2    
   133   67   68 2    
   134   67   69 am   BACKBONE|DICT|INTERRES
   135   69   70 1    
   136   69  190 1    
   137   70   71 1    
   138   70   72 1    
   139   70  191 1    
   140   71  192 1    
   141   71  193 1    
   142   71  194 1    
   143   72   73 2    
   144   72   74 am   BACKBONE|DICT|INTERRES
   145   74   75 1    
   146   74  195 1    
   147   75   76 1    
   148   75   77 1    
   149   75  196 1    
   150   76  197 1    
   151   76  198 1    
   152   76  199 1    
   153   77   78 2    
   154   77   79 am   BACKBONE|DICT|INTERRES
   155   79   80 1    
   156   79  200 1    
   157   80   81 1    
   158   80   82 1    
   159   80  201 1    
   160   81  202 1    
   161   81  203 1    
   162   81  204 1    
   163   82   83 2    
   164   82   84 am   BACKBONE|DICT|INTERRES
   165   84   85 1    
   166   84  205 1    
   167   85   86 1    
   168   85   87 1    
   169   85  206 1    
   170   86  207 1    
   171   86  208 1    
   172   86  209 1    
   173   87   88 2    
   174   87   89 am   BACKBONE|DICT|INTERRES
   175   89   90 1    
   176   89  210 1    
   177   90   91 1    
   178   90   92 1    
   179   90  211 1    
   180   91  212 1    
   181   91  213 1    
   182   91  214 1    
   183   92   93 2    
   184   92   94 am   BACKBONE|DICT|INTERRES
   185   94   95 1    
   186   94  215 1    
   187   95   96 1    
   188   95   97 1    
   189   95  216 1    
   190   96  217 1    
   191   96  218 1    
   192   96  219 1    
   193   97   98 2    
   194   97   99 am   BACKBONE|DICT|INTERRES
   195   99  100 1    
   196   99  220 1    
   197  100  101 1    
   198  100  102 1    
   199  100  221 1    
   200  101  222 1    
   201  101  223 1    
   202  101  224 1    
   203  102  103 2    
   204  102  104 am   BACKBONE|DICT|INTERRES
   205  104  105 1    
   206  104  225 1    
   207  105  106 1    
   208  105  107 1    
   209  105  226 1    
   210  106  227 1    
   211  106  228 1    
   212  106  229 1    
   213  107  108 2    
   214  107  109 am   BACKBONE|DICT|INTERRES
   215  109  110 1    
   216  109  230 1    
   217  110  111 1    
   218  110  112 1    
   219  110  231 1    
   220  111  232 1    
   221  111  233 1    
   222  111  234 1    
   223  112  113 2    
   224  112  114 am   BACKBONE|DICT|INTERRES
   225  114  115 1    
   226  114  235 1    
   227  115  116 1    
   228  115  117 1    
   229  115  236 1    
   230  116  237 1    
   231  116  238 1    
   232  116  239 1    
   233  117  118 2    
   234  117  119 am   BACKBONE|DICT|INTERRES
   235  119  120 1    
   236  119  240 1    
   237  120  121 1    
   238  120  124 1    
   239  120  241 1    
   240  121  122 am   BACKBONE|DICT|INTERRES
   241  121  123 2    
   242  122  242 1    
   243  122  243 1    
   244  124  125 1    
   245  124  244 1    
   246  124  245 1    
   247  125  126 1    
   248  126  246 1    
   249  126  247 1    
@<TRIPOS>SUBSTRUCTURE
     1 UNK         1 GROUP             0       ****    0 ROOT    
