@<TRIPOS>MOLECULE
3R540
247   249    1
SMALL
USER_CHARGES


@<TRIPOS>ATOM
      1 CA          2.5369  -11.4874  -49.0101 C.3       0 UNK        -0.1800 
      2 C           3.2426  -12.3145  -47.9465 C.2       0 UNK         0.5000 
      3 O           2.6107  -12.7246  -46.9746 O.2       0 UNK        -0.5000 
      4 N           4.5462  -12.5642  -48.1247 N.am      1 UNK        -0.5000 
      5 CA          5.4167  -13.3362  -47.2273 C.3       1 UNK         0.1400 
      6 C6          5.0646  -14.8517  -47.1622 C.3       23 UNK        -0.0398 
      7 S7          5.0212  -15.6591  -48.7990 S.3       23 UNK        -0.2404 
      8 C8          3.2387  -15.9908  -48.9508 C.3       23 UNK        -0.0205 
      9 C9          2.9146  -16.7627  -50.2166 C.ar      23 UNK        -0.0193 
     10 C10         2.6011  -16.0848  -51.3983 C.ar      23 UNK        -0.1150 
     11 C11         2.2882  -16.7963  -52.5603 C.ar      23 UNK        -0.0193 
     12 C12         2.3122  -18.1935  -52.5374 C.ar      23 UNK        -0.1150 
     13 C13         2.6020  -18.8809  -51.3561 C.ar      23 UNK        -0.0193 
     14 C14         2.9049  -18.1599  -50.1982 C.ar      23 UNK        -0.1150 
     15 C15         2.5769  -20.4000  -51.3313 C.3       23 UNK        -0.0205 
     16 S16         0.8838  -21.0288  -51.5520 S.3       23 UNK        -0.2404 
     17 C17         1.0824  -22.7702  -51.0386 C.3       23 UNK        -0.0398 
     18 CA          0.3612  -23.1136  -49.7113 C.3       11 UNK         0.1400 
     19 N           0.6606  -22.1598  -48.6389 N.am      11 UNK        -0.5000 
     20 C           0.4466  -22.3918  -47.3384 C.2       10 UNK         0.5000 
     21 O          -0.0305  -23.4390  -46.8999 O.2       10 UNK        -0.5000 
     22 CA          0.8069  -21.2492  -46.3703 C.3       10 UNK         0.1400 
     23 CB          2.3329  -21.1582  -46.2109 C.3       10 UNK        -0.1800 
     24 N           0.2758  -19.9345  -46.7514 N.am      10 UNK        -0.5000 
     25 C          -1.0157  -19.6588  -46.9960 C.2       9 UNK         0.5000 
     26 O          -1.8957  -20.5171  -47.0225 O.2       9 UNK        -0.5000 
     27 CA         -1.3924  -18.1860  -47.2321 C.3       9 UNK         0.1400 
     28 CB         -2.8688  -17.8867  -46.9135 C.3       9 UNK        -0.1800 
     29 N          -0.5528  -17.3057  -46.4274 N.am      9 UNK        -0.5000 
     30 C           0.0805  -16.2185  -46.8827 C.2       8 UNK         0.5000 
     31 O           0.0177  -15.8358  -48.0506 O.2       8 UNK        -0.5000 
     32 CA          0.9316  -15.4181  -45.8755 C.3       8 UNK         0.1400 
     33 CB          0.1728  -14.1596  -45.4324 C.3       8 UNK        -0.1800 
     34 N           1.3246  -16.1755  -44.6853 N.am      8 UNK        -0.5000 
     35 C           2.0901  -17.2781  -44.6844 C.2       7 UNK         0.5000 
     36 O           2.6535  -17.7105  -45.6889 O.2       7 UNK        -0.5000 
     37 CA          2.2021  -18.0675  -43.3616 C.3       7 UNK         0.1400 
     38 CB          3.5535  -17.7972  -42.6841 C.3       7 UNK        -0.1800 
     39 N           1.1277  -17.7924  -42.4053 N.am      7 UNK        -0.5000 
     40 C          -0.1861  -17.9585  -42.6217 C.2       6 UNK         0.5000 
     41 O          -0.6494  -18.4628  -43.6454 O.2       6 UNK        -0.5000 
     42 CA         -1.1428  -17.4029  -41.5457 C.3       6 UNK         0.1400 
     43 CB         -1.6693  -18.5417  -40.6597 C.3       6 UNK        -0.1800 
     44 N          -0.5555  -16.3611  -40.6902 N.am      6 UNK        -0.5000 
     45 C          -0.0611  -15.1889  -41.1147 C.2       5 UNK         0.5000 
     46 O          -0.0162  -14.8562  -42.3009 O.2       5 UNK        -0.5000 
     47 CA          0.5605  -14.2862  -40.0363 C.3       5 UNK         0.1400 
     48 CB          1.9570  -14.8013  -39.6529 C.3       5 UNK        -0.1800 
     49 N           0.6790  -12.9039  -40.4999 N.am      5 UNK        -0.5000 
     50 C          -0.2991  -11.9934  -40.4188 C.2       4 UNK         0.5000 
     51 O          -1.4066  -12.2207  -39.9289 O.2       4 UNK        -0.5000 
     52 CA          0.0159  -10.5844  -40.9503 C.3       4 UNK         0.1400 
     53 CB          0.6476   -9.7245  -39.8446 C.3       4 UNK        -0.1800 
     54 N           0.9103  -10.5982  -42.1075 N.am      4 UNK        -0.5000 
     55 C           0.5182  -10.7737  -43.3737 C.2       3 UNK         0.5000 
     56 O          -0.6491  -10.9900  -43.7003 O.2       3 UNK        -0.5000 
     57 CA          1.6000  -10.6615  -44.4670 C.3       3 UNK         0.1400 
     58 CB          2.0731   -9.2065  -44.6453 C.3       3 UNK        -0.1800 
     59 N           2.7384  -11.5745  -44.3126 N.am      3 UNK        -0.5000 
     60 C           3.6646  -11.6303  -43.3434 C.2       2 UNK         0.5000 
     61 O           3.6826  -10.8807  -42.3661 O.2       2 UNK        -0.5000 
     62 CA          4.7466  -12.7231  -43.4641 C.3       2 UNK         0.1400 
     63 CB          4.4304  -13.8791  -42.5049 C.3       2 UNK        -0.1800 
     64 N           4.8769  -13.2687  -44.8160 N.am      2 UNK        -0.5000 
     65 C           5.4865  -12.6537  -45.8397 C.2       1 UNK         0.5000 
     66 O           6.0678  -11.5722  -45.7325 O.2       1 UNK        -0.5000 
     67 C          -1.1552  -23.3108  -49.9091 C.2       11 UNK         0.5000 
     68 O          -1.5895  -24.4372  -50.1478 O.2       11 UNK        -0.5000 
     69 N          -1.9368  -22.2315  -49.7657 N.am      12 UNK        -0.5000 
     70 CA         -3.3964  -22.2639  -49.8329 C.3       12 UNK         0.1400 
     71 CB         -3.9418  -20.8347  -49.9326 C.3       12 UNK        -0.1800 
     72 C          -4.0096  -23.0139  -48.6405 C.2       12 UNK         0.5000 
     73 O          -4.9253  -23.8095  -48.8381 O.2       12 UNK        -0.5000 
     74 N          -3.4667  -22.7905  -47.4363 N.am      13 UNK        -0.5000 
     75 CA         -3.8326  -23.4940  -46.2080 C.3       13 UNK         0.1400 
     76 CB         -3.1320  -22.8403  -45.0073 C.3       13 UNK        -0.1800 
     77 C          -3.5178  -24.9981  -46.2806 C.2       13 UNK         0.5000 
     78 O          -4.3651  -25.8093  -45.9069 O.2       13 UNK        -0.5000 
     79 N          -2.3380  -25.3478  -46.8154 N.am      14 UNK        -0.5000 
     80 CA         -1.9209  -26.7289  -47.0777 C.3       14 UNK         0.1400 
     81 CB         -0.4515  -26.7451  -47.5242 C.3       14 UNK        -0.1800 
     82 C          -2.8140  -27.4429  -48.1126 C.2       14 UNK         0.5000 
     83 O          -3.0836  -28.6352  -47.9655 O.2       14 UNK        -0.5000 
     84 N          -3.2896  -26.6907  -49.1134 N.am      15 UNK        -0.5000 
     85 CA         -4.2478  -27.1342  -50.1266 C.3       15 UNK         0.1400 
     86 CB         -4.0797  -26.2566  -51.3777 C.3       15 UNK        -0.1800 
     87 C          -5.7150  -27.1091  -49.6468 C.2       15 UNK         0.5000 
     88 O          -6.5999  -27.4419  -50.4349 O.2       15 UNK        -0.5000 
     89 N          -5.9675  -26.6813  -48.3992 N.am      16 UNK        -0.5000 
     90 CA         -7.2833  -26.5085  -47.7686 C.3       16 UNK         0.1400 
     91 CB         -7.9401  -27.8799  -47.5085 C.3       16 UNK        -0.1800 
     92 C          -8.2050  -25.5364  -48.5406 C.2       16 UNK         0.5000 
     93 O          -9.4189  -25.7404  -48.5930 O.2       16 UNK        -0.5000 
     94 N          -7.5919  -24.5112  -49.1501 N.am      17 UNK        -0.5000 
     95 CA         -8.1691  -23.4799  -50.0174 C.3       17 UNK         0.1400 
     96 CB         -9.1896  -22.6184  -49.2461 C.3       17 UNK        -0.1800 
     97 C          -8.7328  -24.0041  -51.3573 C.2       17 UNK         0.5000 
     98 O          -9.3862  -23.2409  -52.0705 O.2       17 UNK        -0.5000 
     99 N          -8.4631  -25.2716  -51.7040 N.am      18 UNK        -0.5000 
    100 CA        -8.9120  -25.8972  -52.9507 C.3       18 UNK         0.1400 
    101 CB        -9.0121  -27.4165  -52.7432 C.3       18 UNK        -0.1800 
    102 C         -7.9962  -25.5767  -54.1481 C.2       18 UNK         0.5000 
    103 O         -8.3973  -25.8089  -55.2896 O.2       18 UNK        -0.5000 
    104 N         -6.7910  -25.0615  -53.8801 N.am      19 UNK        -0.5000 
    105 CA        -5.7804  -24.6963  -54.8654 C.3       19 UNK         0.1400 
    106 CB        -5.0160  -25.9552  -55.3230 C.3       19 UNK        -0.1800 
    107 C         -4.8373  -23.6430  -54.2624 C.2       19 UNK         0.5000 
    108 O         -4.9782  -23.2828  -53.0893 O.2       19 UNK        -0.5000 
    109 N         -3.8946  -23.1719  -55.0892 N.am      20 UNK        -0.5000 
    110 CA        -2.8347  -22.1910  -54.8254 C.3       20 UNK         0.1400 
    111 CB        -1.9042  -22.6431  -53.6848 C.3       20 UNK        -0.1800 
    112 C         -3.3457  -20.7551  -54.6082 C.2       20 UNK         0.5000 
    113 O         -2.8978  -19.8510  -55.3139 O.2       20 UNK        -0.5000 
    114 N         -4.2687  -20.5741  -53.6534 N.am      21 UNK        -0.5000 
    115 CA        -4.9925  -19.3540  -53.2568 C.3       21 UNK         0.1400 
    116 CB        -5.8921  -18.8635  -54.4064 C.3       21 UNK        -0.1800 
    117 C         -4.1365  -18.1916  -52.7008 C.2       21 UNK         0.5000 
    118 O         -4.6046  -17.4764  -51.8143 O.2       21 UNK        -0.5000 
    119 N         -2.9220  -18.0135  -53.2267 N.am      22 UNK        -0.5000 
    120 CA        -1.9230  -17.0173  -52.8203 C.3       22 UNK         0.1400 
    121 C         -1.4120  -17.2102  -51.3612 C.2       22 UNK         0.5000 
    122 N         -1.0445  -16.1257  -50.6910 N.am      22 UNK        -0.7600 
    123 O         -1.3328  -18.3233  -50.8470 O.2       22 UNK        -0.5000 
    124 C124       -0.7664  -16.9879  -53.8533 C.3       23 UNK        -0.0398 
    125 S125        0.2072  -15.4407  -53.8204 S.3       23 UNK        -0.2404 
    126 C126        1.9232  -16.0577  -53.8396 C.3       23 UNK        -0.0205 
    127 H127        1.7225  -12.0633  -49.4497 H         1 UNK         0.0600 
    128 H128        3.2154  -11.1902  -49.8100 H         1 UNK         0.0600 
    129 H129        2.1173  -10.5855  -48.5645 H         1 UNK         0.0600 
    130 H130        5.0090  -12.1788  -48.9355 H         1 UNK         0.3000 
    131 H131        6.4208  -13.2585  -47.6473 H         1 UNK         0.0600 
    132 H132        5.8073  -15.3801  -46.5622 H         1 UNK         0.0800 
    133 H133        4.1085  -15.0151  -46.6669 H         1 UNK         0.0800 
    134 H134        2.9057  -16.5638  -48.0856 H         1 UNK         0.0800 
    135 H135        2.6830  -15.0525  -48.9337 H         1 UNK         0.0800 
    136 H136        2.5892  -15.0040  -51.4112 H         1 UNK         0.1150 
    137 H137        2.0775  -18.7528  -53.4321 H         1 UNK         0.1150 
    138 H138        3.1330  -18.6827  -49.2798 H         1 UNK         0.1150 
    139 H139        3.2158  -20.7903  -52.1247 H         1 UNK         0.0800 
    140 H140        2.9860  -20.7701  -50.3899 H         1 UNK         0.0800 
    141 H141        2.1451  -22.9929  -50.9356 H         1 UNK         0.0800 
    142 H142        0.7339  -23.4139  -51.8485 H         1 UNK         0.0800 
    143 H143        0.7488  -24.0830  -49.3901 H         1 UNK         0.0600 
    144 H144        1.0158  -21.2598  -48.9266 H         1 UNK         0.3000 
    145 H145        0.3772  -21.4997  -45.3983 H         1 UNK         0.0600 
    146 H146        2.8159  -20.8216  -47.1290 H         1 UNK         0.0600 
    147 H147        2.6107  -20.4666  -45.4183 H         1 UNK         0.0600 
    148 H148        2.7590  -22.1286  -45.9519 H         1 UNK         0.0600 
    149 H149        0.9329  -19.1661  -46.7453 H         1 UNK         0.3000 
    150 H150       -1.2272  -18.0020  -48.2929 H         1 UNK         0.0600 
    151 H151       -3.1044  -16.8379  -47.0943 H         1 UNK         0.0600 
    152 H152       -3.1048  -18.1100  -45.8723 H         1 UNK         0.0600 
    153 H153       -3.5379  -18.4772  -47.5386 H         1 UNK         0.0600 
    154 H154       -0.4538  -17.5707  -45.4517 H         1 UNK         0.3000 
    155 H155        1.8406  -15.1127  -46.3898 H         1 UNK         0.0600 
    156 H156       -0.7728  -14.4081  -44.9491 H         1 UNK         0.0600 
    157 H157       -0.0503  -13.5161  -46.2843 H         1 UNK         0.0600 
    158 H158        0.7620  -13.5742  -44.7283 H         1 UNK         0.0600 
    159 H159        0.8956  -15.8769  -43.8149 H         1 UNK         0.3000 
    160 H160        2.1486  -19.1281  -43.6095 H         1 UNK         0.0600 
    161 H161        4.3815  -17.9899  -43.3678 H         1 UNK         0.0600 
    162 H162        3.6948  -18.4416  -41.8163 H         1 UNK         0.0600 
    163 H163        3.6362  -16.7633  -42.3498 H         1 UNK         0.0600 
    164 H164        1.4051  -17.3708  -41.5319 H         1 UNK         0.3000 
    165 H165       -1.9901  -16.9572  -42.0708 H         1 UNK         0.0600 
    166 H166       -2.4214  -18.1810  -39.9577 H         1 UNK         0.0600 
    167 H167       -2.1377  -19.3215  -41.2620 H         1 UNK         0.0600 
    168 H168       -0.8678  -19.0077  -40.0852 H         1 UNK         0.0600 
    169 H169       -0.5352  -16.5638  -39.7008 H         1 UNK         0.3000 
    170 H170       -0.0742  -14.3155  -39.1478 H         1 UNK         0.0600 
    171 H171        2.4399  -14.1393  -38.9337 H         1 UNK         0.0600 
    172 H172        1.8986  -15.7881  -39.1923 H         1 UNK         0.0600 
    173 H173        2.6089  -14.8873  -40.5211 H         1 UNK         0.0600 
    174 H174        1.5360  -12.6500  -40.9668 H         1 UNK         0.3000 
    175 H175       -0.9296  -10.1190  -41.2375 H         1 UNK         0.0600 
    176 H176        1.6100  -10.1248  -39.5230 H         1 UNK         0.0600 
    177 H177        0.8073   -8.7012  -40.1849 H         1 UNK         0.0600 
    178 H178        0.0007   -9.6777  -38.9676 H         1 UNK         0.0600 
    179 H179        1.9047  -10.4678  -41.9389 H         1 UNK         0.3000 
    180 H180        1.1211  -10.9568  -45.4021 H         1 UNK         0.0600 
    181 H181        2.7589   -9.1188  -45.4881 H         1 UNK         0.0600 
    182 H182        2.5826   -8.8284  -43.7587 H         1 UNK         0.0600 
    183 H183        1.2289   -8.5447  -44.8427 H         1 UNK         0.0600 
    184 H184        2.8300  -12.2309  -45.0826 H         1 UNK         0.3000 
    185 H185        5.7005  -12.2809  -43.1693 H         1 UNK         0.0600 
    186 H186        3.4712  -14.3418  -42.7416 H         1 UNK         0.0600 
    187 H187        5.1987  -14.6514  -42.5474 H         1 UNK         0.0600 
    188 H188        4.3843  -13.5264  -41.4738 H         1 UNK         0.0600 
    189 H189        4.4016  -14.1413  -44.9876 H         1 UNK         0.3000 
    190 H190       -1.5082  -21.3436  -49.5473 H         1 UNK         0.3000 
    191 H191       -3.6828  -22.7977  -50.7404 H         1 UNK         0.0600 
    192 H192       -3.7393  -20.2617  -49.0290 H         1 UNK         0.0600 
    193 H193       -5.0213  -20.8380  -50.0875 H         1 UNK         0.0600 
    194 H194       -3.4886  -20.3038  -50.7687 H         1 UNK         0.0600 
    195 H195       -2.7534  -22.0682  -47.3488 H         1 UNK         0.3000 
    196 H196       -4.9107  -23.3860  -46.0725 H         1 UNK         0.0600 
    197 H197       -3.4032  -23.3396  -44.0764 H         1 UNK         0.0600 
    198 H198       -3.4156  -21.7921  -44.9098 H         1 UNK         0.0600 
    199 H199       -2.0466  -22.8829  -45.1005 H         1 UNK         0.0600 
    200 H200       -1.6737  -24.6179  -47.0537 H         1 UNK         0.3000 
    201 H201       -1.9967  -27.2818  -46.1392 H         1 UNK         0.0600 
    202 H202        0.1957  -26.3018  -46.7672 H         1 UNK         0.0600 
    203 H203       -0.3070  -26.1930  -48.4529 H         1 UNK         0.0600 
    204 H204       -0.1053  -27.7657  -47.6915 H         1 UNK         0.0600 
    205 H205       -2.9677  -25.7325  -49.1939 H         1 UNK         0.3000 
    206 H206       -4.0174  -28.1648  -50.4032 H         1 UNK         0.0600 
    207 H207       -4.7492  -26.5794  -52.1747 H         1 UNK         0.0600 
    208 H208       -4.3015  -25.2103  -51.1669 H         1 UNK         0.0600 
    209 H209       -3.0627  -26.3100  -51.7665 H         1 UNK         0.0600 
    210 H210       -5.1802  -26.3964  -47.8296 H         1 UNK         0.3000 
    211 H211       -7.0970  -26.0422  -46.8003 H         1 UNK         0.0600 
    212 H212       -8.2089  -28.3829  -48.4379 H         1 UNK         0.0600 
    213 H213       -8.8513  -27.7725  -46.9191 H         1 UNK         0.0600 
    214 H214       -7.2713  -28.5369  -46.9525 H         1 UNK         0.0600 
    215 H215       -6.5825  -24.4297  -49.0250 H         1 UNK         0.3000 
    216 H216       -7.3348  -22.8305  -50.2872 H         1 UNK         0.0600 
    217 H217       -9.4948  -21.7518  -49.8336 H         1 UNK         0.0600 
    218 H218       -8.7643  -22.2427  -48.3155 H         1 UNK         0.0600 
    219 H219      -10.0920  -23.1791  -49.0018 H         1 UNK         0.0600 
    220 H220       -7.9163  -25.8533  -51.0791 H         1 UNK         0.3000 
    221 H221       -9.9110  -25.5280  -53.1921 H         1 UNK         0.0600 
    222 H222       -8.0313  -27.8692  -52.5963 H         1 UNK         0.0600 
    223 H223       -9.6286  -27.6595  -51.8774 H         1 UNK         0.0600 
    224 H224       -9.4646  -27.8981  -53.6108 H         1 UNK         0.0600 
    225 H225       -6.5502  -24.8286  -52.9256 H         1 UNK         0.3000 
    226 H226       -6.2740  -24.2392  -55.7255 H         1 UNK         0.0600 
    227 H227       -5.6946  -26.7120  -55.7166 H         1 UNK         0.0600 
    228 H228       -4.3062  -25.7233  -56.1173 H         1 UNK         0.0600 
    229 H229       -4.4541  -26.4057  -54.5051 H         1 UNK         0.0600 
    230 H230       -3.9028  -23.5194  -56.0380 H         1 UNK         0.3000 
    231 H231       -2.2316  -22.1691  -55.7346 H         1 UNK         0.0600 
    232 H232       -2.4121  -22.6638  -52.7221 H         1 UNK         0.0600 
    233 H233       -1.5024  -23.6388  -53.8716 H         1 UNK         0.0600 
    234 H234       -1.0580  -21.9631  -53.5902 H         1 UNK         0.0600 
    235 H235       -4.5546  -21.4186  -53.1645 H         1 UNK         0.3000 
    236 H236       -5.6487  -19.6631  -52.4417 H         1 UNK         0.0600 
    237 H237       -5.3085  -18.5369  -55.2676 H         1 UNK         0.0600 
    238 H238       -6.5701  -19.6497  -54.7388 H         1 UNK         0.0600 
    239 H239       -6.5049  -18.0189  -54.0890 H         1 UNK         0.0600 
    240 H240       -2.6548  -18.6454  -53.9761 H         1 UNK         0.3000 
    241 H241       -2.4352  -16.0539  -52.8612 H         1 UNK         0.0600 
    242 H242       -0.6771  -16.2041  -49.7463 H         1 UNK         0.3800 
    243 H243       -1.0713  -15.2178  -51.1251 H         1 UNK         0.3800 
    244 H244       -0.1254  -17.8601  -53.7300 H         1 UNK         0.0800 
    245 H245       -1.1720  -17.0677  -54.8631 H         1 UNK         0.0800 
    246 H246        2.5992  -15.2116  -53.9714 H         1 UNK         0.0800 
    247 H247        2.0670  -16.6990  -54.7106 H         1 UNK         0.0800 
@<TRIPOS>BOND
     1    1    2 1    
     2    1  127 1    
     3    1  128 1    
     4    1  129 1    
     5    2    3 2    
     6    2    4 am   BACKBONE|DICT|INTERRES
     7    4    5 1    
     8    4  130 1    
     9    5    6 1    
    10    5   65 1    
    11    5  131 1    
    12    6    7 1    
    13    6  132 1    
    14    6  133 1    
    15    7    8 1    
    16    8    9 1    
    17    8  134 1    
    18    8  135 1    
    19    9   10 ar   
    20    9   14 ar   
    21   10   11 ar   
    22   10  136 1    
    23   11   12 ar   
    24   11  126 1    
    25   12   13 ar   
    26   12  137 1    
    27   13   14 ar   
    28   13   15 1    
    29   14  138 1    
    30   15   16 1    
    31   15  139 1    
    32   15  140 1    
    33   16   17 1    
    34   17   18 1    
    35   17  141 1    
    36   17  142 1    
    37   18   19 1    
    38   18   67 1    
    39   18  143 1    
    40   19   20 am   BACKBONE|DICT|INTERRES
    41   19  144 1    
    42   20   21 2    
    43   20   22 1    
    44   22   23 1    
    45   22   24 1    
    46   22  145 1    
    47   23  146 1    
    48   23  147 1    
    49   23  148 1    
    50   24   25 am   BACKBONE|DICT|INTERRES
    51   24  149 1    
    52   25   26 2    
    53   25   27 1    
    54   27   28 1    
    55   27   29 1    
    56   27  150 1    
    57   28  151 1    
    58   28  152 1    
    59   28  153 1    
    60   29   30 am   BACKBONE|DICT|INTERRES
    61   29  154 1    
    62   30   31 2    
    63   30   32 1    
    64   32   33 1    
    65   32   34 1    
    66   32  155 1    
    67   33  156 1    
    68   33  157 1    
    69   33  158 1    
    70   34   35 am   BACKBONE|DICT|INTERRES
    71   34  159 1    
    72   35   36 2    
    73   35   37 1    
    74   37   38 1    
    75   37   39 1    
    76   37  160 1    
    77   38  161 1    
    78   38  162 1    
    79   38  163 1    
    80   39   40 am   BACKBONE|DICT|INTERRES
    81   39  164 1    
    82   40   41 2    
    83   40   42 1    
    84   42   43 1    
    85   42   44 1    
    86   42  165 1    
    87   43  166 1    
    88   43  167 1    
    89   43  168 1    
    90   44   45 am   BACKBONE|DICT|INTERRES
    91   44  169 1    
    92   45   46 2    
    93   45   47 1    
    94   47   48 1    
    95   47   49 1    
    96   47  170 1    
    97   48  171 1    
    98   48  172 1    
    99   48  173 1    
   100   49   50 am   BACKBONE|DICT|INTERRES
   101   49  174 1    
   102   50   51 2    
   103   50   52 1    
   104   52   53 1    
   105   52   54 1    
   106   52  175 1    
   107   53  176 1    
   108   53  177 1    
   109   53  178 1    
   110   54   55 am   BACKBONE|DICT|INTERRES
   111   54  179 1    
   112   55   56 2    
   113   55   57 1    
   114   57   58 1    
   115   57   59 1    
   116   57  180 1    
   117   58  181 1    
   118   58  182 1    
   119   58  183 1    
   120   59   60 am   BACKBONE|DICT|INTERRES
   121   59  184 1    
   122   60   61 2    
   123   60   62 1    
   124   62   63 1    
   125   62   64 1    
   126   62  185 1    
   127   63  186 1    
   128   63  187 1    
   129   63  188 1    
   130   64   65 am   BACKBONE|DICT|INTERRES
   131   64  189 1    
   132   65   66 2    
   133   67   68 2    
   134   67   69 am   BACKBONE|DICT|INTERRES
   135   69   70 1    
   136   69  190 1    
   137   70   71 1    
   138   70   72 1    
   139   70  191 1    
   140   71  192 1    
   141   71  193 1    
   142   71  194 1    
   143   72   73 2    
   144   72   74 am   BACKBONE|DICT|INTERRES
   145   74   75 1    
   146   74  195 1    
   147   75   76 1    
   148   75   77 1    
   149   75  196 1    
   150   76  197 1    
   151   76  198 1    
   152   76  199 1    
   153   77   78 2    
   154   77   79 am   BACKBONE|DICT|INTERRES
   155   79   80 1    
   156   79  200 1    
   157   80   81 1    
   158   80   82 1    
   159   80  201 1    
   160   81  202 1    
   161   81  203 1    
   162   81  204 1    
   163   82   83 2    
   164   82   84 am   BACKBONE|DICT|INTERRES
   165   84   85 1    
   166   84  205 1    
   167   85   86 1    
   168   85   87 1    
   169   85  206 1    
   170   86  207 1    
   171   86  208 1    
   172   86  209 1    
   173   87   88 2    
   174   87   89 am   BACKBONE|DICT|INTERRES
   175   89   90 1    
   176   89  210 1    
   177   90   91 1    
   178   90   92 1    
   179   90  211 1    
   180   91  212 1    
   181   91  213 1    
   182   91  214 1    
   183   92   93 2    
   184   92   94 am   BACKBONE|DICT|INTERRES
   185   94   95 1    
   186   94  215 1    
   187   95   96 1    
   188   95   97 1    
   189   95  216 1    
   190   96  217 1    
   191   96  218 1    
   192   96  219 1    
   193   97   98 2    
   194   97   99 am   BACKBONE|DICT|INTERRES
   195   99  100 1    
   196   99  220 1    
   197  100  101 1    
   198  100  102 1    
   199  100  221 1    
   200  101  222 1    
   201  101  223 1    
   202  101  224 1    
   203  102  103 2    
   204  102  104 am   BACKBONE|DICT|INTERRES
   205  104  105 1    
   206  104  225 1    
   207  105  106 1    
   208  105  107 1    
   209  105  226 1    
   210  106  227 1    
   211  106  228 1    
   212  106  229 1    
   213  107  108 2    
   214  107  109 am   BACKBONE|DICT|INTERRES
   215  109  110 1    
   216  109  230 1    
   217  110  111 1    
   218  110  112 1    
   219  110  231 1    
   220  111  232 1    
   221  111  233 1    
   222  111  234 1    
   223  112  113 2    
   224  112  114 am   BACKBONE|DICT|INTERRES
   225  114  115 1    
   226  114  235 1    
   227  115  116 1    
   228  115  117 1    
   229  115  236 1    
   230  116  237 1    
   231  116  238 1    
   232  116  239 1    
   233  117  118 2    
   234  117  119 am   BACKBONE|DICT|INTERRES
   235  119  120 1    
   236  119  240 1    
   237  120  121 1    
   238  120  124 1    
   239  120  241 1    
   240  121  122 am   BACKBONE|DICT|INTERRES
   241  121  123 2    
   242  122  242 1    
   243  122  243 1    
   244  124  125 1    
   245  124  244 1    
   246  124  245 1    
   247  125  126 1    
   248  126  246 1    
   249  126  247 1    
@<TRIPOS>SUBSTRUCTURE
     1 UNK         1 GROUP             0       ****    0 ROOT    
