@<TRIPOS>MOLECULE
3R540
247   249    1
SMALL
USER_CHARGES


@<TRIPOS>ATOM
      1 CA          4.7042  -14.8855  -46.9486 C.3       0 UNK        -0.1800 
      2 C           3.9391  -15.3015  -48.1964 C.2       0 UNK         0.5000 
      3 O           2.8649  -15.8900  -48.0838 O.2       0 UNK        -0.5000 
      4 N           4.4815  -14.9912  -49.3811 N.am      1 UNK        -0.5000 
      5 CA          3.9268  -15.3472  -50.6938 C.3       1 UNK         0.1400 
      6 C6          5.0261  -15.4753  -51.7900 C.3       23 UNK        -0.0398 
      7 S7          6.4885  -16.4658  -51.3112 S.3       23 UNK        -0.2404 
      8 C8          6.0074  -18.1527  -51.8055 C.3       23 UNK        -0.0205 
      9 C9          4.8599  -18.6681  -50.9536 C.ar      23 UNK        -0.0193 
     10 C10         3.5927  -18.8550  -51.5133 C.ar      23 UNK        -0.1150 
     11 C11         2.5098  -19.2129  -50.7053 C.ar      23 UNK        -0.0193 
     12 C12         2.7149  -19.4285  -49.3411 C.ar      23 UNK        -0.1150 
     13 C13         3.9848  -19.2857  -48.7753 C.ar      23 UNK        -0.0193 
     14 C14         5.0533  -18.8998  -49.5884 C.ar      23 UNK        -0.1150 
     15 C15         4.1715  -19.4862  -47.2783 C.3       23 UNK        -0.0205 
     16 S16         5.5237  -20.6240  -46.8577 S.3       23 UNK        -0.2404 
     17 C17         5.0274  -21.0653  -45.1483 C.3       23 UNK        -0.0398 
     18 CA          4.2493  -22.4032  -44.9110 C.3       11 UNK         0.1400 
     19 N           3.0120  -22.2067  -44.1426 N.am      11 UNK        -0.5000 
     20 C           2.4102  -23.1724  -43.4287 C.2       10 UNK         0.5000 
     21 O           2.8388  -24.3231  -43.3367 O.2       10 UNK        -0.5000 
     22 CA          1.1107  -22.7996  -42.6976 C.3       10 UNK         0.1400 
     23 CB          1.3979  -21.9733  -41.4337 C.3       10 UNK        -0.1800 
     24 N           0.2083  -22.0631  -43.5761 N.am      10 UNK        -0.5000 
     25 C          -0.6608  -22.6375  -44.4192 C.2       9 UNK         0.5000 
     26 O          -0.8555  -23.8530  -44.4800 O.2       9 UNK        -0.5000 
     27 CA         -1.4810  -21.7058  -45.3317 C.3       9 UNK         0.1400 
     28 CB         -2.9370  -21.6505  -44.8485 C.3       9 UNK        -0.1800 
     29 N          -0.9439  -20.3456  -45.4196 N.am      9 UNK        -0.5000 
     30 C           0.1729  -20.0247  -46.0900 C.2       8 UNK         0.5000 
     31 O           0.8813  -20.8498  -46.6639 O.2       8 UNK        -0.5000 
     32 CA          0.6269  -18.5552  -46.0365 C.3       8 UNK         0.1400 
     33 CB         -0.1619  -17.6777  -47.0131 C.3       8 UNK        -0.1800 
     34 N           0.5655  -17.9867  -44.6939 N.am      8 UNK        -0.5000 
     35 C           1.2910  -18.4161  -43.6526 C.2       7 UNK         0.5000 
     36 O           2.0223  -19.4076  -43.6923 O.2       7 UNK        -0.5000 
     37 CA          1.1706  -17.6074  -42.3525 C.3       7 UNK         0.1400 
     38 CB          2.0325  -16.3375  -42.4310 C.3       7 UNK        -0.1800 
     39 N          -0.2196  -17.2301  -42.1052 N.am      7 UNK        -0.5000 
     40 C          -1.0490  -17.8838  -41.2819 C.2       6 UNK         0.5000 
     41 O          -0.7057  -18.8300  -40.5724 O.2       6 UNK        -0.5000 
     42 CA         -2.5183  -17.4133  -41.2494 C.3       6 UNK         0.1400 
     43 CB         -2.7232  -16.3695  -40.1411 C.3       6 UNK        -0.1800 
     44 N          -3.0005  -16.8621  -42.5190 N.am      6 UNK        -0.5000 
     45 C          -3.0732  -17.5445  -43.6696 C.2       5 UNK         0.5000 
     46 O          -2.7241  -18.7162  -43.7944 O.2       5 UNK        -0.5000 
     47 CA         -3.5713  -16.7823  -44.9088 C.3       5 UNK         0.1400 
     48 CB         -5.1047  -16.8155  -44.9818 C.3       5 UNK        -0.1800 
     49 N          -3.1132  -15.3953  -45.0338 N.am      5 UNK        -0.5000 
     50 C          -1.8623  -14.9328  -44.8972 C.2       4 UNK         0.5000 
     51 O          -0.9226  -15.5996  -44.4597 O.2       4 UNK        -0.5000 
     52 CA         -1.6258  -13.4922  -45.3905 C.3       4 UNK         0.1400 
     53 CB         -0.2130  -12.9799  -45.0567 C.3       4 UNK        -0.1800 
     54 N          -1.8138  -13.4248  -46.8387 N.am      4 UNK        -0.5000 
     55 C          -2.9844  -13.3906  -47.4869 C.2       3 UNK         0.5000 
     56 O          -4.0645  -13.3163  -46.8977 O.2       3 UNK        -0.5000 
     57 CA         -2.9590  -13.4707  -49.0336 C.3       3 UNK         0.1400 
     58 CB         -4.0489  -12.5847  -49.6617 C.3       3 UNK        -0.1800 
     59 N          -1.6746  -13.1369  -49.6629 N.am      3 UNK        -0.5000 
     60 C          -0.5538  -13.8675  -49.6209 C.2       2 UNK         0.5000 
     61 O          -0.4429  -14.8980  -48.9559 O.2       2 UNK        -0.5000 
     62 CA          0.6457  -13.3317  -50.4163 C.3       2 UNK         0.1400 
     63 CB          1.0671  -11.9305  -49.9289 C.3       2 UNK        -0.1800 
     64 N           1.7687  -14.2522  -50.2740 N.am      2 UNK        -0.5000 
     65 C           2.8067  -14.3630  -51.1070 C.2       1 UNK         0.5000 
     66 O           2.9147  -13.6962  -52.1385 O.2       1 UNK        -0.5000 
     67 C           3.9990  -23.2834  -46.1587 C.2       11 UNK         0.5000 
     68 O           4.7780  -24.2042  -46.4132 O.2       11 UNK        -0.5000 
     69 N           2.9066  -23.0137  -46.8846 N.am      12 UNK        -0.5000 
     70 CA          2.4386  -23.8078  -48.0126 C.3       12 UNK         0.1400 
     71 CB          2.2629  -22.8948  -49.2363 C.3       12 UNK        -0.1800 
     72 C           1.1215  -24.4514  -47.5684 C.2       12 UNK         0.5000 
     73 O           0.0938  -23.7749  -47.5477 O.2       12 UNK        -0.5000 
     74 N           1.2046  -25.7224  -47.1526 N.am      13 UNK        -0.5000 
     75 CA          0.1603  -26.5117  -46.4925 C.3       13 UNK         0.1400 
     76 CB          0.6130  -27.9804  -46.4352 C.3       13 UNK        -0.1800 
     77 C          -1.2409  -26.3850  -47.1259 C.2       13 UNK         0.5000 
     78 O          -1.5010  -26.9856  -48.1705 O.2       13 UNK        -0.5000 
     79 N          -2.0973  -25.5902  -46.4700 N.am      14 UNK        -0.5000 
     80 CA         -3.4888  -25.2912  -46.8187 C.3       14 UNK         0.1400 
     81 CB         -4.3596  -26.5642  -46.7598 C.3       14 UNK        -0.1800 
     82 C          -3.6661  -24.5090  -48.1387 C.2       14 UNK         0.5000 
     83 O          -4.7367  -24.5871  -48.7436 O.2       14 UNK        -0.5000 
     84 N          -2.6526  -23.7323  -48.5552 N.am      15 UNK        -0.5000 
     85 CA         -2.6678  -22.9312  -49.7876 C.3       15 UNK         0.1400 
     86 CB         -1.3288  -22.2019  -49.9555 C.3       15 UNK        -0.1800 
     87 C          -3.8384  -21.9345  -49.8912 C.2       15 UNK         0.5000 
     88 O          -4.3755  -21.7524  -50.9830 O.2       15 UNK        -0.5000 
     89 N          -4.2635  -21.3709  -48.7515 N.am      16 UNK        -0.5000 
     90 CA         -5.4044  -20.4577  -48.6557 C.3       16 UNK         0.1400 
     91 CB         -5.4333  -19.8248  -47.2565 C.3       16 UNK        -0.1800 
     92 C          -6.7612  -21.1143  -48.9788 C.2       16 UNK         0.5000 
     93 O          -7.6875  -20.4071  -49.3752 O.2       16 UNK        -0.5000 
     94 N          -6.8620  -22.4423  -48.8181 N.am      17 UNK        -0.5000 
     95 CA         -8.0409  -23.2192  -49.2019 C.3       17 UNK         0.1400 
     96 CB         -8.0945  -24.5176  -48.3815 C.3       17 UNK        -0.1800 
     97 C          -8.0568  -23.5240  -50.7111 C.2       17 UNK         0.5000 
     98 O          -9.1377  -23.6632  -51.2847 O.2       17 UNK        -0.5000 
     99 N          -6.8698  -23.6126  -51.3295 N.am      18 UNK        -0.5000 
    100 CA        -6.7024  -23.7915  -52.7710 C.3       18 UNK         0.1400 
    101 CB        -5.3000  -24.3451  -53.0703 C.3       18 UNK        -0.1800 
    102 C         -6.9640  -22.4819  -53.5358 C.2       18 UNK         0.5000 
    103 O         -7.6778  -22.5014  -54.5397 O.2       18 UNK        -0.5000 
    104 N         -6.4149  -21.3681  -53.0353 N.am      19 UNK        -0.5000 
    105 CA        -6.6304  -20.0251  -53.5601 C.3       19 UNK         0.1400 
    106 CB        -5.6980  -19.7605  -54.7565 C.3       19 UNK        -0.1800 
    107 C         -6.3873  -19.0124  -52.4366 C.2       19 UNK         0.5000 
    108 O         -5.2711  -18.9366  -51.9225 O.2       19 UNK        -0.5000 
    109 N         -7.4159  -18.2221  -52.0979 N.am      20 UNK        -0.5000 
    110 CA        -7.3873  -17.2096  -51.0328 C.3       20 UNK         0.1400 
    111 CB        -8.7837  -16.5872  -50.8900 C.3       20 UNK        -0.1800 
    112 C         -6.3240  -16.1112  -51.2360 C.2       20 UNK         0.5000 
    113 O         -5.8109  -15.5720  -50.2546 O.2       20 UNK        -0.5000 
    114 N         -5.9582  -15.8611  -52.5021 N.am      21 UNK        -0.5000 
    115 CA        -4.8585  -14.9940  -52.9343 C.3       21 UNK         0.1400 
    116 CB        -4.8616  -14.9289  -54.4695 C.3       21 UNK        -0.1800 
    117 C         -3.4656  -15.4182  -52.4170 C.2       21 UNK         0.5000 
    118 O         -2.5447  -14.6019  -52.4487 O.2       21 UNK        -0.5000 
    119 N         -3.3398  -16.6613  -51.9377 N.am      22 UNK        -0.5000 
    120 CA        -2.1762  -17.1849  -51.2171 C.3       22 UNK         0.1400 
    121 C         -2.5980  -17.8816  -49.8913 C.2       22 UNK         0.5000 
    122 N         -3.6501  -17.4187  -49.2223 N.am      22 UNK        -0.7600 
    123 O         -1.9862  -18.8515  -49.4577 O.2       22 UNK        -0.5000 
    124 C124       -1.2585  -18.0336  -52.1409 C.3       23 UNK        -0.0398 
    125 S125        0.5063  -17.6941  -51.8272 S.3       23 UNK        -0.2404 
    126 C126        1.1118  -19.3240  -51.2930 C.3       23 UNK        -0.0205 
    127 H127        4.0925  -14.2209  -46.3384 H         1 UNK         0.0600 
    128 H128        5.6311  -14.3670  -47.1947 H         1 UNK         0.0600 
    129 H129        4.9528  -15.7641  -46.3533 H         1 UNK         0.0600 
    130 H130        5.3605  -14.4951  -49.4069 H         1 UNK         0.3000 
    131 H131        3.4432  -16.3187  -50.5976 H         1 UNK         0.0600 
    132 H132        4.5994  -15.8941  -52.7029 H         1 UNK         0.0800 
    133 H133        5.4027  -14.4876  -52.0617 H         1 UNK         0.0800 
    134 H134        6.8653  -18.8162  -51.6881 H         1 UNK         0.0800 
    135 H135        5.7500  -18.1646  -52.8658 H         1 UNK         0.0800 
    136 H136        3.4327  -18.6669  -52.5657 H         1 UNK         0.1150 
    137 H137        1.8752  -19.6930  -48.7164 H         1 UNK         0.1150 
    138 H138        6.0306  -18.7469  -49.1526 H         1 UNK         0.1150 
    139 H139        4.3346  -18.5203  -46.7983 H         1 UNK         0.0800 
    140 H140        3.2640  -19.9063  -46.8519 H         1 UNK         0.0800 
    141 H141        4.4782  -20.2227  -44.7253 H         1 UNK         0.0800 
    142 H142        5.9492  -21.0963  -44.5660 H         1 UNK         0.0800 
    143 H143        4.9006  -23.0060  -44.2733 H         1 UNK         0.0600 
    144 H144        2.6102  -21.2744  -44.1456 H         1 UNK         0.3000 
    145 H145        0.6257  -23.7255  -42.3804 H         1 UNK         0.0600 
    146 H146        1.9202  -21.0439  -41.6580 H         1 UNK         0.0600 
    147 H147        0.4753  -21.7182  -40.9118 H         1 UNK         0.0600 
    148 H148        2.0206  -22.5358  -40.7371 H         1 UNK         0.0600 
    149 H149        0.3200  -21.0596  -43.6096 H         1 UNK         0.3000 
    150 H150       -1.4781  -22.1314  -46.3356 H         1 UNK         0.0600 
    151 H151       -3.4101  -22.6297  -44.9091 H         1 UNK         0.0600 
    152 H152       -3.5271  -20.9626  -45.4500 H         1 UNK         0.0600 
    153 H153       -3.0021  -21.3263  -43.8094 H         1 UNK         0.0600 
    154 H154       -1.4536  -19.6281  -44.9109 H         1 UNK         0.3000 
    155 H155        1.6695  -18.5041  -46.3442 H         1 UNK         0.0600 
    156 H156        0.1272  -16.6303  -46.9263 H         1 UNK         0.0600 
    157 H157        0.0402  -17.9762  -48.0419 H         1 UNK         0.0600 
    158 H158       -1.2361  -17.7473  -46.8528 H         1 UNK         0.0600 
    159 H159        0.0005  -17.1475  -44.5863 H         1 UNK         0.3000 
    160 H160        1.5517  -18.2243  -41.5359 H         1 UNK         0.0600 
    161 H161        1.7016  -15.6712  -43.2290 H         1 UNK         0.0600 
    162 H162        3.0773  -16.5860  -42.6218 H         1 UNK         0.0600 
    163 H163        1.9960  -15.7805  -41.4947 H         1 UNK         0.0600 
    164 H164       -0.5988  -16.4983  -42.6968 H         1 UNK         0.3000 
    165 H165       -3.1327  -18.2851  -41.0150 H         1 UNK         0.0600 
    166 H166       -3.7744  -16.0978  -40.0434 H         1 UNK         0.0600 
    167 H167       -2.3979  -16.7566  -39.1745 H         1 UNK         0.0600 
    168 H168       -2.1564  -15.4585  -40.3376 H         1 UNK         0.0600 
    169 H169       -3.2847  -15.8936  -42.5177 H         1 UNK         0.3000 
    170 H170       -3.1926  -17.3157  -45.7808 H         1 UNK         0.0600 
    171 H171       -5.4808  -17.8357  -44.8938 H         1 UNK         0.0600 
    172 H172       -5.5572  -16.2287  -44.1816 H         1 UNK         0.0600 
    173 H173       -5.4630  -16.4194  -45.9325 H         1 UNK         0.0600 
    174 H174       -3.7824  -14.7506  -45.4406 H         1 UNK         0.3000 
    175 H175       -2.3508  -12.8416  -44.8974 H         1 UNK         0.0600 
    176 H176        0.5591  -13.5815  -45.5389 H         1 UNK         0.0600 
    177 H177       -0.0823  -11.9471  -45.3799 H         1 UNK         0.0600 
    178 H178       -0.0300  -13.0100  -43.9818 H         1 UNK         0.0600 
    179 H179       -0.9938  -13.6135  -47.4008 H         1 UNK         0.3000 
    180 H180       -3.1869  -14.5068  -49.2900 H         1 UNK         0.0600 
    181 H181       -3.9148  -11.5355  -49.3963 H         1 UNK         0.0600 
    182 H182       -5.0428  -12.8862  -49.3280 H         1 UNK         0.0600 
    183 H183       -4.0424  -12.6595  -50.7486 H         1 UNK         0.0600 
    184 H184       -1.6706  -12.2915  -50.2142 H         1 UNK         0.3000 
    185 H185        0.3501  -13.2851  -51.4665 H         1 UNK         0.0600 
    186 H186        1.3407  -11.9413  -48.8730 H         1 UNK         0.0600 
    187 H187        1.9230  -11.5553  -50.4900 H         1 UNK         0.0600 
    188 H188        0.2639  -11.2039  -50.0541 H         1 UNK         0.0600 
    189 H189        1.7220  -14.8650  -49.4625 H         1 UNK         0.3000 
    190 H190        2.2790  -22.2650  -46.6032 H         1 UNK         0.3000 
    191 H191        3.1510  -24.5919  -48.2768 H         1 UNK         0.0600 
    192 H192        1.5472  -22.0951  -49.0454 H         1 UNK         0.0600 
    193 H193        1.9061  -23.4608  -50.0969 H         1 UNK         0.0600 
    194 H194        3.2087  -22.4317  -49.5182 H         1 UNK         0.0600 
    195 H195        2.1058  -26.1728  -47.2123 H         1 UNK         0.3000 
    196 H196        0.1011  -26.1539  -45.4632 H         1 UNK         0.0600 
    197 H197        0.7822  -28.3887  -47.4324 H         1 UNK         0.0600 
    198 H198       -0.1396  -28.6026  -45.9489 H         1 UNK         0.0600 
    199 H199        1.5371  -28.0879  -45.8669 H         1 UNK         0.0600 
    200 H200       -1.7311  -25.0790  -45.6694 H         1 UNK         0.3000 
    201 H201       -3.8507  -24.6256  -46.0356 H         1 UNK         0.0600 
    202 H202       -4.2279  -27.0895  -45.8139 H         1 UNK         0.0600 
    203 H203       -4.1193  -27.2575  -47.5661 H         1 UNK         0.0600 
    204 H204       -5.4189  -26.3193  -46.8470 H         1 UNK         0.0600 
    205 H205       -1.7731  -23.7508  -48.0436 H         1 UNK         0.3000 
    206 H206       -2.7736  -23.6291  -50.6205 H         1 UNK         0.0600 
    207 H207       -0.5177  -22.9135  -50.1009 H         1 UNK         0.0600 
    208 H208       -1.3431  -21.5463  -50.8272 H         1 UNK         0.0600 
    209 H209       -1.0907  -21.5874  -49.0858 H         1 UNK         0.0600 
    210 H210       -3.7646  -21.5773  -47.9004 H         1 UNK         0.3000 
    211 H211       -5.2512  -19.6630  -49.3863 H         1 UNK         0.0600 
    212 H212       -5.6460  -20.5665  -46.4858 H         1 UNK         0.0600 
    213 H213       -6.2077  -19.0592  -47.1937 H         1 UNK         0.0600 
    214 H214       -4.4839  -19.3475  -47.0142 H         1 UNK         0.0600 
    215 H215       -6.0467  -22.9732  -48.5342 H         1 UNK         0.3000 
    216 H216       -8.9379  -22.6416  -48.9679 H         1 UNK         0.0600 
    217 H217       -9.0191  -25.0611  -48.5791 H         1 UNK         0.0600 
    218 H218       -8.0603  -24.3122  -47.3115 H         1 UNK         0.0600 
    219 H219       -7.2687  -25.1868  -48.6225 H         1 UNK         0.0600 
    220 H220       -6.0289  -23.4626  -50.7891 H         1 UNK         0.3000 
    221 H221       -7.4293  -24.5311  -53.1138 H         1 UNK         0.0600 
    222 H222       -4.5135  -23.6470  -52.7852 H         1 UNK         0.0600 
    223 H223       -5.1246  -25.2814  -52.5403 H         1 UNK         0.0600 
    224 H224       -5.1839  -24.5474  -54.1357 H         1 UNK         0.0600 
    225 H225       -5.8010  -21.4282  -52.2240 H         1 UNK         0.3000 
    226 H226       -7.6658  -19.9325  -53.8950 H         1 UNK         0.0600 
    227 H227       -5.9098  -20.4394  -55.5825 H         1 UNK         0.0600 
    228 H228       -5.8219  -18.7439  -55.1316 H         1 UNK         0.0600 
    229 H229       -4.6495  -19.8849  -54.4823 H         1 UNK         0.0600 
    230 H230       -8.3004  -18.3446  -52.5693 H         1 UNK         0.3000 
    231 H231       -7.1445  -17.7224  -50.0999 H         1 UNK         0.0600 
    232 H232       -8.8009  -15.8454  -50.0903 H         1 UNK         0.0600 
    233 H233       -9.5288  -17.3442  -50.6440 H         1 UNK         0.0600 
    234 H234       -9.0985  -16.0889  -51.8077 H         1 UNK         0.0600 
    235 H235       -6.4364  -16.3677  -53.2319 H         1 UNK         0.3000 
    236 H236       -5.0571  -13.9932  -52.5469 H         1 UNK         0.0600 
    237 H237       -4.0781  -14.2637  -54.8351 H         1 UNK         0.0600 
    238 H238       -5.8105  -14.5478  -54.8475 H         1 UNK         0.0600 
    239 H239       -4.6917  -15.9110  -54.9128 H         1 UNK         0.0600 
    240 H240       -4.1397  -17.2878  -51.9534 H         1 UNK         0.3000 
    241 H241       -1.5994  -16.3278  -50.8712 H         1 UNK         0.0600 
    242 H242       -3.9093  -17.8768  -48.3679 H         1 UNK         0.3800 
    243 H243       -4.2105  -16.6544  -49.5797 H         1 UNK         0.3800 
    244 H244       -1.4362  -17.7815  -53.1872 H         1 UNK         0.0800 
    245 H245       -1.4765  -19.0999  -52.0589 H         1 UNK         0.0800 
    246 H246        1.1203  -20.0106  -52.1404 H         1 UNK         0.0800 
    247 H247        0.4223  -19.7390  -50.5559 H         1 UNK         0.0800 
@<TRIPOS>BOND
     1    1    2 1    
     2    1  127 1    
     3    1  128 1    
     4    1  129 1    
     5    2    3 2    
     6    2    4 am   BACKBONE|DICT|INTERRES
     7    4    5 1    
     8    4  130 1    
     9    5    6 1    
    10    5   65 1    
    11    5  131 1    
    12    6    7 1    
    13    6  132 1    
    14    6  133 1    
    15    7    8 1    
    16    8    9 1    
    17    8  134 1    
    18    8  135 1    
    19    9   10 ar   
    20    9   14 ar   
    21   10   11 ar   
    22   10  136 1    
    23   11   12 ar   
    24   11  126 1    
    25   12   13 ar   
    26   12  137 1    
    27   13   14 ar   
    28   13   15 1    
    29   14  138 1    
    30   15   16 1    
    31   15  139 1    
    32   15  140 1    
    33   16   17 1    
    34   17   18 1    
    35   17  141 1    
    36   17  142 1    
    37   18   19 1    
    38   18   67 1    
    39   18  143 1    
    40   19   20 am   BACKBONE|DICT|INTERRES
    41   19  144 1    
    42   20   21 2    
    43   20   22 1    
    44   22   23 1    
    45   22   24 1    
    46   22  145 1    
    47   23  146 1    
    48   23  147 1    
    49   23  148 1    
    50   24   25 am   BACKBONE|DICT|INTERRES
    51   24  149 1    
    52   25   26 2    
    53   25   27 1    
    54   27   28 1    
    55   27   29 1    
    56   27  150 1    
    57   28  151 1    
    58   28  152 1    
    59   28  153 1    
    60   29   30 am   BACKBONE|DICT|INTERRES
    61   29  154 1    
    62   30   31 2    
    63   30   32 1    
    64   32   33 1    
    65   32   34 1    
    66   32  155 1    
    67   33  156 1    
    68   33  157 1    
    69   33  158 1    
    70   34   35 am   BACKBONE|DICT|INTERRES
    71   34  159 1    
    72   35   36 2    
    73   35   37 1    
    74   37   38 1    
    75   37   39 1    
    76   37  160 1    
    77   38  161 1    
    78   38  162 1    
    79   38  163 1    
    80   39   40 am   BACKBONE|DICT|INTERRES
    81   39  164 1    
    82   40   41 2    
    83   40   42 1    
    84   42   43 1    
    85   42   44 1    
    86   42  165 1    
    87   43  166 1    
    88   43  167 1    
    89   43  168 1    
    90   44   45 am   BACKBONE|DICT|INTERRES
    91   44  169 1    
    92   45   46 2    
    93   45   47 1    
    94   47   48 1    
    95   47   49 1    
    96   47  170 1    
    97   48  171 1    
    98   48  172 1    
    99   48  173 1    
   100   49   50 am   BACKBONE|DICT|INTERRES
   101   49  174 1    
   102   50   51 2    
   103   50   52 1    
   104   52   53 1    
   105   52   54 1    
   106   52  175 1    
   107   53  176 1    
   108   53  177 1    
   109   53  178 1    
   110   54   55 am   BACKBONE|DICT|INTERRES
   111   54  179 1    
   112   55   56 2    
   113   55   57 1    
   114   57   58 1    
   115   57   59 1    
   116   57  180 1    
   117   58  181 1    
   118   58  182 1    
   119   58  183 1    
   120   59   60 am   BACKBONE|DICT|INTERRES
   121   59  184 1    
   122   60   61 2    
   123   60   62 1    
   124   62   63 1    
   125   62   64 1    
   126   62  185 1    
   127   63  186 1    
   128   63  187 1    
   129   63  188 1    
   130   64   65 am   BACKBONE|DICT|INTERRES
   131   64  189 1    
   132   65   66 2    
   133   67   68 2    
   134   67   69 am   BACKBONE|DICT|INTERRES
   135   69   70 1    
   136   69  190 1    
   137   70   71 1    
   138   70   72 1    
   139   70  191 1    
   140   71  192 1    
   141   71  193 1    
   142   71  194 1    
   143   72   73 2    
   144   72   74 am   BACKBONE|DICT|INTERRES
   145   74   75 1    
   146   74  195 1    
   147   75   76 1    
   148   75   77 1    
   149   75  196 1    
   150   76  197 1    
   151   76  198 1    
   152   76  199 1    
   153   77   78 2    
   154   77   79 am   BACKBONE|DICT|INTERRES
   155   79   80 1    
   156   79  200 1    
   157   80   81 1    
   158   80   82 1    
   159   80  201 1    
   160   81  202 1    
   161   81  203 1    
   162   81  204 1    
   163   82   83 2    
   164   82   84 am   BACKBONE|DICT|INTERRES
   165   84   85 1    
   166   84  205 1    
   167   85   86 1    
   168   85   87 1    
   169   85  206 1    
   170   86  207 1    
   171   86  208 1    
   172   86  209 1    
   173   87   88 2    
   174   87   89 am   BACKBONE|DICT|INTERRES
   175   89   90 1    
   176   89  210 1    
   177   90   91 1    
   178   90   92 1    
   179   90  211 1    
   180   91  212 1    
   181   91  213 1    
   182   91  214 1    
   183   92   93 2    
   184   92   94 am   BACKBONE|DICT|INTERRES
   185   94   95 1    
   186   94  215 1    
   187   95   96 1    
   188   95   97 1    
   189   95  216 1    
   190   96  217 1    
   191   96  218 1    
   192   96  219 1    
   193   97   98 2    
   194   97   99 am   BACKBONE|DICT|INTERRES
   195   99  100 1    
   196   99  220 1    
   197  100  101 1    
   198  100  102 1    
   199  100  221 1    
   200  101  222 1    
   201  101  223 1    
   202  101  224 1    
   203  102  103 2    
   204  102  104 am   BACKBONE|DICT|INTERRES
   205  104  105 1    
   206  104  225 1    
   207  105  106 1    
   208  105  107 1    
   209  105  226 1    
   210  106  227 1    
   211  106  228 1    
   212  106  229 1    
   213  107  108 2    
   214  107  109 am   BACKBONE|DICT|INTERRES
   215  109  110 1    
   216  109  230 1    
   217  110  111 1    
   218  110  112 1    
   219  110  231 1    
   220  111  232 1    
   221  111  233 1    
   222  111  234 1    
   223  112  113 2    
   224  112  114 am   BACKBONE|DICT|INTERRES
   225  114  115 1    
   226  114  235 1    
   227  115  116 1    
   228  115  117 1    
   229  115  236 1    
   230  116  237 1    
   231  116  238 1    
   232  116  239 1    
   233  117  118 2    
   234  117  119 am   BACKBONE|DICT|INTERRES
   235  119  120 1    
   236  119  240 1    
   237  120  121 1    
   238  120  124 1    
   239  120  241 1    
   240  121  122 am   BACKBONE|DICT|INTERRES
   241  121  123 2    
   242  122  242 1    
   243  122  243 1    
   244  124  125 1    
   245  124  244 1    
   246  124  245 1    
   247  125  126 1    
   248  126  246 1    
   249  126  247 1    
@<TRIPOS>SUBSTRUCTURE
     1 UNK         1 GROUP             0       ****    0 ROOT    
