@<TRIPOS>MOLECULE
3R540
247   249    1
SMALL
USER_CHARGES


@<TRIPOS>ATOM
      1 CA         -1.8586  -15.2518  -47.7542 C.3       0 UNK        -0.1800 
      2 C          -0.9538  -14.0501  -47.9805 C.2       0 UNK         0.5000 
      3 O          -1.1376  -13.0171  -47.3375 O.2       0 UNK        -0.5000 
      4 N           0.0167  -14.1760  -48.8962 N.am      1 UNK        -0.5000 
      5 CA          0.9727  -13.1151  -49.2428 C.3       1 UNK         0.1400 
      6 C6          1.6348  -13.3577  -50.6246 C.3       23 UNK        -0.0398 
      7 S7          2.7426  -14.8136  -50.6913 S.3       23 UNK        -0.2404 
      8 C8          2.0457  -15.7753  -52.0710 C.3       23 UNK        -0.0205 
      9 C9          0.6844  -16.3791  -51.7543 C.ar      23 UNK        -0.0193 
     10 C10        -0.3924  -16.1708  -52.6184 C.ar      23 UNK        -0.1150 
     11 C11        -1.6301  -16.7722  -52.3728 C.ar      23 UNK        -0.0193 
     12 C12        -1.7948  -17.5745  -51.2397 C.ar      23 UNK        -0.1150 
     13 C13        -0.7288  -17.7777  -50.3577 C.ar      23 UNK        -0.0193 
     14 C14         0.5070  -17.1804  -50.6237 C.ar      23 UNK        -0.1150 
     15 C15        -0.9161  -18.5962  -49.0902 C.3       23 UNK        -0.0205 
     16 S16         0.2604  -19.9816  -48.9763 S.3       23 UNK        -0.2404 
     17 C17         0.3318  -20.1950  -47.1642 C.3       23 UNK        -0.0398 
     18 CA         -0.3523  -21.4715  -46.6245 C.3       11 UNK         0.1400 
     19 N          -0.0987  -21.6025  -45.1879 N.am      11 UNK        -0.5000 
     20 C          -0.3445  -22.6915  -44.4503 C.2       10 UNK         0.5000 
     21 O          -0.7880  -23.7430  -44.9072 O.2       10 UNK        -0.5000 
     22 CA         -0.1043  -22.5641  -42.9354 C.3       10 UNK         0.1400 
     23 CB          1.3878  -22.7112  -42.6032 C.3       10 UNK        -0.1800 
     24 N          -0.6141  -21.3027  -42.3932 N.am      10 UNK        -0.5000 
     25 C          -1.9084  -20.9521  -42.3962 C.2       9 UNK         0.5000 
     26 O          -2.8079  -21.6793  -42.8156 O.2       9 UNK        -0.5000 
     27 CA         -2.2581  -19.5427  -41.8879 C.3       9 UNK         0.1400 
     28 CB         -2.3060  -19.5164  -40.3532 C.3       9 UNK        -0.1800 
     29 N          -1.3369  -18.5151  -42.3755 N.am      9 UNK        -0.5000 
     30 C          -1.1834  -18.1751  -43.6638 C.2       8 UNK         0.5000 
     31 O          -1.8274  -18.6762  -44.5839 O.2       8 UNK        -0.5000 
     32 CA         -0.0829  -17.1484  -43.9903 C.3       8 UNK         0.1400 
     33 CB         -0.5476  -15.7168  -43.6867 C.3       8 UNK        -0.1800 
     34 N           1.1643  -17.4276  -43.2797 N.am      8 UNK        -0.5000 
     35 C           1.8876  -18.5462  -43.4352 C.2       7 UNK         0.5000 
     36 O           1.6090  -19.4379  -44.2371 O.2       7 UNK        -0.5000 
     37 CA          3.0923  -18.7223  -42.4978 C.3       7 UNK         0.1400 
     38 CB          4.3064  -17.9354  -43.0102 C.3       7 UNK        -0.1800 
     39 N           2.7769  -18.3139  -41.1290 N.am      7 UNK        -0.5000 
     40 C           1.9476  -18.9848  -40.3168 C.2       6 UNK         0.5000 
     41 O           1.3860  -20.0346  -40.6283 O.2       6 UNK        -0.5000 
     42 CA          1.6679  -18.3543  -38.9408 C.3       6 UNK         0.1400 
     43 CB          2.7913  -18.6933  -37.9498 C.3       6 UNK        -0.1800 
     44 N           1.5026  -16.9018  -39.0108 N.am      6 UNK        -0.5000 
     45 C           0.4924  -16.2850  -39.6400 C.2       5 UNK         0.5000 
     46 O          -0.4233  -16.8780  -40.2071 O.2       5 UNK        -0.5000 
     47 CA          0.5350  -14.7476  -39.6820 C.3       5 UNK         0.1400 
     48 CB         -0.1375  -14.1547  -38.4351 C.3       5 UNK        -0.1800 
     49 N           1.8899  -14.2056  -39.8086 N.am      5 UNK        -0.5000 
     50 C           2.7042  -14.4269  -40.8480 C.2       4 UNK         0.5000 
     51 O           2.4247  -15.1617  -41.7991 O.2       4 UNK        -0.5000 
     52 CA          4.0709  -13.7273  -40.8077 C.3       4 UNK         0.1400 
     53 CB          5.2120  -14.7522  -40.7148 C.3       4 UNK        -0.1800 
     54 N           4.2445  -12.9151  -42.0068 N.am      4 UNK        -0.5000 
     55 C           3.6888  -11.7102  -42.1940 C.2       3 UNK         0.5000 
     56 O           3.0515  -11.1083  -41.3285 O.2       3 UNK        -0.5000 
     57 CA          3.8724  -11.0720  -43.5837 C.3       3 UNK         0.1400 
     58 CB          5.1264  -10.1846  -43.6083 C.3       3 UNK        -0.1800 
     59 N           3.9676  -12.0692  -44.6524 N.am      3 UNK        -0.5000 
     60 C           2.9272  -12.7684  -45.1234 C.2       2 UNK         0.5000 
     61 O           1.7678  -12.6287  -44.7281 O.2       2 UNK        -0.5000 
     62 CA          3.2507  -13.8225  -46.1974 C.3       2 UNK         0.1400 
     63 CB          3.3451  -15.2199  -45.5655 C.3       2 UNK        -0.1800 
     64 N           2.2590  -13.8509  -47.2703 N.am      2 UNK        -0.5000 
     65 C           2.0309  -12.8580  -48.1428 C.2       1 UNK         0.5000 
     66 O           2.6354  -11.7840  -48.1284 O.2       1 UNK        -0.5000 
     67 C          -1.8611  -21.5309  -46.9606 C.2       11 UNK         0.5000 
     68 O          -2.2310  -22.1044  -47.9835 O.2       11 UNK        -0.5000 
     69 N          -2.7131  -20.9642  -46.0953 N.am      12 UNK        -0.5000 
     70 CA         -4.1693  -21.0432  -46.2138 C.3       12 UNK         0.1400 
     71 CB         -4.8198  -20.0055  -45.2872 C.3       12 UNK        -0.1800 
     72 C          -4.7148  -22.4558  -45.9273 C.2       12 UNK         0.5000 
     73 O          -5.6900  -22.8607  -46.5588 O.2       12 UNK        -0.5000 
     74 N          -4.0849  -23.1783  -44.9899 N.am      13 UNK        -0.5000 
     75 CA         -4.4079  -24.5638  -44.6504 C.3       13 UNK         0.1400 
     76 CB         -3.7940  -24.9209  -43.2871 C.3       13 UNK        -0.1800 
     77 C          -3.9484  -25.5408  -45.7471 C.2       13 UNK         0.5000 
     78 O          -4.7667  -26.2896  -46.2833 O.2       13 UNK        -0.5000 
     79 N          -2.6557  -25.4920  -46.0933 N.am      14 UNK        -0.5000 
     80 CA         -2.0442  -26.2442  -47.1883 C.3       14 UNK         0.1400 
     81 CB         -0.5694  -26.5206  -46.8454 C.3       14 UNK        -0.1800 
     82 C          -2.2130  -25.4555  -48.4988 C.2       14 UNK         0.5000 
     83 O          -1.2354  -24.9512  -49.0544 O.2       14 UNK        -0.5000 
     84 N          -3.4730  -25.3309  -48.9342 N.am      15 UNK        -0.5000 
     85 CA         -3.9860  -24.4244  -49.9653 C.3       15 UNK         0.1400 
     86 CB         -5.5167  -24.3761  -49.8304 C.3       15 UNK        -0.1800 
     87 C          -3.5381  -24.7087  -51.4181 C.2       15 UNK         0.5000 
     88 O          -4.3265  -24.5287  -52.3476 O.2       15 UNK        -0.5000 
     89 N          -2.2718  -25.0961  -51.6085 N.am      16 UNK        -0.5000 
     90 CA         -1.6294  -25.3246  -52.9061 C.3       16 UNK         0.1400 
     91 CB         -0.2370  -25.9296  -52.6731 C.3       16 UNK        -0.1800 
     92 C          -1.5323  -24.0520  -53.7718 C.2       16 UNK         0.5000 
     93 O          -1.4871  -24.1546  -54.9973 O.2       16 UNK        -0.5000 
     94 N          -1.5258  -22.8831  -53.1200 N.am      17 UNK        -0.5000 
     95 CA         -1.7001  -21.5791  -53.7501 C.3       17 UNK         0.1400 
     96 CB         -0.7234  -20.5723  -53.1184 C.3       17 UNK        -0.1800 
     97 C          -3.1612  -21.1261  -53.5938 C.2       17 UNK         0.5000 
     98 O          -3.8463  -20.9106  -54.5949 O.2       17 UNK        -0.5000 
     99 N          -3.6102  -21.0226  -52.3338 N.am      18 UNK        -0.5000 
    100 CA        -4.8667  -20.4000  -51.9072 C.3       18 UNK         0.1400 
    101 CB        -4.8983  -20.3693  -50.3696 C.3       18 UNK        -0.1800 
    102 C         -6.1723  -21.0103  -52.4585 C.2       18 UNK         0.5000 
    103 O         -7.1922  -20.3188  -52.4416 O.2       18 UNK        -0.5000 
    104 N         -6.1439  -22.2610  -52.9356 N.am      19 UNK        -0.5000 
    105 CA        -7.3001  -22.9471  -53.5183 C.3       19 UNK         0.1400 
    106 CB        -7.8156  -24.0167  -52.5385 C.3       19 UNK        -0.1800 
    107 C         -6.9904  -23.5311  -54.9086 C.2       19 UNK         0.5000 
    108 O         -7.7055  -24.4325  -55.3512 O.2       19 UNK        -0.5000 
    109 N         -5.9567  -23.0164  -55.5889 N.am      20 UNK        -0.5000 
    110 CA        -5.5844  -23.4471  -56.9352 C.3       20 UNK         0.1400 
    111 CB        -4.5465  -24.5809  -56.8651 C.3       20 UNK        -0.1800 
    112 C         -5.1144  -22.2490  -57.7680 C.2       20 UNK         0.5000 
    113 O         -5.8763  -21.7574  -58.6014 O.2       20 UNK        -0.5000 
    114 N         -3.8754  -21.7988  -57.5330 N.am      21 UNK        -0.5000 
    115 CA        -3.2324  -20.7080  -58.2712 C.3       21 UNK         0.1400 
    116 CB        -1.7391  -20.6729  -57.9112 C.3       21 UNK        -0.1800 
    117 C         -3.8703  -19.3285  -58.0206 C.2       21 UNK         0.5000 
    118 O         -3.8823  -18.4903  -58.9235 O.2       21 UNK        -0.5000 
    119 N         -4.3758  -19.1187  -56.8031 N.am      22 UNK        -0.5000 
    120 CA        -4.9195  -17.8459  -56.3117 C.3       22 UNK         0.1400 
    121 C         -5.9776  -18.0502  -55.1920 C.2       22 UNK         0.5000 
    122 N         -6.7037  -19.1607  -55.1908 N.am      22 UNK        -0.7600 
    123 O         -6.1578  -17.2020  -54.3228 O.2       22 UNK        -0.5000 
    124 C124       -3.8041  -16.8188  -55.9678 C.3       23 UNK        -0.0398 
    125 S125       -2.4898  -17.4791  -54.8839 S.3       23 UNK        -0.2404 
    126 C126       -2.7765  -16.5548  -53.3462 C.3       23 UNK        -0.0205 
    127 H127       -2.8407  -14.9292  -47.4083 H         1 UNK         0.0600 
    128 H128       -1.4317  -15.9105  -46.9981 H         1 UNK         0.0600 
    129 H129       -2.0012  -15.8147  -48.6758 H         1 UNK         0.0600 
    130 H130        0.1181  -15.0402  -49.4110 H         1 UNK         0.3000 
    131 H131        0.4010  -12.1886  -49.3310 H         1 UNK         0.0600 
    132 H132        0.8596  -13.4529  -51.3860 H         1 UNK         0.0800 
    133 H133        2.2174  -12.4820  -50.9159 H         1 UNK         0.0800 
    134 H134        2.7339  -16.5864  -52.3122 H         1 UNK         0.0800 
    135 H135        1.9981  -15.1409  -52.9576 H         1 UNK         0.0800 
    136 H136       -0.2649  -15.5604  -53.5016 H         1 UNK         0.1150 
    137 H137       -2.7531  -18.0335  -51.0438 H         1 UNK         0.1150 
    138 H138        1.3364  -17.3453  -49.9499 H         1 UNK         0.1150 
    139 H139       -0.7785  -17.9247  -48.2437 H         1 UNK         0.0800 
    140 H140       -1.9318  -18.9863  -49.0152 H         1 UNK         0.0800 
    141 H141       -0.0687  -19.3154  -46.6594 H         1 UNK         0.0800 
    142 H142        1.3897  -20.2192  -46.8983 H         1 UNK         0.0800 
    143 H143        0.1136  -22.3308  -47.1121 H         1 UNK         0.0600 
    144 H144        0.3082  -20.7915  -44.7300 H         1 UNK         0.3000 
    145 H145       -0.6415  -23.3787  -42.4453 H         1 UNK         0.0600 
    146 H146        1.9793  -21.9028  -43.0332 H         1 UNK         0.0600 
    147 H147        1.5527  -22.7090  -41.5257 H         1 UNK         0.0600 
    148 H148        1.7834  -23.6508  -42.9907 H         1 UNK         0.0600 
    149 H149        0.0679  -20.6743  -41.9797 H         1 UNK         0.3000 
    150 H150       -3.2545  -19.2959  -42.2597 H         1 UNK         0.0600 
    151 H151       -2.9908  -20.2739  -39.9698 H         1 UNK         0.0600 
    152 H152       -2.6531  -18.5501  -39.9871 H         1 UNK         0.0600 
    153 H153       -1.3255  -19.7071  -39.9160 H         1 UNK         0.0600 
    154 H154       -0.8036  -18.0161  -41.6681 H         1 UNK         0.3000 
    155 H155        0.1256  -17.2141  -45.0602 H         1 UNK         0.0600 
    156 H156        0.2150  -14.9865  -43.9586 H         1 UNK         0.0600 
    157 H157       -1.4481  -15.4717  -44.2511 H         1 UNK         0.0600 
    158 H158       -0.7756  -15.5822  -42.6297 H         1 UNK         0.0600 
    159 H159        1.4879  -16.7233  -42.6234 H         1 UNK         0.3000 
    160 H160        3.3563  -19.7819  -42.4865 H         1 UNK         0.0600 
    161 H161        4.5784  -18.2517  -44.0180 H         1 UNK         0.0600 
    162 H162        5.1768  -18.0913  -42.3729 H         1 UNK         0.0600 
    163 H163        4.1037  -16.8661  -43.0476 H         1 UNK         0.0600 
    164 H164        3.1509  -17.4293  -40.8199 H         1 UNK         0.3000 
    165 H165        0.7378  -18.7830  -38.5617 H         1 UNK         0.0600 
    166 H166        2.5628  -18.3186  -36.9519 H         1 UNK         0.0600 
    167 H167        2.9255  -19.7727  -37.8674 H         1 UNK         0.0600 
    168 H168        3.7462  -18.2662  -38.2588 H         1 UNK         0.0600 
    169 H169        2.2132  -16.3363  -38.5707 H         1 UNK         0.3000 
    170 H170       -0.0318  -14.4273  -40.5585 H         1 UNK         0.0600 
    171 H171       -1.1573  -14.5270  -38.3277 H         1 UNK         0.0600 
    172 H172        0.4036  -14.4117  -37.5237 H         1 UNK         0.0600 
    173 H173       -0.1952  -13.0678  -38.4971 H         1 UNK         0.0600 
    174 H174        2.1944  -13.5844  -39.0729 H         1 UNK         0.3000 
    175 H175        4.1230  -13.0827  -39.9275 H         1 UNK         0.0600 
    176 H176        5.2565  -15.3922  -41.5956 H         1 UNK         0.0600 
    177 H177        6.1772  -14.2550  -40.6172 H         1 UNK         0.0600 
    178 H178        5.0899  -15.3973  -39.8438 H         1 UNK         0.0600 
    179 H179        4.7131  -13.3535  -42.7848 H         1 UNK         0.3000 
    180 H180        3.0039  -10.4381  -43.7758 H         1 UNK         0.0600 
    181 H181        6.0344  -10.7631  -43.4335 H         1 UNK         0.0600 
    182 H182        5.0745   -9.4148  -42.8371 H         1 UNK         0.0600 
    183 H183        5.2308   -9.6757  -44.5667 H         1 UNK         0.0600 
    184 H184        4.8874  -12.2320  -45.0364 H         1 UNK         0.3000 
    185 H185        4.2162  -13.5833  -46.6481 H         1 UNK         0.0600 
    186 H186        2.4045  -15.5156  -45.1002 H         1 UNK         0.0600 
    187 H187        3.6070  -15.9759  -46.3060 H         1 UNK         0.0600 
    188 H188        4.1135  -15.2426  -44.7925 H         1 UNK         0.0600 
    189 H189        1.6965  -14.6841  -47.3464 H         1 UNK         0.3000 
    190 H190       -2.3454  -20.4260  -45.3170 H         1 UNK         0.3000 
    191 H191       -4.4391  -20.7884  -47.2409 H         1 UNK         0.0600 
    192 H192       -4.5813  -20.1931  -44.2405 H         1 UNK         0.0600 
    193 H193       -5.9060  -20.0226  -45.3845 H         1 UNK         0.0600 
    194 H194       -4.4871  -18.9963  -45.5308 H         1 UNK         0.0600 
    195 H195       -3.3403  -22.7391  -44.4591 H         1 UNK         0.3000 
    196 H196       -5.4927  -24.6504  -44.5595 H         1 UNK         0.0600 
    197 H197       -2.7086  -24.8212  -43.2892 H         1 UNK         0.0600 
    198 H198       -4.0294  -25.9492  -43.0104 H         1 UNK         0.0600 
    199 H199       -4.1841  -24.2745  -42.5007 H         1 UNK         0.0600 
    200 H200       -2.0480  -24.8171  -45.6307 H         1 UNK         0.3000 
    201 H201       -2.5463  -27.2069  -47.3043 H         1 UNK         0.0600 
    202 H202       -0.4804  -27.0838  -45.9164 H         1 UNK         0.0600 
    203 H203        0.0003  -25.5976  -46.7315 H         1 UNK         0.0600 
    204 H204       -0.0906  -27.1073  -47.6301 H         1 UNK         0.0600 
    205 H205       -4.1837  -25.7937  -48.3810 H         1 UNK         0.3000 
    206 H206       -3.6087  -23.4298  -49.7285 H         1 UNK         0.0600 
    207 H207       -5.9780  -25.3108  -50.1512 H         1 UNK         0.0600 
    208 H208       -5.8223  -24.1916  -48.8016 H         1 UNK         0.0600 
    209 H209       -5.9356  -23.5710  -50.4316 H         1 UNK         0.0600 
    210 H210       -1.6831  -25.1680  -50.7805 H         1 UNK         0.3000 
    211 H211       -2.2339  -26.0489  -53.4558 H         1 UNK         0.0600 
    212 H212        0.4022  -25.2565  -52.1003 H         1 UNK         0.0600 
    213 H213        0.2643  -26.1345  -53.6200 H         1 UNK         0.0600 
    214 H214       -0.3029  -26.8725  -52.1298 H         1 UNK         0.0600 
    215 H215       -1.5372  -22.9131  -52.1117 H         1 UNK         0.3000 
    216 H216       -1.4773  -21.6366  -54.8167 H         1 UNK         0.0600 
    217 H217       -0.8457  -19.5806  -53.5538 H         1 UNK         0.0600 
    218 H218        0.3105  -20.8723  -53.2888 H         1 UNK         0.0600 
    219 H219       -0.8649  -20.4761  -52.0414 H         1 UNK         0.0600 
    220 H220       -2.9689  -21.2423  -51.5882 H         1 UNK         0.3000 
    221 H221       -4.8384  -19.3676  -52.2626 H         1 UNK         0.0600 
    222 H222       -5.7911  -19.8591  -50.0055 H         1 UNK         0.0600 
    223 H223       -4.9014  -21.3728  -49.9451 H         1 UNK         0.0600 
    224 H224       -4.0381  -19.8390  -49.9628 H         1 UNK         0.0600 
    225 H225       -5.2859  -22.8016  -52.8914 H         1 UNK         0.3000 
    226 H226       -8.1145  -22.2401  -53.6863 H         1 UNK         0.0600 
    227 H227       -8.0597  -23.5796  -51.5705 H         1 UNK         0.0600 
    228 H228       -8.7244  -24.4901  -52.9117 H         1 UNK         0.0600 
    229 H229       -7.0774  -24.8034  -52.3816 H         1 UNK         0.0600 
    230 H230       -5.4135  -22.2631  -55.1809 H         1 UNK         0.3000 
    231 H231       -6.4620  -23.8398  -57.4538 H         1 UNK         0.0600 
    232 H232       -4.1934  -24.8551  -57.8600 H         1 UNK         0.0600 
    233 H233       -4.9757  -25.4757  -56.4140 H         1 UNK         0.0600 
    234 H234       -3.6807  -24.2974  -56.2710 H         1 UNK         0.0600 
    235 H235       -3.3281  -22.2366  -56.8060 H         1 UNK         0.3000 
    236 H236       -3.3216  -20.9261  -59.3375 H         1 UNK         0.0600 
    237 H237       -1.2137  -19.9248  -58.5062 H         1 UNK         0.0600 
    238 H238       -1.2607  -21.6340  -58.1010 H         1 UNK         0.0600 
    239 H239       -1.5857  -20.4192  -56.8619 H         1 UNK         0.0600 
    240 H240       -4.2763  -19.8434  -56.0960 H         1 UNK         0.3000 
    241 H241       -5.5011  -17.4086  -57.1251 H         1 UNK         0.0600 
    242 H242       -7.3506  -19.3198  -54.4311 H         1 UNK         0.3800 
    243 H243       -6.6095  -19.8376  -55.9296 H         1 UNK         0.3800 
    244 H244       -4.2267  -15.9078  -55.5417 H         1 UNK         0.0800 
    245 H245       -3.3211  -16.5002  -56.8921 H         1 UNK         0.0800 
    246 H246       -3.7261  -16.8657  -52.9081 H         1 UNK         0.0800 
    247 H247       -2.8641  -15.4897  -53.5653 H         1 UNK         0.0800 
@<TRIPOS>BOND
     1    1    2 1    
     2    1  127 1    
     3    1  128 1    
     4    1  129 1    
     5    2    3 2    
     6    2    4 am   BACKBONE|DICT|INTERRES
     7    4    5 1    
     8    4  130 1    
     9    5    6 1    
    10    5   65 1    
    11    5  131 1    
    12    6    7 1    
    13    6  132 1    
    14    6  133 1    
    15    7    8 1    
    16    8    9 1    
    17    8  134 1    
    18    8  135 1    
    19    9   10 ar   
    20    9   14 ar   
    21   10   11 ar   
    22   10  136 1    
    23   11   12 ar   
    24   11  126 1    
    25   12   13 ar   
    26   12  137 1    
    27   13   14 ar   
    28   13   15 1    
    29   14  138 1    
    30   15   16 1    
    31   15  139 1    
    32   15  140 1    
    33   16   17 1    
    34   17   18 1    
    35   17  141 1    
    36   17  142 1    
    37   18   19 1    
    38   18   67 1    
    39   18  143 1    
    40   19   20 am   BACKBONE|DICT|INTERRES
    41   19  144 1    
    42   20   21 2    
    43   20   22 1    
    44   22   23 1    
    45   22   24 1    
    46   22  145 1    
    47   23  146 1    
    48   23  147 1    
    49   23  148 1    
    50   24   25 am   BACKBONE|DICT|INTERRES
    51   24  149 1    
    52   25   26 2    
    53   25   27 1    
    54   27   28 1    
    55   27   29 1    
    56   27  150 1    
    57   28  151 1    
    58   28  152 1    
    59   28  153 1    
    60   29   30 am   BACKBONE|DICT|INTERRES
    61   29  154 1    
    62   30   31 2    
    63   30   32 1    
    64   32   33 1    
    65   32   34 1    
    66   32  155 1    
    67   33  156 1    
    68   33  157 1    
    69   33  158 1    
    70   34   35 am   BACKBONE|DICT|INTERRES
    71   34  159 1    
    72   35   36 2    
    73   35   37 1    
    74   37   38 1    
    75   37   39 1    
    76   37  160 1    
    77   38  161 1    
    78   38  162 1    
    79   38  163 1    
    80   39   40 am   BACKBONE|DICT|INTERRES
    81   39  164 1    
    82   40   41 2    
    83   40   42 1    
    84   42   43 1    
    85   42   44 1    
    86   42  165 1    
    87   43  166 1    
    88   43  167 1    
    89   43  168 1    
    90   44   45 am   BACKBONE|DICT|INTERRES
    91   44  169 1    
    92   45   46 2    
    93   45   47 1    
    94   47   48 1    
    95   47   49 1    
    96   47  170 1    
    97   48  171 1    
    98   48  172 1    
    99   48  173 1    
   100   49   50 am   BACKBONE|DICT|INTERRES
   101   49  174 1    
   102   50   51 2    
   103   50   52 1    
   104   52   53 1    
   105   52   54 1    
   106   52  175 1    
   107   53  176 1    
   108   53  177 1    
   109   53  178 1    
   110   54   55 am   BACKBONE|DICT|INTERRES
   111   54  179 1    
   112   55   56 2    
   113   55   57 1    
   114   57   58 1    
   115   57   59 1    
   116   57  180 1    
   117   58  181 1    
   118   58  182 1    
   119   58  183 1    
   120   59   60 am   BACKBONE|DICT|INTERRES
   121   59  184 1    
   122   60   61 2    
   123   60   62 1    
   124   62   63 1    
   125   62   64 1    
   126   62  185 1    
   127   63  186 1    
   128   63  187 1    
   129   63  188 1    
   130   64   65 am   BACKBONE|DICT|INTERRES
   131   64  189 1    
   132   65   66 2    
   133   67   68 2    
   134   67   69 am   BACKBONE|DICT|INTERRES
   135   69   70 1    
   136   69  190 1    
   137   70   71 1    
   138   70   72 1    
   139   70  191 1    
   140   71  192 1    
   141   71  193 1    
   142   71  194 1    
   143   72   73 2    
   144   72   74 am   BACKBONE|DICT|INTERRES
   145   74   75 1    
   146   74  195 1    
   147   75   76 1    
   148   75   77 1    
   149   75  196 1    
   150   76  197 1    
   151   76  198 1    
   152   76  199 1    
   153   77   78 2    
   154   77   79 am   BACKBONE|DICT|INTERRES
   155   79   80 1    
   156   79  200 1    
   157   80   81 1    
   158   80   82 1    
   159   80  201 1    
   160   81  202 1    
   161   81  203 1    
   162   81  204 1    
   163   82   83 2    
   164   82   84 am   BACKBONE|DICT|INTERRES
   165   84   85 1    
   166   84  205 1    
   167   85   86 1    
   168   85   87 1    
   169   85  206 1    
   170   86  207 1    
   171   86  208 1    
   172   86  209 1    
   173   87   88 2    
   174   87   89 am   BACKBONE|DICT|INTERRES
   175   89   90 1    
   176   89  210 1    
   177   90   91 1    
   178   90   92 1    
   179   90  211 1    
   180   91  212 1    
   181   91  213 1    
   182   91  214 1    
   183   92   93 2    
   184   92   94 am   BACKBONE|DICT|INTERRES
   185   94   95 1    
   186   94  215 1    
   187   95   96 1    
   188   95   97 1    
   189   95  216 1    
   190   96  217 1    
   191   96  218 1    
   192   96  219 1    
   193   97   98 2    
   194   97   99 am   BACKBONE|DICT|INTERRES
   195   99  100 1    
   196   99  220 1    
   197  100  101 1    
   198  100  102 1    
   199  100  221 1    
   200  101  222 1    
   201  101  223 1    
   202  101  224 1    
   203  102  103 2    
   204  102  104 am   BACKBONE|DICT|INTERRES
   205  104  105 1    
   206  104  225 1    
   207  105  106 1    
   208  105  107 1    
   209  105  226 1    
   210  106  227 1    
   211  106  228 1    
   212  106  229 1    
   213  107  108 2    
   214  107  109 am   BACKBONE|DICT|INTERRES
   215  109  110 1    
   216  109  230 1    
   217  110  111 1    
   218  110  112 1    
   219  110  231 1    
   220  111  232 1    
   221  111  233 1    
   222  111  234 1    
   223  112  113 2    
   224  112  114 am   BACKBONE|DICT|INTERRES
   225  114  115 1    
   226  114  235 1    
   227  115  116 1    
   228  115  117 1    
   229  115  236 1    
   230  116  237 1    
   231  116  238 1    
   232  116  239 1    
   233  117  118 2    
   234  117  119 am   BACKBONE|DICT|INTERRES
   235  119  120 1    
   236  119  240 1    
   237  120  121 1    
   238  120  124 1    
   239  120  241 1    
   240  121  122 am   BACKBONE|DICT|INTERRES
   241  121  123 2    
   242  122  242 1    
   243  122  243 1    
   244  124  125 1    
   245  124  244 1    
   246  124  245 1    
   247  125  126 1    
   248  126  246 1    
   249  126  247 1    
@<TRIPOS>SUBSTRUCTURE
     1 UNK         1 GROUP             0       ****    0 ROOT    
