@<TRIPOS>MOLECULE
3R540
247   249    1
SMALL
USER_CHARGES


@<TRIPOS>ATOM
      1 CA          6.2889  -10.8061  -47.0421 C.3       0 UNK        -0.1800 
      2 C           5.3490  -11.7422  -46.2980 C.2       0 UNK         0.5000 
      3 O           5.0039  -11.4777  -45.1463 O.2       0 UNK        -0.5000 
      4 N           4.9132  -12.8273  -46.9513 N.am      1 UNK        -0.5000 
      5 CA          4.0377  -13.8555  -46.3717 C.3       1 UNK         0.1400 
      6 C6          3.8593  -15.0765  -47.3008 C.3       23 UNK        -0.0398 
      7 S7          5.4330  -15.9313  -47.6480 S.3       23 UNK        -0.2404 
      8 C8          5.4586  -15.9441  -49.4692 C.3       23 UNK        -0.0205 
      9 C9          4.2842  -16.7189  -50.0505 C.ar      23 UNK        -0.0193 
     10 C10         3.2546  -16.0453  -50.7147 C.ar      23 UNK        -0.1150 
     11 C11         2.1714  -16.7523  -51.2409 C.ar      23 UNK        -0.0193 
     12 C12         2.1259  -18.1416  -51.1010 C.ar      23 UNK        -0.1150 
     13 C13         3.1512  -18.8337  -50.4458 C.ar      23 UNK        -0.0193 
     14 C14         4.2286  -18.1106  -49.9255 C.ar      23 UNK        -0.1150 
     15 C15         3.1474  -20.3573  -50.3223 C.3       23 UNK        -0.0205 
     16 S16         1.4880  -21.1182  -50.2939 S.3       23 UNK        -0.2404 
     17 C17         0.8409  -20.5285  -48.6931 C.3       23 UNK        -0.0398 
     18 CA          0.1352  -21.6640  -47.9151 C.3       11 UNK         0.1400 
     19 N           0.1379  -21.4320  -46.4679 N.am      11 UNK        -0.5000 
     20 C          -0.2195  -22.3484  -45.5568 C.2       10 UNK         0.5000 
     21 O          -0.5459  -23.4997  -45.8402 O.2       10 UNK        -0.5000 
     22 CA         -0.2755  -21.8935  -44.0885 C.3       10 UNK         0.1400 
     23 CB          1.1236  -21.9119  -43.4559 C.3       10 UNK        -0.1800 
     24 N          -0.8768  -20.5685  -43.9377 N.am      10 UNK        -0.5000 
     25 C          -2.1458  -20.2735  -44.2544 C.2       9 UNK         0.5000 
     26 O          -2.9610  -21.1083  -44.6461 O.2       9 UNK        -0.5000 
     27 CA         -2.5608  -18.7928  -44.1714 C.3       9 UNK         0.1400 
     28 CB         -2.9019  -18.4001  -42.7268 C.3       9 UNK        -0.1800 
     29 N          -1.5413  -17.8865  -44.7037 N.am      9 UNK        -0.5000 
     30 C          -1.1138  -17.8824  -45.9750 C.2       8 UNK         0.5000 
     31 O          -1.5598  -18.6240  -46.8493 O.2       8 UNK        -0.5000 
     32 CA          0.0502  -16.9352  -46.3146 C.3       8 UNK         0.1400 
     33 CB         -0.4489  -15.5019  -46.5488 C.3       8 UNK        -0.1800 
     34 N           1.0865  -16.9458  -45.2809 N.am      8 UNK        -0.5000 
     35 C           1.8558  -18.0108  -45.0096 C.2       7 UNK         0.5000 
     36 O           1.8074  -19.0656  -45.6431 O.2       7 UNK        -0.5000 
     37 CA          2.7992  -17.8964  -43.7989 C.3       7 UNK         0.1400 
     38 CB          4.0739  -17.1233  -44.1596 C.3       7 UNK        -0.1800 
     39 N           2.1571  -17.2587  -42.6500 N.am      7 UNK        -0.5000 
     40 C           1.1622  -17.8080  -41.9403 C.2       6 UNK         0.5000 
     41 O           0.6965  -18.9231  -42.1669 O.2       6 UNK        -0.5000 
     42 CA          0.5593  -16.9508  -40.8137 C.3       6 UNK         0.1400 
     43 CB          1.3623  -17.1210  -39.5161 C.3       6 UNK        -0.1800 
     44 N           0.4857  -15.5297  -41.1517 N.am      6 UNK        -0.5000 
     45 C          -0.2207  -15.0060  -42.1604 C.2       5 UNK         0.5000 
     46 O          -0.8932  -15.6789  -42.9416 O.2       5 UNK        -0.5000 
     47 CA         -0.1340  -13.4840  -42.3580 C.3       5 UNK         0.1400 
     48 CB         -1.0446  -12.7304  -41.3718 C.3       5 UNK        -0.1800 
     49 N           1.2360  -12.9622  -42.3411 N.am      5 UNK        -0.5000 
     50 C           2.1140  -12.8609  -41.3328 C.2       4 UNK         0.5000 
     51 O           1.8994  -13.2539  -40.1856 O.2       4 UNK        -0.5000 
     52 CA          3.4717  -12.2172  -41.6778 C.3       4 UNK         0.1400 
     53 CB          4.4752  -13.2945  -42.1175 C.3       4 UNK        -0.1800 
     54 N           3.3602  -11.2062  -42.7321 N.am      4 UNK        -0.5000 
     55 C           2.7217  -10.0335  -42.6010 C.2       3 UNK         0.5000 
     56 O           2.2643   -9.6157  -41.5367 O.2       3 UNK        -0.5000 
     57 CA          2.5195   -9.2148  -43.8878 C.3       3 UNK         0.1400 
     58 CB          3.7587   -8.3635  -44.2056 C.3       3 UNK        -0.1800 
     59 N           2.2056  -10.0805  -45.0263 N.am      3 UNK        -0.5000 
     60 C           1.0082  -10.6473  -45.2374 C.2       2 UNK         0.5000 
     61 O           0.0214  -10.4427  -44.5310 O.2       2 UNK        -0.5000 
     62 CA          0.8936  -11.6246  -46.4226 C.3       2 UNK         0.1400 
     63 CB          0.4280  -10.8886  -47.6874 C.3       2 UNK        -0.1800 
     64 N           2.1505  -12.3172  -46.7070 N.am      2 UNK        -0.5000 
     65 C           2.6556  -13.3097  -45.9614 C.2       1 UNK         0.5000 
     66 O           2.0879  -13.7833  -44.9772 O.2       1 UNK        -0.5000 
     67 C          -1.2877  -21.9292  -48.4554 C.2       11 UNK         0.5000 
     68 O          -1.4802  -22.8621  -49.2350 O.2       11 UNK        -0.5000 
     69 N          -2.2677  -21.1394  -47.9940 N.am      12 UNK        -0.5000 
     70 CA         -3.6857  -21.3018  -48.3133 C.3       12 UNK         0.1400 
     71 CB         -4.4792  -20.1116  -47.7562 C.3       12 UNK        -0.1800 
     72 C          -4.2714  -22.6360  -47.8146 C.2       12 UNK         0.5000 
     73 O          -5.0812  -23.2364  -48.5195 O.2       12 UNK        -0.5000 
     74 N          -3.8335  -23.0940  -46.6340 N.am      13 UNK        -0.5000 
     75 CA         -4.1690  -24.4088  -46.0875 C.3       13 UNK         0.1400 
     76 CB         -3.7728  -24.4709  -44.6046 C.3       13 UNK        -0.1800 
     77 C          -3.5145  -25.5516  -46.8866 C.2       13 UNK         0.5000 
     78 O          -4.1928  -26.5229  -47.2234 O.2       13 UNK        -0.5000 
     79 N          -2.2217  -25.3978  -47.2104 N.am      14 UNK        -0.5000 
     80 CA         -1.4205  -26.3510  -47.9857 C.3       14 UNK         0.1400 
     81 CB          0.0530  -25.9175  -47.9620 C.3       14 UNK        -0.1800 
     82 C          -1.9004  -26.5480  -49.4373 C.2       14 UNK         0.5000 
     83 O          -1.6316  -27.5995  -50.0196 O.2       14 UNK        -0.5000 
     84 N          -2.6194  -25.5575  -49.9859 N.am      15 UNK        -0.5000 
     85 CA         -3.2850  -25.6129  -51.2902 C.3       15 UNK         0.1400 
     86 CB         -3.8760  -24.2315  -51.6088 C.3       15 UNK        -0.1800 
     87 C          -4.3744  -26.7044  -51.3726 C.2       15 UNK         0.5000 
     88 O          -4.6152  -27.2293  -52.4606 O.2       15 UNK        -0.5000 
     89 N          -4.9718  -27.0505  -50.2203 N.am      16 UNK        -0.5000 
     90 CA         -5.9086  -28.1510  -49.9860 C.3       16 UNK         0.1400 
     91 CB         -5.1561  -29.4991  -50.0286 C.3       16 UNK        -0.1800 
     92 C          -7.1422  -28.1046  -50.9106 C.2       16 UNK         0.5000 
     93 O          -8.0894  -27.3743  -50.6174 O.2       16 UNK        -0.5000 
     94 N          -7.1156  -28.8927  -51.9936 N.am      17 UNK        -0.5000 
     95 CA         -8.1709  -28.9745  -53.0023 C.3       17 UNK         0.1400 
     96 CB         -7.9661  -30.2518  -53.8315 C.3       17 UNK        -0.1800 
     97 C          -8.2396  -27.7400  -53.9223 C.2       17 UNK         0.5000 
     98 O          -9.3067  -27.4674  -54.4750 O.2       17 UNK        -0.5000 
     99 N          -7.1200  -27.0196  -54.0818 N.am      18 UNK        -0.5000 
    100 CA        -7.0610  -25.7606  -54.8235 C.3       18 UNK         0.1400 
    101 CB        -5.6117  -25.4854  -55.2508 C.3       18 UNK        -0.1800 
    102 C         -7.6262  -24.6020  -53.9819 C.2       18 UNK         0.5000 
    103 O         -7.5683  -24.6440  -52.7499 O.2       18 UNK        -0.5000 
    104 N         -8.1600  -23.5824  -54.6649 N.am      19 UNK        -0.5000 
    105 CA        -8.8338  -22.4185  -54.0836 C.3       19 UNK         0.1400 
    106 CB        -9.7178  -21.7750  -55.1679 C.3       19 UNK        -0.1800 
    107 C         -7.8560  -21.4116  -53.4384 C.2       19 UNK         0.5000 
    108 O         -7.7521  -20.2711  -53.8950 O.2       19 UNK        -0.5000 
    109 N         -7.1669  -21.8620  -52.3816 N.am      20 UNK        -0.5000 
    110 CA        -6.1787  -21.1382  -51.5766 C.3       20 UNK         0.1400 
    111 CB        -6.8478  -19.9547  -50.8399 C.3       20 UNK        -0.1800 
    112 C         -4.9262  -20.7266  -52.3837 C.2       20 UNK         0.5000 
    113 O         -4.6518  -21.2962  -53.4428 O.2       20 UNK        -0.5000 
    114 N         -4.1710  -19.7608  -51.8531 N.am      21 UNK        -0.5000 
    115 CA        -2.9998  -19.1516  -52.4684 C.3       21 UNK         0.1400 
    116 CB        -1.7584  -20.0276  -52.2184 C.3       21 UNK        -0.1800 
    117 C         -2.8228  -17.7577  -51.8387 C.2       21 UNK         0.5000 
    118 O         -3.1973  -17.5872  -50.6772 O.2       21 UNK        -0.5000 
    119 N         -2.2603  -16.7616  -52.5347 N.am      22 UNK        -0.5000 
    120 CA        -1.8834  -16.7421  -53.9614 C.3       22 UNK         0.1400 
    121 C         -3.0673  -16.3898  -54.9122 C.2       22 UNK         0.5000 
    122 N         -4.2447  -16.0339  -54.4126 N.am      22 UNK        -0.7600 
    123 O         -2.9209  -16.4642  -56.1286 O.2       22 UNK        -0.5000 
    124 C124       -0.6710  -15.8023  -54.2014 C.3       23 UNK        -0.0398 
    125 S125        0.8986  -16.5715  -53.6848 S.3       23 UNK        -0.2404 
    126 C126        1.0414  -16.0262  -51.9539 C.3       23 UNK        -0.0205 
    127 H127        7.2393  -10.7337  -46.5135 H         1 UNK         0.0600 
    128 H128        5.8540   -9.8085  -47.1014 H         1 UNK         0.0600 
    129 H129        6.4879  -11.1531  -48.0563 H         1 UNK         0.0600 
    130 H130        5.2410  -13.0060  -47.8896 H         1 UNK         0.3000 
    131 H131        4.5251  -14.1945  -45.4564 H         1 UNK         0.0600 
    132 H132        3.3852  -14.7664  -48.2323 H         1 UNK         0.0800 
    133 H133        3.1883  -15.8115  -46.8542 H         1 UNK         0.0800 
    134 H134        6.3905  -16.4002  -49.8062 H         1 UNK         0.0800 
    135 H135        5.4704  -14.9174  -49.8381 H         1 UNK         0.0800 
    136 H136        3.2947  -14.9701  -50.8190 H         1 UNK         0.1150 
    137 H137        1.2898  -18.6787  -51.5249 H         1 UNK         0.1150 
    138 H138        5.0305  -18.6298  -49.4192 H         1 UNK         0.1150 
    139 H139        3.6977  -20.7673  -51.1698 H         1 UNK         0.0800 
    140 H140        3.6883  -20.6655  -49.4260 H         1 UNK         0.0800 
    141 H141        0.1811  -19.6742  -48.8565 H         1 UNK         0.0800 
    142 H142        1.6792  -20.1476  -48.1087 H         1 UNK         0.0800 
    143 H143        0.7110  -22.5795  -48.0670 H         1 UNK         0.0600 
    144 H144        0.4314  -20.5142  -46.1505 H         1 UNK         0.3000 
    145 H145       -0.9004  -22.6056  -43.5456 H         1 UNK         0.0600 
    146 H146        1.0767  -21.6824  -42.3913 H         1 UNK         0.0600 
    147 H147        1.5846  -22.8953  -43.5559 H         1 UNK         0.0600 
    148 H148        1.7893  -21.1874  -43.9249 H         1 UNK         0.0600 
    149 H149       -0.2819  -19.8407  -43.5523 H         1 UNK         0.3000 
    150 H150       -3.4606  -18.6663  -44.7765 H         1 UNK         0.0600 
    151 H151       -3.6954  -19.0333  -42.3280 H         1 UNK         0.0600 
    152 H152       -3.2484  -17.3681  -42.6696 H         1 UNK         0.0600 
    153 H153       -2.0399  -18.5007  -42.0680 H         1 UNK         0.0600 
    154 H154       -1.1528  -17.2070  -44.0550 H         1 UNK         0.3000 
    155 H155        0.4980  -17.2888  -47.2462 H         1 UNK         0.0600 
    156 H156       -0.8011  -15.0377  -45.6272 H         1 UNK         0.0600 
    157 H157       -1.2740  -15.4867  -47.2621 H         1 UNK         0.0600 
    158 H158        0.3411  -14.8761  -46.9614 H         1 UNK         0.0600 
    159 H159        1.1673  -16.1177  -44.7072 H         1 UNK         0.3000 
    160 H160        3.0884  -18.9092  -43.5102 H         1 UNK         0.0600 
    161 H161        3.8573  -16.0754  -44.3578 H         1 UNK         0.0600 
    162 H162        4.5504  -17.5405  -45.0477 H         1 UNK         0.0600 
    163 H163        4.8020  -17.1652  -43.3494 H         1 UNK         0.0600 
    164 H164        2.4687  -16.3316  -42.4029 H         1 UNK         0.3000 
    165 H165       -0.4582  -17.3034  -40.6354 H         1 UNK         0.0600 
    166 H166        0.8944  -16.5845  -38.6904 H         1 UNK         0.0600 
    167 H167        1.4222  -18.1715  -39.2283 H         1 UNK         0.0600 
    168 H168        2.3823  -16.7493  -39.6217 H         1 UNK         0.0600 
    169 H169        1.0169  -14.8842  -40.5732 H         1 UNK         0.3000 
    170 H170       -0.5063  -13.2804  -43.3635 H         1 UNK         0.0600 
    171 H171       -2.0799  -13.0579  -41.4733 H         1 UNK         0.0600 
    172 H172       -0.7521  -12.8943  -40.3345 H         1 UNK         0.0600 
    173 H173       -1.0224  -11.6571  -41.5616 H         1 UNK         0.0600 
    174 H174        1.5853  -12.7175  -43.2597 H         1 UNK         0.3000 
    175 H175        3.8540  -11.7334  -40.7767 H         1 UNK         0.0600 
    176 H176        5.4523  -12.8600  -42.3300 H         1 UNK         0.0600 
    177 H177        4.6138  -14.0424  -41.3358 H         1 UNK         0.0600 
    178 H178        4.1396  -13.8151  -43.0145 H         1 UNK         0.0600 
    179 H179        3.7827  -11.4289  -43.6289 H         1 UNK         0.3000 
    180 H180        1.6799   -8.5355  -43.7246 H         1 UNK         0.0600 
    181 H181        4.6468   -8.9757  -44.3619 H         1 UNK         0.0600 
    182 H182        3.9768   -7.6768  -43.3868 H         1 UNK         0.0600 
    183 H183        3.6043   -7.7619  -45.1013 H         1 UNK         0.0600 
    184 H184        2.9790  -10.3386  -45.6220 H         1 UNK         0.3000 
    185 H185        0.1373  -12.3694  -46.1648 H         1 UNK         0.0600 
    186 H186       -0.5215  -10.3798  -47.5156 H         1 UNK         0.0600 
    187 H187        1.1508  -10.1365  -48.0061 H         1 UNK         0.0600 
    188 H188        0.2780  -11.5831  -48.5143 H         1 UNK         0.0600 
    189 H189        2.6838  -11.9884  -47.4988 H         1 UNK         0.3000 
    190 H190       -2.0235  -20.3533  -47.3958 H         1 UNK         0.3000 
    191 H191       -3.7774  -21.2936  -49.4005 H         1 UNK         0.0600 
    192 H192       -4.3538  -20.0145  -46.6784 H         1 UNK         0.0600 
    193 H193       -5.5465  -20.2255  -47.9476 H         1 UNK         0.0600 
    194 H194       -4.1588  -19.1757  -48.2150 H         1 UNK         0.0600 
    195 H195       -3.2265  -22.5034  -46.0746 H         1 UNK         0.3000 
    196 H196       -5.2518  -24.5357  -46.1505 H         1 UNK         0.0600 
    197 H197       -4.0429  -25.4336  -44.1690 H         1 UNK         0.0600 
    198 H198       -4.2826  -23.6980  -44.0290 H         1 UNK         0.0600 
    199 H199       -2.7004  -24.3366  -44.4642 H         1 UNK         0.0600 
    200 H200       -1.7254  -24.5838  -46.8563 H         1 UNK         0.3000 
    201 H201       -1.4957  -27.3200  -47.4885 H         1 UNK         0.0600 
    202 H202        0.4318  -25.8591  -46.9416 H         1 UNK         0.0600 
    203 H203        0.1907  -24.9422  -48.4286 H         1 UNK         0.0600 
    204 H204        0.6799  -26.6298  -48.4999 H         1 UNK         0.0600 
    205 H205       -2.7081  -24.6937  -49.4649 H         1 UNK         0.3000 
    206 H206       -2.5242  -25.8427  -52.0385 H         1 UNK         0.0600 
    207 H207       -3.1359  -23.4400  -51.4875 H         1 UNK         0.0600 
    208 H208       -4.2330  -24.1816  -52.6363 H         1 UNK         0.0600 
    209 H209       -4.7240  -24.0039  -50.9647 H         1 UNK         0.0600 
    210 H210       -4.6952  -26.5490  -49.3847 H         1 UNK         0.3000 
    211 H211       -6.2831  -28.0208  -48.9695 H         1 UNK         0.0600 
    212 H212       -4.6585  -29.6677  -50.9841 H         1 UNK         0.0600 
    213 H213       -5.8346  -30.3349  -49.8527 H         1 UNK         0.0600 
    214 H214       -4.3911  -29.5374  -49.2527 H         1 UNK         0.0600 
    215 H215       -6.2794  -29.4306  -52.1695 H         1 UNK         0.3000 
    216 H216       -9.1307  -29.0536  -52.4874 H         1 UNK         0.0600 
    217 H217       -8.7539  -30.3639  -54.5777 H         1 UNK         0.0600 
    218 H218       -7.9896  -31.1404  -53.2003 H         1 UNK         0.0600 
    219 H219       -7.0123  -30.2393  -54.3604 H         1 UNK         0.0600 
    220 H220       -6.2971  -27.2618  -53.5381 H         1 UNK         0.3000 
    221 H221       -7.6659  -25.8571  -55.7278 H         1 UNK         0.0600 
    222 H222       -4.9430  -25.4169  -54.3951 H         1 UNK         0.0600 
    223 H223       -5.2379  -26.2768  -55.9005 H         1 UNK         0.0600 
    224 H224       -5.5350  -24.5478  -55.8027 H         1 UNK         0.0600 
    225 H225       -8.1272  -23.6087  -55.6738 H         1 UNK         0.3000 
    226 H226       -9.4971  -22.7691  -53.2898 H         1 UNK         0.0600 
    227 H227      -10.4536  -22.4835  -55.5489 H         1 UNK         0.0600 
    228 H228      -10.2688  -20.9224  -54.7688 H         1 UNK         0.0600 
    229 H229       -9.1261  -21.4188  -56.0121 H         1 UNK         0.0600 
    230 H230       -7.2750  -22.8496  -52.1644 H         1 UNK         0.3000 
    231 H231       -5.8353  -21.8449  -50.8213 H         1 UNK         0.0600 
    232 H232       -6.1817  -19.5056  -50.1045 H         1 UNK         0.0600 
    233 H233       -7.7373  -20.2820  -50.3015 H         1 UNK         0.0600 
    234 H234       -7.1480  -19.1646  -51.5288 H         1 UNK         0.0600 
    235 H235       -4.4554  -19.3030  -50.9958 H         1 UNK         0.3000 
    236 H236       -3.1894  -19.0622  -53.5384 H         1 UNK         0.0600 
    237 H237       -1.5663  -20.1547  -51.1520 H         1 UNK         0.0600 
    238 H238       -1.8760  -21.0196  -52.6545 H         1 UNK         0.0600 
    239 H239       -0.8669  -19.5816  -52.6607 H         1 UNK         0.0600 
    240 H240       -2.1650  -15.8729  -52.0679 H         1 UNK         0.3000 
    241 H241       -1.5672  -17.7414  -54.2617 H         1 UNK         0.0600 
    242 H242       -5.0025  -15.8167  -55.0414 H         1 UNK         0.3800 
    243 H243       -4.3843  -15.9535  -53.4179 H         1 UNK         0.3800 
    244 H244       -0.8062  -14.8423  -53.7008 H         1 UNK         0.0800 
    245 H245       -0.5572  -15.5712  -55.2622 H         1 UNK         0.0800 
    246 H246        1.1912  -14.9458  -51.9291 H         1 UNK         0.0800 
    247 H247        0.1147  -16.2270  -51.4174 H         1 UNK         0.0800 
@<TRIPOS>BOND
     1    1    2 1    
     2    1  127 1    
     3    1  128 1    
     4    1  129 1    
     5    2    3 2    
     6    2    4 am   BACKBONE|DICT|INTERRES
     7    4    5 1    
     8    4  130 1    
     9    5    6 1    
    10    5   65 1    
    11    5  131 1    
    12    6    7 1    
    13    6  132 1    
    14    6  133 1    
    15    7    8 1    
    16    8    9 1    
    17    8  134 1    
    18    8  135 1    
    19    9   10 ar   
    20    9   14 ar   
    21   10   11 ar   
    22   10  136 1    
    23   11   12 ar   
    24   11  126 1    
    25   12   13 ar   
    26   12  137 1    
    27   13   14 ar   
    28   13   15 1    
    29   14  138 1    
    30   15   16 1    
    31   15  139 1    
    32   15  140 1    
    33   16   17 1    
    34   17   18 1    
    35   17  141 1    
    36   17  142 1    
    37   18   19 1    
    38   18   67 1    
    39   18  143 1    
    40   19   20 am   BACKBONE|DICT|INTERRES
    41   19  144 1    
    42   20   21 2    
    43   20   22 1    
    44   22   23 1    
    45   22   24 1    
    46   22  145 1    
    47   23  146 1    
    48   23  147 1    
    49   23  148 1    
    50   24   25 am   BACKBONE|DICT|INTERRES
    51   24  149 1    
    52   25   26 2    
    53   25   27 1    
    54   27   28 1    
    55   27   29 1    
    56   27  150 1    
    57   28  151 1    
    58   28  152 1    
    59   28  153 1    
    60   29   30 am   BACKBONE|DICT|INTERRES
    61   29  154 1    
    62   30   31 2    
    63   30   32 1    
    64   32   33 1    
    65   32   34 1    
    66   32  155 1    
    67   33  156 1    
    68   33  157 1    
    69   33  158 1    
    70   34   35 am   BACKBONE|DICT|INTERRES
    71   34  159 1    
    72   35   36 2    
    73   35   37 1    
    74   37   38 1    
    75   37   39 1    
    76   37  160 1    
    77   38  161 1    
    78   38  162 1    
    79   38  163 1    
    80   39   40 am   BACKBONE|DICT|INTERRES
    81   39  164 1    
    82   40   41 2    
    83   40   42 1    
    84   42   43 1    
    85   42   44 1    
    86   42  165 1    
    87   43  166 1    
    88   43  167 1    
    89   43  168 1    
    90   44   45 am   BACKBONE|DICT|INTERRES
    91   44  169 1    
    92   45   46 2    
    93   45   47 1    
    94   47   48 1    
    95   47   49 1    
    96   47  170 1    
    97   48  171 1    
    98   48  172 1    
    99   48  173 1    
   100   49   50 am   BACKBONE|DICT|INTERRES
   101   49  174 1    
   102   50   51 2    
   103   50   52 1    
   104   52   53 1    
   105   52   54 1    
   106   52  175 1    
   107   53  176 1    
   108   53  177 1    
   109   53  178 1    
   110   54   55 am   BACKBONE|DICT|INTERRES
   111   54  179 1    
   112   55   56 2    
   113   55   57 1    
   114   57   58 1    
   115   57   59 1    
   116   57  180 1    
   117   58  181 1    
   118   58  182 1    
   119   58  183 1    
   120   59   60 am   BACKBONE|DICT|INTERRES
   121   59  184 1    
   122   60   61 2    
   123   60   62 1    
   124   62   63 1    
   125   62   64 1    
   126   62  185 1    
   127   63  186 1    
   128   63  187 1    
   129   63  188 1    
   130   64   65 am   BACKBONE|DICT|INTERRES
   131   64  189 1    
   132   65   66 2    
   133   67   68 2    
   134   67   69 am   BACKBONE|DICT|INTERRES
   135   69   70 1    
   136   69  190 1    
   137   70   71 1    
   138   70   72 1    
   139   70  191 1    
   140   71  192 1    
   141   71  193 1    
   142   71  194 1    
   143   72   73 2    
   144   72   74 am   BACKBONE|DICT|INTERRES
   145   74   75 1    
   146   74  195 1    
   147   75   76 1    
   148   75   77 1    
   149   75  196 1    
   150   76  197 1    
   151   76  198 1    
   152   76  199 1    
   153   77   78 2    
   154   77   79 am   BACKBONE|DICT|INTERRES
   155   79   80 1    
   156   79  200 1    
   157   80   81 1    
   158   80   82 1    
   159   80  201 1    
   160   81  202 1    
   161   81  203 1    
   162   81  204 1    
   163   82   83 2    
   164   82   84 am   BACKBONE|DICT|INTERRES
   165   84   85 1    
   166   84  205 1    
   167   85   86 1    
   168   85   87 1    
   169   85  206 1    
   170   86  207 1    
   171   86  208 1    
   172   86  209 1    
   173   87   88 2    
   174   87   89 am   BACKBONE|DICT|INTERRES
   175   89   90 1    
   176   89  210 1    
   177   90   91 1    
   178   90   92 1    
   179   90  211 1    
   180   91  212 1    
   181   91  213 1    
   182   91  214 1    
   183   92   93 2    
   184   92   94 am   BACKBONE|DICT|INTERRES
   185   94   95 1    
   186   94  215 1    
   187   95   96 1    
   188   95   97 1    
   189   95  216 1    
   190   96  217 1    
   191   96  218 1    
   192   96  219 1    
   193   97   98 2    
   194   97   99 am   BACKBONE|DICT|INTERRES
   195   99  100 1    
   196   99  220 1    
   197  100  101 1    
   198  100  102 1    
   199  100  221 1    
   200  101  222 1    
   201  101  223 1    
   202  101  224 1    
   203  102  103 2    
   204  102  104 am   BACKBONE|DICT|INTERRES
   205  104  105 1    
   206  104  225 1    
   207  105  106 1    
   208  105  107 1    
   209  105  226 1    
   210  106  227 1    
   211  106  228 1    
   212  106  229 1    
   213  107  108 2    
   214  107  109 am   BACKBONE|DICT|INTERRES
   215  109  110 1    
   216  109  230 1    
   217  110  111 1    
   218  110  112 1    
   219  110  231 1    
   220  111  232 1    
   221  111  233 1    
   222  111  234 1    
   223  112  113 2    
   224  112  114 am   BACKBONE|DICT|INTERRES
   225  114  115 1    
   226  114  235 1    
   227  115  116 1    
   228  115  117 1    
   229  115  236 1    
   230  116  237 1    
   231  116  238 1    
   232  116  239 1    
   233  117  118 2    
   234  117  119 am   BACKBONE|DICT|INTERRES
   235  119  120 1    
   236  119  240 1    
   237  120  121 1    
   238  120  124 1    
   239  120  241 1    
   240  121  122 am   BACKBONE|DICT|INTERRES
   241  121  123 2    
   242  122  242 1    
   243  122  243 1    
   244  124  125 1    
   245  124  244 1    
   246  124  245 1    
   247  125  126 1    
   248  126  246 1    
   249  126  247 1    
@<TRIPOS>SUBSTRUCTURE
     1 UNK         1 GROUP             0       ****    0 ROOT    
