@<TRIPOS>MOLECULE
3R540
247   249    1
SMALL
USER_CHARGES


@<TRIPOS>ATOM
      1 CA         -1.9908  -13.7497  -45.8765 C.3       0 UNK        -0.1800 
      2 C          -1.9213  -13.2984  -47.3285 C.2       0 UNK         0.5000 
      3 O          -2.9488  -13.2744  -48.0048 O.2       0 UNK        -0.5000 
      4 N          -0.7192  -12.9436  -47.7944 N.am      1 UNK        -0.5000 
      5 CA         -0.4642  -12.3359  -49.1054 C.3       1 UNK         0.1400 
      6 C6          0.6083  -13.1198  -49.9157 C.3       23 UNK        -0.0398 
      7 S7         -0.0486  -14.6801  -50.5918 S.3       23 UNK        -0.2404 
      8 C8          0.5313  -15.8991  -49.3748 C.3       23 UNK        -0.0205 
      9 C9         -0.4034  -17.0968  -49.3288 C.ar      23 UNK        -0.0193 
     10 C10        -1.6755  -16.9480  -48.7719 C.ar      23 UNK        -0.1150 
     11 C11        -2.5551  -18.0284  -48.7047 C.ar      23 UNK        -0.0193 
     12 C12        -2.1453  -19.2737  -49.1839 C.ar      23 UNK        -0.1150 
     13 C13        -0.8796  -19.4399  -49.7532 C.ar      23 UNK        -0.0193 
     14 C14        -0.0128  -18.3433  -49.8307 C.ar      23 UNK        -0.1150 
     15 C15        -0.4667  -20.8124  -50.2738 C.3       23 UNK        -0.0205 
     16 S16         1.0289  -21.4847  -49.4782 S.3       23 UNK        -0.2404 
     17 C17         0.6330  -21.3407  -47.7074 C.3       23 UNK        -0.0398 
     18 CA          0.2798  -22.6661  -46.9904 C.3       11 UNK         0.1400 
     19 N           0.5370  -22.5431  -45.5511 N.am      11 UNK        -0.5000 
     20 C           0.4382  -23.5205  -44.6412 C.2       10 UNK         0.5000 
     21 O           0.1694  -24.6871  -44.9210 O.2       10 UNK        -0.5000 
     22 CA          0.6227  -23.1136  -43.1650 C.3       10 UNK         0.1400 
     23 CB          2.1112  -23.0318  -42.7966 C.3       10 UNK        -0.1800 
     24 N          -0.0372  -21.8452  -42.8430 N.am      10 UNK        -0.5000 
     25 C          -1.3651  -21.6571  -42.8745 C.2       9 UNK         0.5000 
     26 O          -2.1729  -22.5537  -43.1139 O.2       9 UNK        -0.5000 
     27 CA         -1.8745  -20.2166  -42.6721 C.3       9 UNK         0.1400 
     28 CB         -1.9406  -19.8499  -41.1824 C.3       9 UNK        -0.1800 
     29 N          -1.0620  -19.2358  -43.3931 N.am      9 UNK        -0.5000 
     30 C          -0.9426  -19.1985  -44.7277 C.2       8 UNK         0.5000 
     31 O          -1.5720  -19.9327  -45.4871 O.2       8 UNK        -0.5000 
     32 CA          0.0950  -18.2243  -45.3088 C.3       8 UNK         0.1400 
     33 CB         -0.5184  -16.8342  -45.5154 C.3       8 UNK        -0.1800 
     34 N           1.2980  -18.1390  -44.4762 N.am      8 UNK        -0.5000 
     35 C           2.1888  -19.1348  -44.3481 C.2       7 UNK         0.5000 
     36 O           2.1147  -20.1914  -44.9700 O.2       7 UNK        -0.5000 
     37 CA          3.3150  -18.9589  -43.3143 C.3       7 UNK         0.1400 
     38 CB          4.5520  -18.3032  -43.9444 C.3       7 UNK        -0.1800 
     39 N           2.8763  -18.1933  -42.1488 N.am      7 UNK        -0.5000 
     40 C           2.0329  -18.6733  -41.2232 C.2       6 UNK         0.5000 
     41 O           1.6013  -19.8267  -41.2353 O.2       6 UNK        -0.5000 
     42 CA          1.5483  -17.6921  -40.1369 C.3       6 UNK         0.1400 
     43 CB          2.4837  -17.7306  -38.9199 C.3       6 UNK        -0.1800 
     44 N           1.4341  -16.3116  -40.6148 N.am      6 UNK        -0.5000 
     45 C           0.6120  -15.9065  -41.5924 C.2       5 UNK         0.5000 
     46 O          -0.1846  -16.6589  -42.1526 O.2       5 UNK        -0.5000 
     47 CA          0.7249  -14.4377  -42.0578 C.3       5 UNK         0.1400 
     48 CB          1.2310  -13.4861  -40.9526 C.3       5 UNK        -0.1800 
     49 N           1.5431  -14.2780  -43.2686 N.am      5 UNK        -0.5000 
     50 C           2.7962  -14.7097  -43.4732 C.2       4 UNK         0.5000 
     51 O           3.4324  -15.3817  -42.6614 O.2       4 UNK        -0.5000 
     52 CA          3.4795  -14.3010  -44.7908 C.3       4 UNK         0.1400 
     53 CB          2.9316  -15.0792  -46.0050 C.3       4 UNK        -0.1800 
     54 N           3.4886  -12.8508  -45.0184 N.am      4 UNK        -0.5000 
     55 C           2.4731  -12.0475  -45.3608 C.2       3 UNK         0.5000 
     56 O           1.3230  -12.4456  -45.5642 O.2       3 UNK        -0.5000 
     57 CA          2.7923  -10.5560  -45.5589 C.3       3 UNK         0.1400 
     58 CB          4.2502  -10.1525  -45.2487 C.3       3 UNK        -0.1800 
     59 N           2.4681  -10.2532  -46.9432 N.am      3 UNK        -0.5000 
     60 C           2.1031   -9.0695  -47.4460 C.2       2 UNK         0.5000 
     61 O           2.1062   -8.0159  -46.8084 O.2       2 UNK        -0.5000 
     62 CA          1.6239   -9.0840  -48.9135 C.3       2 UNK         0.1400 
     63 CB          2.7810   -8.7389  -49.8634 C.3       2 UNK        -0.1800 
     64 N           1.0581  -10.3847  -49.2956 N.am      2 UNK        -0.5000 
     65 C          -0.1084  -10.8582  -48.8302 C.2       1 UNK         0.5000 
     66 O          -0.8863  -10.1699  -48.1647 O.2       1 UNK        -0.5000 
     67 C          -1.1726  -23.1138  -47.2778 C.2       11 UNK         0.5000 
     68 O          -1.3938  -24.0136  -48.0909 O.2       11 UNK        -0.5000 
     69 N          -2.1363  -22.5146  -46.5644 N.am      12 UNK        -0.5000 
     70 CA         -3.5494  -22.8838  -46.6013 C.3       12 UNK         0.1400 
     71 CB         -4.3867  -21.8075  -45.8971 C.3       12 UNK        -0.1800 
     72 C          -3.8212  -24.2787  -46.0130 C.2       12 UNK         0.5000 
     73 O          -4.5782  -25.0412  -46.6128 O.2       12 UNK        -0.5000 
     74 N          -3.1710  -24.6155  -44.8895 N.am      13 UNK        -0.5000 
     75 CA         -3.2396  -25.9366  -44.2534 C.3       13 UNK         0.1400 
     76 CB         -2.5322  -25.8935  -42.8909 C.3       13 UNK        -0.1800 
     77 C          -2.6633  -27.0640  -45.1341 C.2       13 UNK         0.5000 
     78 O          -3.1810  -28.1808  -45.1104 O.2       13 UNK        -0.5000 
     79 N          -1.6385  -26.7366  -45.9325 N.am      14 UNK        -0.5000 
     80 CA         -1.0496  -27.5950  -46.9628 C.3       14 UNK         0.1400 
     81 CB          0.3539  -27.0650  -47.3008 C.3       14 UNK        -0.1800 
     82 C          -1.9121  -27.7147  -48.2401 C.2       14 UNK         0.5000 
     83 O          -1.5382  -28.4649  -49.1422 O.2       14 UNK        -0.5000 
     84 N          -3.0323  -26.9777  -48.3034 N.am      15 UNK        -0.5000 
     85 CA         -4.0174  -26.9106  -49.3885 C.3       15 UNK         0.1400 
     86 CB         -4.6470  -28.2913  -49.6675 C.3       15 UNK        -0.1800 
     87 C          -3.5018  -26.2227  -50.6683 C.2       15 UNK         0.5000 
     88 O          -4.1494  -26.3204  -51.7119 O.2       15 UNK        -0.5000 
     89 N          -2.3831  -25.4894  -50.5728 N.am      16 UNK        -0.5000 
     90 CA         -1.8013  -24.7295  -51.6821 C.3       16 UNK         0.1400 
     91 CB         -0.3326  -24.4162  -51.3720 C.3       16 UNK        -0.1800 
     92 C          -2.5947  -23.4509  -52.0130 C.2       16 UNK         0.5000 
     93 O          -2.4486  -22.9169  -53.1131 O.2       16 UNK        -0.5000 
     94 N          -3.4649  -23.0116  -51.0892 N.am      17 UNK        -0.5000 
     95 CA         -4.4210  -21.9140  -51.2686 C.3       17 UNK         0.1400 
     96 CB         -5.2320  -21.7194  -49.9784 C.3       17 UNK        -0.1800 
     97 C          -5.3802  -22.1175  -52.4567 C.2       17 UNK         0.5000 
     98 O          -5.8037  -21.1337  -53.0588 O.2       17 UNK        -0.5000 
     99 N          -5.6745  -23.3796  -52.8009 N.am      18 UNK        -0.5000 
    100 CA        -6.4859  -23.7540  -53.9602 C.3       18 UNK         0.1400 
    101 CB        -6.8073  -25.2540  -53.8802 C.3       18 UNK        -0.1800 
    102 C         -5.8180  -23.4163  -55.3090 C.2       18 UNK         0.5000 
    103 O         -6.5271  -23.1776  -56.2871 O.2       18 UNK        -0.5000 
    104 N         -4.4783  -23.3977  -55.3371 N.am      19 UNK        -0.5000 
    105 CA        -3.6779  -23.0411  -56.5062 C.3       19 UNK         0.1400 
    106 CB        -2.4355  -23.9448  -56.5617 C.3       19 UNK        -0.1800 
    107 C         -3.2689  -21.5599  -56.4676 C.2       19 UNK         0.5000 
    108 O         -3.3599  -20.8777  -57.4888 O.2       19 UNK        -0.5000 
    109 N         -2.8179  -21.0910  -55.2958 N.am      20 UNK        -0.5000 
    110 CA        -2.2972  -19.7387  -55.0895 C.3       20 UNK         0.1400 
    111 CB        -1.4819  -19.7200  -53.7869 C.3       20 UNK        -0.1800 
    112 C         -3.3825  -18.6483  -55.0421 C.2       20 UNK         0.5000 
    113 O         -3.0719  -17.4824  -55.2935 O.2       20 UNK        -0.5000 
    114 N         -4.6109  -19.0254  -54.6517 N.am      21 UNK        -0.5000 
    115 CA        -5.7808  -18.1654  -54.4098 C.3       21 UNK         0.1400 
    116 CB        -6.2572  -17.5179  -55.7263 C.3       21 UNK        -0.1800 
    117 C         -5.5711  -17.1226  -53.2864 C.2       21 UNK         0.5000 
    118 O         -6.3545  -16.1779  -53.1757 O.2       21 UNK        -0.5000 
    119 N         -4.5057  -17.3027  -52.4934 N.am      22 UNK        -0.5000 
    120 CA        -3.9560  -16.3448  -51.5213 C.3       22 UNK         0.1400 
    121 C         -3.5125  -14.9911  -52.1617 C.2       22 UNK         0.5000 
    122 N         -3.1027  -14.9744  -53.4268 N.am      22 UNK        -0.7600 
    123 O         -3.5323  -13.9457  -51.5188 O.2       22 UNK        -0.5000 
    124 C124       -4.8378  -16.1772  -50.2514 C.3       23 UNK        -0.0398 
    125 S125       -5.2198  -17.7671  -49.4282 S.3       23 UNK        -0.2404 
    126 C126       -3.9486  -17.8464  -48.1245 C.3       23 UNK        -0.0205 
    127 H127       -0.9991  -13.9078  -45.4530 H         1 UNK         0.0600 
    128 H128       -2.5001  -12.9963  -45.2759 H         1 UNK         0.0600 
    129 H129       -2.5496  -14.6819  -45.7976 H         1 UNK         0.0600 
    130 H130        0.0549  -12.9086  -47.1390 H         1 UNK         0.3000 
    131 H131       -1.3790  -12.3100  -49.7016 H         1 UNK         0.0600 
    132 H132        1.4998  -13.3147  -49.3170 H         1 UNK         0.0800 
    133 H133        0.9347  -12.5463  -50.7845 H         1 UNK         0.0800 
    134 H134        0.5718  -15.4446  -48.3849 H         1 UNK         0.0800 
    135 H135        1.5496  -16.2030  -49.6208 H         1 UNK         0.0800 
    136 H136       -1.9852  -15.9812  -48.4033 H         1 UNK         0.1150 
    137 H137       -2.8186  -20.1133  -49.1172 H         1 UNK         0.1150 
    138 H138        0.9678  -18.4668  -50.2681 H         1 UNK         0.1150 
    139 H139       -1.2743  -21.5301  -50.1330 H         1 UNK         0.0800 
    140 H140       -0.2922  -20.7511  -51.3476 H         1 UNK         0.0800 
    141 H141        1.5397  -20.9242  -47.2725 H         1 UNK         0.0800 
    142 H142       -0.1356  -20.5896  -47.5376 H         1 UNK         0.0800 
    143 H143        0.9444  -23.4487  -47.3619 H         1 UNK         0.0600 
    144 H144        0.8382  -21.6274  -45.2319 H         1 UNK         0.3000 
    145 H145        0.1675  -23.8902  -42.5474 H         1 UNK         0.0600 
    146 H146        2.6345  -22.2781  -43.3842 H         1 UNK         0.0600 
    147 H147        2.2435  -22.7850  -41.7430 H         1 UNK         0.0600 
    148 H148        2.6079  -23.9867  -42.9728 H         1 UNK         0.0600 
    149 H149        0.5596  -21.0677  -42.5839 H         1 UNK         0.3000 
    150 H150       -2.8881  -20.1648  -43.0753 H         1 UNK         0.0600 
    151 H151       -2.3179  -18.8368  -41.0416 H         1 UNK         0.0600 
    152 H152       -0.9645  -19.9129  -40.7032 H         1 UNK         0.0600 
    153 H153       -2.6098  -20.5247  -40.6473 H         1 UNK         0.0600 
    154 H154       -0.5618  -18.5477  -42.8412 H         1 UNK         0.3000 
    155 H155        0.3840  -18.6023  -46.2914 H         1 UNK         0.0600 
    156 H156       -0.6797  -16.3044  -44.5795 H         1 UNK         0.0600 
    157 H157       -1.4873  -16.9095  -46.0085 H         1 UNK         0.0600 
    158 H158        0.1157  -16.2173  -46.1471 H         1 UNK         0.0600 
    159 H159        1.3761  -17.3347  -43.8720 H         1 UNK         0.3000 
    160 H160        3.6082  -19.9550  -42.9757 H         1 UNK         0.0600 
    161 H161        4.3416  -17.3003  -44.3110 H         1 UNK         0.0600 
    162 H162        4.9149  -18.8902  -44.7890 H         1 UNK         0.0600 
    163 H163        5.3675  -18.2307  -43.2247 H         1 UNK         0.0600 
    164 H164        3.1642  -17.2194  -42.1026 H         1 UNK         0.3000 
    165 H165        0.5565  -18.0182  -39.8173 H         1 UNK         0.0600 
    166 H166        3.4878  -17.3879  -39.1732 H         1 UNK         0.0600 
    167 H167        2.1072  -17.1021  -38.1127 H         1 UNK         0.0600 
    168 H168        2.5716  -18.7446  -38.5272 H         1 UNK         0.0600 
    169 H169        2.0909  -15.6448  -40.2361 H         1 UNK         0.3000 
    170 H170       -0.2861  -14.1250  -42.3235 H         1 UNK         0.0600 
    171 H171        0.6383  -13.5886  -40.0426 H         1 UNK         0.0600 
    172 H172        2.2745  -13.6682  -40.6936 H         1 UNK         0.0600 
    173 H173        1.1510  -12.4469  -41.2718 H         1 UNK         0.0600 
    174 H174        1.1308  -13.7220  -44.0108 H         1 UNK         0.3000 
    175 H175        4.5289  -14.5821  -44.6872 H         1 UNK         0.0600 
    176 H176        1.8959  -14.8288  -46.2243 H         1 UNK         0.0600 
    177 H177        3.5173  -14.8683  -46.8996 H         1 UNK         0.0600 
    178 H178        2.9734  -16.1553  -45.8393 H         1 UNK         0.0600 
    179 H179        4.3860  -12.4101  -44.8710 H         1 UNK         0.3000 
    180 H180        2.1226   -9.9975  -44.9019 H         1 UNK         0.0600 
    181 H181        4.5152  -10.3858  -44.2167 H         1 UNK         0.0600 
    182 H182        4.9616  -10.6549  -45.9054 H         1 UNK         0.0600 
    183 H183        4.3918   -9.0791  -45.3756 H         1 UNK         0.0600 
    184 H184        2.3956  -11.0613  -47.5436 H         1 UNK         0.3000 
    185 H185        0.8512   -8.3198  -49.0217 H         1 UNK         0.0600 
    186 H186        2.4415   -8.6932  -50.8984 H         1 UNK         0.0600 
    187 H187        3.2078   -7.7651  -49.6194 H         1 UNK         0.0600 
    188 H188        3.5851   -9.4734  -49.8046 H         1 UNK         0.0600 
    189 H189        1.6431  -10.9746  -49.8688 H         1 UNK         0.3000 
    190 H190       -1.8866  -21.7343  -45.9617 H         1 UNK         0.3000 
    191 H191       -3.8516  -22.9184  -47.6478 H         1 UNK         0.0600 
    192 H192       -5.4500  -22.0448  -45.9462 H         1 UNK         0.0600 
    193 H193       -4.2478  -20.8341  -46.3664 H         1 UNK         0.0600 
    194 H194       -4.1181  -21.7110  -44.8450 H         1 UNK         0.0600 
    195 H195       -2.6108  -23.9111  -44.4172 H         1 UNK         0.3000 
    196 H196       -4.2933  -26.1634  -44.0790 H         1 UNK         0.0600 
    197 H197       -2.6162  -26.8522  -42.3777 H         1 UNK         0.0600 
    198 H198       -2.9723  -25.1371  -42.2410 H         1 UNK         0.0600 
    199 H199       -1.4709  -25.6702  -42.9950 H         1 UNK         0.0600 
    200 H200       -1.2207  -25.8177  -45.8218 H         1 UNK         0.3000 
    201 H201       -0.9419  -28.6007  -46.5521 H         1 UNK         0.0600 
    202 H202        0.9842  -27.0243  -46.4123 H         1 UNK         0.0600 
    203 H203        0.3142  -26.0628  -47.7277 H         1 UNK         0.0600 
    204 H204        0.8553  -27.7096  -48.0237 H         1 UNK         0.0600 
    205 H205       -3.2453  -26.3817  -47.5119 H         1 UNK         0.3000 
    206 H206       -4.8158  -26.2670  -49.0179 H         1 UNK         0.0600 
    207 H207       -5.0066  -28.7537  -48.7483 H         1 UNK         0.0600 
    208 H208       -5.5014  -28.2022  -50.3394 H         1 UNK         0.0600 
    209 H209       -3.9387  -28.9756  -50.1347 H         1 UNK         0.0600 
    210 H210       -1.9347  -25.3904  -49.6686 H         1 UNK         0.3000 
    211 H211       -1.8236  -25.3540  -52.5777 H         1 UNK         0.0600 
    212 H212        0.1160  -23.8016  -52.1537 H         1 UNK         0.0600 
    213 H213        0.2555  -25.3310  -51.2982 H         1 UNK         0.0600 
    214 H214       -0.2289  -23.8814  -50.4308 H         1 UNK         0.0600 
    215 H215       -3.5068  -23.5134  -50.2148 H         1 UNK         0.3000 
    216 H216       -3.8519  -21.0022  -51.4593 H         1 UNK         0.0600 
    217 H217       -5.9831  -20.9379  -50.1036 H         1 UNK         0.0600 
    218 H218       -4.5995  -21.4130  -49.1491 H         1 UNK         0.0600 
    219 H219       -5.7538  -22.6318  -49.6870 H         1 UNK         0.0600 
    220 H220       -5.2749  -24.1384  -52.2659 H         1 UNK         0.3000 
    221 H221       -7.4251  -23.1991  -53.9089 H         1 UNK         0.0600 
    222 H222       -5.9018  -25.8613  -53.9166 H         1 UNK         0.0600 
    223 H223       -7.3364  -25.4964  -52.9584 H         1 UNK         0.0600 
    224 H224       -7.4434  -25.5625  -54.7108 H         1 UNK         0.0600 
    225 H225       -3.9706  -23.5607  -54.4771 H         1 UNK         0.3000 
    226 H226       -4.2520  -23.2085  -57.4201 H         1 UNK         0.0600 
    227 H227       -1.8184  -23.7062  -57.4289 H         1 UNK         0.0600 
    228 H228       -1.8112  -23.8345  -55.6742 H         1 UNK         0.0600 
    229 H229       -2.7176  -24.9946  -56.6427 H         1 UNK         0.0600 
    230 H230       -2.7357  -21.7318  -54.5102 H         1 UNK         0.3000 
    231 H231       -1.6250  -19.4977  -55.9157 H         1 UNK         0.0600 
    232 H232       -1.0475  -18.7357  -53.6061 H         1 UNK         0.0600 
    233 H233       -0.6597  -20.4346  -53.8288 H         1 UNK         0.0600 
    234 H234       -2.0986  -19.9704  -52.9233 H         1 UNK         0.0600 
    235 H235       -4.7592  -19.9995  -54.4110 H         1 UNK         0.3000 
    236 H236       -6.5791  -18.8219  -54.0628 H         1 UNK         0.0600 
    237 H237       -5.5450  -16.7803  -56.0970 H         1 UNK         0.0600 
    238 H238       -6.4002  -18.2677  -56.5045 H         1 UNK         0.0600 
    239 H239       -7.2117  -17.0084  -55.5896 H         1 UNK         0.0600 
    240 H240       -3.9431  -18.1221  -52.6587 H         1 UNK         0.3000 
    241 H241       -3.0168  -16.7907  -51.1974 H         1 UNK         0.0600 
    242 H242       -2.8140  -14.1015  -53.8382 H         1 UNK         0.3800 
    243 H243       -3.0921  -15.8194  -53.9862 H         1 UNK         0.3800 
    244 H244       -5.7799  -15.6927  -50.5107 H         1 UNK         0.0800 
    245 H245       -4.3497  -15.5180  -49.5314 H         1 UNK         0.0800 
    246 H246       -3.9994  -16.9477  -47.5078 H         1 UNK         0.0800 
    247 H247       -4.1727  -18.6826  -47.4616 H         1 UNK         0.0800 
@<TRIPOS>BOND
     1    1    2 1    
     2    1  127 1    
     3    1  128 1    
     4    1  129 1    
     5    2    3 2    
     6    2    4 am   BACKBONE|DICT|INTERRES
     7    4    5 1    
     8    4  130 1    
     9    5    6 1    
    10    5   65 1    
    11    5  131 1    
    12    6    7 1    
    13    6  132 1    
    14    6  133 1    
    15    7    8 1    
    16    8    9 1    
    17    8  134 1    
    18    8  135 1    
    19    9   10 ar   
    20    9   14 ar   
    21   10   11 ar   
    22   10  136 1    
    23   11   12 ar   
    24   11  126 1    
    25   12   13 ar   
    26   12  137 1    
    27   13   14 ar   
    28   13   15 1    
    29   14  138 1    
    30   15   16 1    
    31   15  139 1    
    32   15  140 1    
    33   16   17 1    
    34   17   18 1    
    35   17  141 1    
    36   17  142 1    
    37   18   19 1    
    38   18   67 1    
    39   18  143 1    
    40   19   20 am   BACKBONE|DICT|INTERRES
    41   19  144 1    
    42   20   21 2    
    43   20   22 1    
    44   22   23 1    
    45   22   24 1    
    46   22  145 1    
    47   23  146 1    
    48   23  147 1    
    49   23  148 1    
    50   24   25 am   BACKBONE|DICT|INTERRES
    51   24  149 1    
    52   25   26 2    
    53   25   27 1    
    54   27   28 1    
    55   27   29 1    
    56   27  150 1    
    57   28  151 1    
    58   28  152 1    
    59   28  153 1    
    60   29   30 am   BACKBONE|DICT|INTERRES
    61   29  154 1    
    62   30   31 2    
    63   30   32 1    
    64   32   33 1    
    65   32   34 1    
    66   32  155 1    
    67   33  156 1    
    68   33  157 1    
    69   33  158 1    
    70   34   35 am   BACKBONE|DICT|INTERRES
    71   34  159 1    
    72   35   36 2    
    73   35   37 1    
    74   37   38 1    
    75   37   39 1    
    76   37  160 1    
    77   38  161 1    
    78   38  162 1    
    79   38  163 1    
    80   39   40 am   BACKBONE|DICT|INTERRES
    81   39  164 1    
    82   40   41 2    
    83   40   42 1    
    84   42   43 1    
    85   42   44 1    
    86   42  165 1    
    87   43  166 1    
    88   43  167 1    
    89   43  168 1    
    90   44   45 am   BACKBONE|DICT|INTERRES
    91   44  169 1    
    92   45   46 2    
    93   45   47 1    
    94   47   48 1    
    95   47   49 1    
    96   47  170 1    
    97   48  171 1    
    98   48  172 1    
    99   48  173 1    
   100   49   50 am   BACKBONE|DICT|INTERRES
   101   49  174 1    
   102   50   51 2    
   103   50   52 1    
   104   52   53 1    
   105   52   54 1    
   106   52  175 1    
   107   53  176 1    
   108   53  177 1    
   109   53  178 1    
   110   54   55 am   BACKBONE|DICT|INTERRES
   111   54  179 1    
   112   55   56 2    
   113   55   57 1    
   114   57   58 1    
   115   57   59 1    
   116   57  180 1    
   117   58  181 1    
   118   58  182 1    
   119   58  183 1    
   120   59   60 am   BACKBONE|DICT|INTERRES
   121   59  184 1    
   122   60   61 2    
   123   60   62 1    
   124   62   63 1    
   125   62   64 1    
   126   62  185 1    
   127   63  186 1    
   128   63  187 1    
   129   63  188 1    
   130   64   65 am   BACKBONE|DICT|INTERRES
   131   64  189 1    
   132   65   66 2    
   133   67   68 2    
   134   67   69 am   BACKBONE|DICT|INTERRES
   135   69   70 1    
   136   69  190 1    
   137   70   71 1    
   138   70   72 1    
   139   70  191 1    
   140   71  192 1    
   141   71  193 1    
   142   71  194 1    
   143   72   73 2    
   144   72   74 am   BACKBONE|DICT|INTERRES
   145   74   75 1    
   146   74  195 1    
   147   75   76 1    
   148   75   77 1    
   149   75  196 1    
   150   76  197 1    
   151   76  198 1    
   152   76  199 1    
   153   77   78 2    
   154   77   79 am   BACKBONE|DICT|INTERRES
   155   79   80 1    
   156   79  200 1    
   157   80   81 1    
   158   80   82 1    
   159   80  201 1    
   160   81  202 1    
   161   81  203 1    
   162   81  204 1    
   163   82   83 2    
   164   82   84 am   BACKBONE|DICT|INTERRES
   165   84   85 1    
   166   84  205 1    
   167   85   86 1    
   168   85   87 1    
   169   85  206 1    
   170   86  207 1    
   171   86  208 1    
   172   86  209 1    
   173   87   88 2    
   174   87   89 am   BACKBONE|DICT|INTERRES
   175   89   90 1    
   176   89  210 1    
   177   90   91 1    
   178   90   92 1    
   179   90  211 1    
   180   91  212 1    
   181   91  213 1    
   182   91  214 1    
   183   92   93 2    
   184   92   94 am   BACKBONE|DICT|INTERRES
   185   94   95 1    
   186   94  215 1    
   187   95   96 1    
   188   95   97 1    
   189   95  216 1    
   190   96  217 1    
   191   96  218 1    
   192   96  219 1    
   193   97   98 2    
   194   97   99 am   BACKBONE|DICT|INTERRES
   195   99  100 1    
   196   99  220 1    
   197  100  101 1    
   198  100  102 1    
   199  100  221 1    
   200  101  222 1    
   201  101  223 1    
   202  101  224 1    
   203  102  103 2    
   204  102  104 am   BACKBONE|DICT|INTERRES
   205  104  105 1    
   206  104  225 1    
   207  105  106 1    
   208  105  107 1    
   209  105  226 1    
   210  106  227 1    
   211  106  228 1    
   212  106  229 1    
   213  107  108 2    
   214  107  109 am   BACKBONE|DICT|INTERRES
   215  109  110 1    
   216  109  230 1    
   217  110  111 1    
   218  110  112 1    
   219  110  231 1    
   220  111  232 1    
   221  111  233 1    
   222  111  234 1    
   223  112  113 2    
   224  112  114 am   BACKBONE|DICT|INTERRES
   225  114  115 1    
   226  114  235 1    
   227  115  116 1    
   228  115  117 1    
   229  115  236 1    
   230  116  237 1    
   231  116  238 1    
   232  116  239 1    
   233  117  118 2    
   234  117  119 am   BACKBONE|DICT|INTERRES
   235  119  120 1    
   236  119  240 1    
   237  120  121 1    
   238  120  124 1    
   239  120  241 1    
   240  121  122 am   BACKBONE|DICT|INTERRES
   241  121  123 2    
   242  122  242 1    
   243  122  243 1    
   244  124  125 1    
   245  124  244 1    
   246  124  245 1    
   247  125  126 1    
   248  126  246 1    
   249  126  247 1    
@<TRIPOS>SUBSTRUCTURE
     1 UNK         1 GROUP             0       ****    0 ROOT    
