@<TRIPOS>MOLECULE
3R540
247   249    1
SMALL
USER_CHARGES


@<TRIPOS>ATOM
      1 CA          2.0536  -16.5610  -49.3543 C.3       0 UNK        -0.1800 
      2 C           1.5374  -15.7783  -48.1568 C.2       0 UNK         0.5000 
      3 O           2.3165  -15.4140  -47.2763 O.2       0 UNK        -0.5000 
      4 N           0.2273  -15.5016  -48.1245 N.am      1 UNK        -0.5000 
      5 CA         -0.4619  -14.8294  -47.0156 C.3       1 UNK         0.1400 
      6 C6         -1.9996  -14.9845  -47.1101 C.3       23 UNK        -0.0398 
      7 S7         -2.7466  -14.2259  -48.5926 S.3       23 UNK        -0.2404 
      8 C8         -3.5073  -15.6630  -49.4088 C.3       23 UNK        -0.0205 
      9 C9         -2.4994  -16.4872  -50.1954 C.ar      23 UNK        -0.0193 
     10 C10        -1.8901  -15.9350  -51.3258 C.ar      23 UNK        -0.1150 
     11 C11        -1.0230  -16.6977  -52.1109 C.ar      23 UNK        -0.0193 
     12 C12        -0.7660  -18.0233  -51.7577 C.ar      23 UNK        -0.1150 
     13 C13        -1.3565  -18.5852  -50.6231 C.ar      23 UNK        -0.0193 
     14 C14        -2.2178  -17.8108  -49.8377 C.ar      23 UNK        -0.1150 
     15 C15        -1.0928  -20.0450  -50.2919 C.3       23 UNK        -0.0205 
     16 S16         0.5911  -20.3085  -49.6580 S.3       23 UNK        -0.2404 
     17 C17         0.3335  -20.1948  -47.8574 C.3       23 UNK        -0.0398 
     18 CA          0.2172  -21.5937  -47.2001 C.3       11 UNK         0.1400 
     19 N           0.5942  -21.5869  -45.7860 N.am      11 UNK        -0.5000 
     20 C           0.7765  -22.6859  -45.0402 C.2       10 UNK         0.5000 
     21 O           0.6538  -23.8320  -45.4714 O.2       10 UNK        -0.5000 
     22 CA          1.1119  -22.4725  -43.5536 C.3       10 UNK         0.1400 
     23 CB          2.5823  -22.0667  -43.3752 C.3       10 UNK        -0.1800 
     24 N           0.2442  -21.4824  -42.9163 N.am      10 UNK        -0.5000 
     25 C          -1.0826  -21.6174  -42.7757 C.2       9 UNK         0.5000 
     26 O          -1.7154  -22.6076  -43.1445 O.2       9 UNK        -0.5000 
     27 CA         -1.8364  -20.4224  -42.1651 C.3       9 UNK         0.1400 
     28 CB         -1.6611  -20.3797  -40.6397 C.3       9 UNK        -0.1800 
     29 N          -1.4229  -19.1432  -42.7407 N.am      9 UNK        -0.5000 
     30 C          -1.5480  -18.8162  -44.0347 C.2       8 UNK         0.5000 
     31 O          -2.0468  -19.5467  -44.8893 O.2       8 UNK        -0.5000 
     32 CA         -0.9674  -17.4605  -44.4578 C.3       8 UNK         0.1400 
     33 CB         -1.8757  -16.3145  -43.9796 C.3       8 UNK        -0.1800 
     34 N           0.3981  -17.2620  -43.9704 N.am      8 UNK        -0.5000 
     35 C           1.4396  -18.0560  -44.2621 C.2       7 UNK         0.5000 
     36 O           1.3738  -19.0137  -45.0277 O.2       7 UNK        -0.5000 
     37 CA          2.7621  -17.7820  -43.5286 C.3       7 UNK         0.1400 
     38 CB          3.5789  -16.6985  -44.2450 C.3       7 UNK        -0.1800 
     39 N           2.5414  -17.4075  -42.1332 N.am      7 UNK        -0.5000 
     40 C           2.0681  -18.2399  -41.1940 C.2       6 UNK         0.5000 
     41 O           1.8204  -19.4296  -41.3925 O.2       6 UNK        -0.5000 
     42 CA          1.7738  -17.6170  -39.8174 C.3       6 UNK         0.1400 
     43 CB          3.0554  -17.5264  -38.9758 C.3       6 UNK        -0.1800 
     44 N           1.1737  -16.2866  -39.9366 N.am      6 UNK        -0.5000 
     45 C          -0.0492  -16.0546  -40.4353 C.2       5 UNK         0.5000 
     46 O          -0.8264  -16.9491  -40.7688 O.2       5 UNK        -0.5000 
     47 CA         -0.4452  -14.5783  -40.6418 C.3       5 UNK         0.1400 
     48 CB         -1.1056  -14.0145  -39.3753 C.3       5 UNK        -0.1800 
     49 N           0.6922  -13.7304  -41.0178 N.am      5 UNK        -0.5000 
     50 C           1.3620  -13.8372  -42.1730 C.2       4 UNK         0.5000 
     51 O           1.0575  -14.6316  -43.0648 O.2       4 UNK        -0.5000 
     52 CA          2.6250  -12.9778  -42.3189 C.3       4 UNK         0.1400 
     53 CB          3.7612  -13.5919  -41.4710 C.3       4 UNK        -0.1800 
     54 N           3.0067  -12.9206  -43.7301 N.am      4 UNK        -0.5000 
     55 C           4.0051  -12.1936  -44.2478 C.2       3 UNK         0.5000 
     56 O           4.7030  -11.4206  -43.5900 O.2       3 UNK        -0.5000 
     57 CA          4.2739  -12.3461  -45.7561 C.3       3 UNK         0.1400 
     58 CB          5.0727  -13.6250  -46.0487 C.3       3 UNK        -0.1800 
     59 N           3.0528  -12.3371  -46.5609 N.am      3 UNK        -0.5000 
     60 C           2.3365  -11.2321  -46.8198 C.2       2 UNK         0.5000 
     61 O           2.6244  -10.1174  -46.3820 O.2       2 UNK        -0.5000 
     62 CA          1.1053  -11.3762  -47.7377 C.3       2 UNK         0.1400 
     63 CB          1.4421  -10.9158  -49.1645 C.3       2 UNK        -0.1800 
     64 N           0.5769  -12.7375  -47.7981 N.am      2 UNK        -0.5000 
     65 C          -0.0454  -13.3597  -46.7889 C.2       1 UNK         0.5000 
     66 O          -0.2799  -12.8257  -45.7045 O.2       1 UNK        -0.5000 
     67 C          -1.1767  -22.2127  -47.4152 C.2       11 UNK         0.5000 
     68 O          -1.3323  -23.0431  -48.3090 O.2       11 UNK        -0.5000 
     69 N          -2.1541  -21.8355  -46.5780 N.am      12 UNK        -0.5000 
     70 CA         -3.5105  -22.3828  -46.5974 C.3       12 UNK         0.1400 
     71 CB         -4.4010  -21.6199  -45.6068 C.3       12 UNK        -0.1800 
     72 C          -3.5491  -23.8946  -46.3227 C.2       12 UNK         0.5000 
     73 O          -4.2694  -24.6102  -47.0166 O.2       12 UNK        -0.5000 
     74 N          -2.7456  -24.3590  -45.3560 N.am      13 UNK        -0.5000 
     75 CA         -2.5768  -25.7778  -45.0438 C.3       13 UNK         0.1400 
     76 CB         -1.7923  -25.9254  -43.7312 C.3       13 UNK        -0.1800 
     77 C          -1.8959  -26.5627  -46.1815 C.2       13 UNK         0.5000 
     78 O          -2.3298  -27.6721  -46.4935 O.2       13 UNK        -0.5000 
     79 N          -0.8508  -25.9753  -46.7803 N.am      14 UNK        -0.5000 
     80 CA         -0.0721  -26.5725  -47.8644 C.3       14 UNK         0.1400 
     81 CB          1.2381  -25.7900  -48.0463 C.3       14 UNK        -0.1800 
     82 C          -0.8448  -26.6525  -49.1926 C.2       14 UNK         0.5000 
     83 O          -0.8645  -27.7126  -49.8197 O.2       14 UNK        -0.5000 
     84 N          -1.4520  -25.5327  -49.6065 N.am      15 UNK        -0.5000 
     85 CA         -2.1551  -25.4057  -50.8840 C.3       15 UNK         0.1400 
     86 CB         -2.1841  -23.9258  -51.2993 C.3       15 UNK        -0.1800 
     87 C          -3.5844  -25.9722  -50.8526 C.2       15 UNK         0.5000 
     88 O          -4.1349  -26.2531  -51.9178 O.2       15 UNK        -0.5000 
     89 N          -4.1798  -26.0806  -49.6546 N.am      16 UNK        -0.5000 
     90 CA         -5.5571  -26.4895  -49.3349 C.3       16 UNK         0.1400 
     91 CB         -5.8706  -27.9064  -49.8523 C.3       16 UNK        -0.1800 
     92 C          -6.6248  -25.4720  -49.7871 C.2       16 UNK         0.5000 
     93 O          -7.5075  -25.1233  -49.0032 O.2       16 UNK        -0.5000 
     94 N          -6.5062  -24.9923  -51.0295 N.am      17 UNK        -0.5000 
     95 CA         -7.3407  -23.9606  -51.6456 C.3       17 UNK         0.1400 
     96 CB         -7.5023  -24.3045  -53.1344 C.3       17 UNK        -0.1800 
     97 C          -6.7769  -22.5354  -51.4470 C.2       17 UNK         0.5000 
     98 O          -7.3604  -21.5810  -51.9634 O.2       17 UNK        -0.5000 
     99 N          -5.6653  -22.4136  -50.7035 N.am      18 UNK        -0.5000 
    100 CA        -4.9836  -21.1792  -50.3018 C.3       18 UNK         0.1400 
    101 CB        -5.8101  -20.4391  -49.2263 C.3       18 UNK        -0.1800 
    102 C         -4.5871  -20.3004  -51.5057 C.2       18 UNK         0.5000 
    103 O         -3.7139  -20.7015  -52.2755 O.2       18 UNK        -0.5000 
    104 N         -5.2348  -19.1351  -51.6531 N.am      19 UNK        -0.5000 
    105 CA        -4.9717  -18.1060  -52.6657 C.3       19 UNK         0.1400 
    106 CB        -5.9234  -16.9247  -52.4287 C.3       19 UNK        -0.1800 
    107 C         -5.0643  -18.5807  -54.1291 C.2       19 UNK         0.5000 
    108 O         -4.5061  -17.9269  -55.0101 O.2       19 UNK        -0.5000 
    109 N         -5.7065  -19.7319  -54.3727 N.am      20 UNK        -0.5000 
    110 CA        -5.7175  -20.4369  -55.6584 C.3       20 UNK         0.1400 
    111 CB        -6.6070  -21.6794  -55.5301 C.3       20 UNK        -0.1800 
    112 C         -4.3138  -20.8355  -56.1699 C.2       20 UNK         0.5000 
    113 O         -4.1553  -21.0687  -57.3685 O.2       20 UNK        -0.5000 
    114 N         -3.3193  -20.8784  -55.2696 N.am      21 UNK        -0.5000 
    115 CA        -1.9020  -21.0631  -55.5809 C.3       21 UNK         0.1400 
    116 CB        -1.1340  -21.2797  -54.2686 C.3       21 UNK        -0.1800 
    117 C         -1.2726  -19.8993  -56.3783 C.2       21 UNK         0.5000 
    118 O         -0.2416  -20.1147  -57.0176 O.2       21 UNK        -0.5000 
    119 N         -1.8793  -18.7050  -56.3356 N.am      22 UNK        -0.5000 
    120 CA        -1.4278  -17.5066  -57.0639 C.3       22 UNK         0.1400 
    121 C         -2.5499  -16.7841  -57.8619 C.2       22 UNK         0.5000 
    122 N         -3.8244  -16.9389  -57.5269 N.am      22 UNK        -0.7600 
    123 O         -2.2576  -16.0844  -58.8282 O.2       22 UNK        -0.5000 
    124 C124       -0.6349  -16.5289  -56.1572 C.3       23 UNK        -0.0398 
    125 S125       -1.5814  -15.9451  -54.7031 S.3       23 UNK        -0.2404 
    126 C126       -0.3761  -16.0957  -53.3466 C.3       23 UNK        -0.0205 
    127 H127        2.4844  -17.5066  -49.0245 H         1 UNK         0.0600 
    128 H128        1.2583  -16.7817  -50.0659 H         1 UNK         0.0600 
    129 H129        2.8266  -15.9924  -49.8715 H         1 UNK         0.0600 
    130 H130       -0.3642  -15.7961  -48.8899 H         1 UNK         0.3000 
    131 H131       -0.1358  -15.3426  -46.1116 H         1 UNK         0.0600 
    132 H132       -2.4803  -14.5402  -46.2372 H         1 UNK         0.0800 
    133 H133       -2.2582  -16.0432  -47.0773 H         1 UNK         0.0800 
    134 H134       -4.0361  -16.2741  -48.6757 H         1 UNK         0.0800 
    135 H135       -4.2673  -15.2960  -50.0990 H         1 UNK         0.0800 
    136 H136       -2.1096  -14.9150  -51.6093 H         1 UNK         0.1150 
    137 H137       -0.1053  -18.6237  -52.3671 H         1 UNK         0.1150 
    138 H138       -2.6930  -18.2475  -48.9706 H         1 UNK         0.1150 
    139 H139       -1.8313  -20.4219  -49.5851 H         1 UNK         0.0800 
    140 H140       -1.2153  -20.6431  -51.1954 H         1 UNK         0.0800 
    141 H141       -0.5171  -19.5532  -47.6192 H         1 UNK         0.0800 
    142 H142        1.2124  -19.6782  -47.4725 H         1 UNK         0.0800 
    143 H143        0.9363  -22.2525  -47.6920 H         1 UNK         0.0600 
    144 H144        0.7494  -20.6720  -45.3662 H         1 UNK         0.3000 
    145 H145        0.9598  -23.4245  -43.0406 H         1 UNK         0.0600 
    146 H146        2.8431  -21.9851  -42.3199 H         1 UNK         0.0600 
    147 H147        3.2482  -22.8076  -43.8193 H         1 UNK         0.0600 
    148 H148        2.7965  -21.1078  -43.8470 H         1 UNK         0.0600 
    149 H149        0.6935  -20.6460  -42.5571 H         1 UNK         0.3000 
    150 H150       -2.8983  -20.5550  -42.3819 H         1 UNK         0.0600 
    151 H151       -1.9838  -21.3161  -40.1831 H         1 UNK         0.0600 
    152 H152       -2.2553  -19.5795  -40.1980 H         1 UNK         0.0600 
    153 H153       -0.6209  -20.2164  -40.3566 H         1 UNK         0.0600 
    154 H154       -1.0242  -18.4616  -42.1026 H         1 UNK         0.3000 
    155 H155       -0.9281  -17.4482  -45.5481 H         1 UNK         0.0600 
    156 H156       -2.0924  -16.3794  -42.9149 H         1 UNK         0.0600 
    157 H157       -2.8346  -16.3428  -44.4978 H         1 UNK         0.0600 
    158 H158       -1.4295  -15.3371  -44.1595 H         1 UNK         0.0600 
    159 H159        0.5632  -16.4440  -43.3914 H         1 UNK         0.3000 
    160 H160        3.3476  -18.7035  -43.5396 H         1 UNK         0.0600 
    161 H161        4.5226  -16.5068  -43.7345 H         1 UNK         0.0600 
    162 H162        3.0341  -15.7585  -44.3125 H         1 UNK         0.0600 
    163 H163        3.8160  -17.0056  -45.2645 H         1 UNK         0.0600 
    164 H164        2.6765  -16.4374  -41.8967 H         1 UNK         0.3000 
    165 H165        1.0672  -18.2685  -39.2987 H         1 UNK         0.0600 
    166 H166        2.8433  -17.1501  -37.9749 H         1 UNK         0.0600 
    167 H167        3.5165  -18.5084  -38.8618 H         1 UNK         0.0600 
    168 H168        3.7947  -16.8673  -39.4329 H         1 UNK         0.0600 
    169 H169        1.7442  -15.4994  -39.6674 H         1 UNK         0.3000 
    170 H170       -1.1763  -14.5418  -41.4520 H         1 UNK         0.0600 
    171 H171       -1.9689  -14.6151  -39.0854 H         1 UNK         0.0600 
    172 H172       -0.4155  -14.0024  -38.5307 H         1 UNK         0.0600 
    173 H173       -1.4594  -12.9958  -39.5353 H         1 UNK         0.0600 
    174 H174        0.9994  -13.0573  -40.3302 H         1 UNK         0.3000 
    175 H175        2.4019  -11.9672  -41.9717 H         1 UNK         0.0600 
    176 H176        4.0586  -14.5711  -41.8479 H         1 UNK         0.0600 
    177 H177        4.6474  -12.9583  -41.4624 H         1 UNK         0.0600 
    178 H178        3.4604  -13.7175  -40.4304 H         1 UNK         0.0600 
    179 H179        2.4407  -13.5039  -44.3343 H         1 UNK         0.3000 
    180 H180        4.8908  -11.4991  -46.0647 H         1 UNK         0.0600 
    181 H181        4.4963  -14.5212  -45.8241 H         1 UNK         0.0600 
    182 H182        5.9856  -13.6625  -45.4530 H         1 UNK         0.0600 
    183 H183        5.3660  -13.6737  -47.0974 H         1 UNK         0.0600 
    184 H184        2.7461  -13.2259  -46.9379 H         1 UNK         0.3000 
    185 H185        0.3234  -10.7237  -47.3432 H         1 UNK         0.0600 
    186 H186        1.8107   -9.8891  -49.1675 H         1 UNK         0.0600 
    187 H187        2.2113  -11.5422  -49.6182 H         1 UNK         0.0600 
    188 H188        0.5618  -10.9451  -49.8070 H         1 UNK         0.0600 
    189 H189        0.7259  -13.2499  -48.6549 H         1 UNK         0.3000 
    190 H190       -1.9665  -21.1211  -45.8775 H         1 UNK         0.3000 
    191 H191       -3.9120  -22.2276  -47.5989 H         1 UNK         0.0600 
    192 H192       -4.0203  -21.6906  -44.5873 H         1 UNK         0.0600 
    193 H193       -5.4173  -22.0159  -45.6085 H         1 UNK         0.0600 
    194 H194       -4.4640  -20.5636  -45.8684 H         1 UNK         0.0600 
    195 H195       -2.2100  -23.7005  -44.7992 H         1 UNK         0.3000 
    196 H196       -3.5693  -26.2078  -44.8929 H         1 UNK         0.0600 
    197 H197       -0.7993  -25.4806  -43.8019 H         1 UNK         0.0600 
    198 H198       -1.6648  -26.9760  -43.4676 H         1 UNK         0.0600 
    199 H199       -2.3147  -25.4433  -42.9047 H         1 UNK         0.0600 
    200 H200       -0.5244  -25.0801  -46.4279 H         1 UNK         0.3000 
    201 H201        0.1869  -27.5919  -47.5703 H         1 UNK         0.0600 
    202 H202        1.0524  -24.7447  -48.2955 H         1 UNK         0.0600 
    203 H203        1.8421  -26.2175  -48.8475 H         1 UNK         0.0600 
    204 H204        1.8397  -25.8141  -47.1375 H         1 UNK         0.0600 
    205 H205       -1.3817  -24.6868  -49.0417 H         1 UNK         0.3000 
    206 H206       -1.6015  -25.9563  -51.6475 H         1 UNK         0.0600 
    207 H207       -1.1764  -23.5195  -51.3888 H         1 UNK         0.0600 
    208 H208       -2.6753  -23.7961  -52.2645 H         1 UNK         0.0600 
    209 H209       -2.7239  -23.3166  -50.5757 H         1 UNK         0.0600 
    210 H210       -3.6514  -25.7677  -48.8492 H         1 UNK         0.3000 
    211 H211       -5.6063  -26.5316  -48.2460 H         1 UNK         0.0600 
    212 H212       -5.8916  -27.9534  -50.9412 H         1 UNK         0.0600 
    213 H213       -6.8460  -28.2399  -49.4962 H         1 UNK         0.0600 
    214 H214       -5.1319  -28.6260  -49.4989 H         1 UNK         0.0600 
    215 H215       -5.7452  -25.3622  -51.5944 H         1 UNK         0.3000 
    216 H216       -8.3322  -23.9742  -51.1886 H         1 UNK         0.0600 
    217 H217       -8.1125  -23.5624  -53.6503 H         1 UNK         0.0600 
    218 H218       -7.9956  -25.2684  -53.2604 H         1 UNK         0.0600 
    219 H219       -6.5376  -24.3588  -53.6395 H         1 UNK         0.0600 
    220 H220       -5.2613  -23.2696  -50.3549 H         1 UNK         0.3000 
    221 H221       -4.0452  -21.4821  -49.8379 H         1 UNK         0.0600 
    222 H222       -6.7870  -20.1272  -49.5974 H         1 UNK         0.0600 
    223 H223       -5.9831  -21.0787  -48.3608 H         1 UNK         0.0600 
    224 H224       -5.2869  -19.5515  -48.8675 H         1 UNK         0.0600 
    225 H225       -5.9685  -18.9233  -50.9934 H         1 UNK         0.3000 
    226 H226       -3.9482  -17.7592  -52.5134 H         1 UNK         0.0600 
    227 H227       -5.8290  -16.5356  -51.4155 H         1 UNK         0.0600 
    228 H228       -5.7040  -16.1037  -53.1128 H         1 UNK         0.0600 
    229 H229       -6.9643  -17.2122  -52.5815 H         1 UNK         0.0600 
    230 H230       -6.1336  -20.2109  -53.5904 H         1 UNK         0.3000 
    231 H231       -6.1596  -19.7681  -56.3995 H         1 UNK         0.0600 
    232 H232       -7.6120  -21.4188  -55.1976 H         1 UNK         0.0600 
    233 H233       -6.1854  -22.3844  -54.8149 H         1 UNK         0.0600 
    234 H234       -6.7019  -22.1963  -56.4859 H         1 UNK         0.0600 
    235 H235       -3.5412  -20.7120  -54.2924 H         1 UNK         0.3000 
    236 H236       -1.8068  -21.9658  -56.1874 H         1 UNK         0.0600 
    237 H237       -1.2104  -20.4083  -53.6183 H         1 UNK         0.0600 
    238 H238       -1.5194  -22.1398  -53.7219 H         1 UNK         0.0600 
    239 H239       -0.0748  -21.4602  -54.4555 H         1 UNK         0.0600 
    240 H240       -2.7231  -18.5938  -55.7861 H         1 UNK         0.3000 
    241 H241       -0.7332  -17.8276  -57.8424 H         1 UNK         0.0600 
    242 H242       -4.5315  -16.4701  -58.0695 H         1 UNK         0.3800 
    243 H243       -4.0874  -17.3965  -56.6566 H         1 UNK         0.3800 
    244 H244        0.2783  -17.0255  -55.8300 H         1 UNK         0.0800 
    245 H245       -0.3040  -15.6587  -56.7265 H         1 UNK         0.0800 
    246 H246        0.4802  -16.7001  -53.6471 H         1 UNK         0.0800 
    247 H247        0.0190  -15.1068  -53.1095 H         1 UNK         0.0800 
@<TRIPOS>BOND
     1    1    2 1    
     2    1  127 1    
     3    1  128 1    
     4    1  129 1    
     5    2    3 2    
     6    2    4 am   BACKBONE|DICT|INTERRES
     7    4    5 1    
     8    4  130 1    
     9    5    6 1    
    10    5   65 1    
    11    5  131 1    
    12    6    7 1    
    13    6  132 1    
    14    6  133 1    
    15    7    8 1    
    16    8    9 1    
    17    8  134 1    
    18    8  135 1    
    19    9   10 ar   
    20    9   14 ar   
    21   10   11 ar   
    22   10  136 1    
    23   11   12 ar   
    24   11  126 1    
    25   12   13 ar   
    26   12  137 1    
    27   13   14 ar   
    28   13   15 1    
    29   14  138 1    
    30   15   16 1    
    31   15  139 1    
    32   15  140 1    
    33   16   17 1    
    34   17   18 1    
    35   17  141 1    
    36   17  142 1    
    37   18   19 1    
    38   18   67 1    
    39   18  143 1    
    40   19   20 am   BACKBONE|DICT|INTERRES
    41   19  144 1    
    42   20   21 2    
    43   20   22 1    
    44   22   23 1    
    45   22   24 1    
    46   22  145 1    
    47   23  146 1    
    48   23  147 1    
    49   23  148 1    
    50   24   25 am   BACKBONE|DICT|INTERRES
    51   24  149 1    
    52   25   26 2    
    53   25   27 1    
    54   27   28 1    
    55   27   29 1    
    56   27  150 1    
    57   28  151 1    
    58   28  152 1    
    59   28  153 1    
    60   29   30 am   BACKBONE|DICT|INTERRES
    61   29  154 1    
    62   30   31 2    
    63   30   32 1    
    64   32   33 1    
    65   32   34 1    
    66   32  155 1    
    67   33  156 1    
    68   33  157 1    
    69   33  158 1    
    70   34   35 am   BACKBONE|DICT|INTERRES
    71   34  159 1    
    72   35   36 2    
    73   35   37 1    
    74   37   38 1    
    75   37   39 1    
    76   37  160 1    
    77   38  161 1    
    78   38  162 1    
    79   38  163 1    
    80   39   40 am   BACKBONE|DICT|INTERRES
    81   39  164 1    
    82   40   41 2    
    83   40   42 1    
    84   42   43 1    
    85   42   44 1    
    86   42  165 1    
    87   43  166 1    
    88   43  167 1    
    89   43  168 1    
    90   44   45 am   BACKBONE|DICT|INTERRES
    91   44  169 1    
    92   45   46 2    
    93   45   47 1    
    94   47   48 1    
    95   47   49 1    
    96   47  170 1    
    97   48  171 1    
    98   48  172 1    
    99   48  173 1    
   100   49   50 am   BACKBONE|DICT|INTERRES
   101   49  174 1    
   102   50   51 2    
   103   50   52 1    
   104   52   53 1    
   105   52   54 1    
   106   52  175 1    
   107   53  176 1    
   108   53  177 1    
   109   53  178 1    
   110   54   55 am   BACKBONE|DICT|INTERRES
   111   54  179 1    
   112   55   56 2    
   113   55   57 1    
   114   57   58 1    
   115   57   59 1    
   116   57  180 1    
   117   58  181 1    
   118   58  182 1    
   119   58  183 1    
   120   59   60 am   BACKBONE|DICT|INTERRES
   121   59  184 1    
   122   60   61 2    
   123   60   62 1    
   124   62   63 1    
   125   62   64 1    
   126   62  185 1    
   127   63  186 1    
   128   63  187 1    
   129   63  188 1    
   130   64   65 am   BACKBONE|DICT|INTERRES
   131   64  189 1    
   132   65   66 2    
   133   67   68 2    
   134   67   69 am   BACKBONE|DICT|INTERRES
   135   69   70 1    
   136   69  190 1    
   137   70   71 1    
   138   70   72 1    
   139   70  191 1    
   140   71  192 1    
   141   71  193 1    
   142   71  194 1    
   143   72   73 2    
   144   72   74 am   BACKBONE|DICT|INTERRES
   145   74   75 1    
   146   74  195 1    
   147   75   76 1    
   148   75   77 1    
   149   75  196 1    
   150   76  197 1    
   151   76  198 1    
   152   76  199 1    
   153   77   78 2    
   154   77   79 am   BACKBONE|DICT|INTERRES
   155   79   80 1    
   156   79  200 1    
   157   80   81 1    
   158   80   82 1    
   159   80  201 1    
   160   81  202 1    
   161   81  203 1    
   162   81  204 1    
   163   82   83 2    
   164   82   84 am   BACKBONE|DICT|INTERRES
   165   84   85 1    
   166   84  205 1    
   167   85   86 1    
   168   85   87 1    
   169   85  206 1    
   170   86  207 1    
   171   86  208 1    
   172   86  209 1    
   173   87   88 2    
   174   87   89 am   BACKBONE|DICT|INTERRES
   175   89   90 1    
   176   89  210 1    
   177   90   91 1    
   178   90   92 1    
   179   90  211 1    
   180   91  212 1    
   181   91  213 1    
   182   91  214 1    
   183   92   93 2    
   184   92   94 am   BACKBONE|DICT|INTERRES
   185   94   95 1    
   186   94  215 1    
   187   95   96 1    
   188   95   97 1    
   189   95  216 1    
   190   96  217 1    
   191   96  218 1    
   192   96  219 1    
   193   97   98 2    
   194   97   99 am   BACKBONE|DICT|INTERRES
   195   99  100 1    
   196   99  220 1    
   197  100  101 1    
   198  100  102 1    
   199  100  221 1    
   200  101  222 1    
   201  101  223 1    
   202  101  224 1    
   203  102  103 2    
   204  102  104 am   BACKBONE|DICT|INTERRES
   205  104  105 1    
   206  104  225 1    
   207  105  106 1    
   208  105  107 1    
   209  105  226 1    
   210  106  227 1    
   211  106  228 1    
   212  106  229 1    
   213  107  108 2    
   214  107  109 am   BACKBONE|DICT|INTERRES
   215  109  110 1    
   216  109  230 1    
   217  110  111 1    
   218  110  112 1    
   219  110  231 1    
   220  111  232 1    
   221  111  233 1    
   222  111  234 1    
   223  112  113 2    
   224  112  114 am   BACKBONE|DICT|INTERRES
   225  114  115 1    
   226  114  235 1    
   227  115  116 1    
   228  115  117 1    
   229  115  236 1    
   230  116  237 1    
   231  116  238 1    
   232  116  239 1    
   233  117  118 2    
   234  117  119 am   BACKBONE|DICT|INTERRES
   235  119  120 1    
   236  119  240 1    
   237  120  121 1    
   238  120  124 1    
   239  120  241 1    
   240  121  122 am   BACKBONE|DICT|INTERRES
   241  121  123 2    
   242  122  242 1    
   243  122  243 1    
   244  124  125 1    
   245  124  244 1    
   246  124  245 1    
   247  125  126 1    
   248  126  246 1    
   249  126  247 1    
@<TRIPOS>SUBSTRUCTURE
     1 UNK         1 GROUP             0       ****    0 ROOT    
