@<TRIPOS>MOLECULE
3R540
247   249    1
SMALL
USER_CHARGES


@<TRIPOS>ATOM
      1 CA          9.8471  -12.1644  -47.7717 C.3       0 UNK        -0.1800 
      2 C           8.4185  -12.4659  -47.3408 C.2       0 UNK         0.5000 
      3 O           7.8381  -11.7047  -46.5661 O.2       0 UNK        -0.5000 
      4 N           7.8560  -13.5767  -47.8305 N.am      1 UNK        -0.5000 
      5 CA          6.4715  -13.9974  -47.5978 C.3       1 UNK         0.1400 
      6 C6          6.2360  -15.4950  -47.9425 C.3       23 UNK        -0.0398 
      7 S7          6.9945  -16.0623  -49.5072 S.3       23 UNK        -0.2404 
      8 C8          5.5980  -15.9882  -50.6772 C.3       23 UNK        -0.0205 
      9 C9          4.5104  -17.0282  -50.4247 C.ar      23 UNK        -0.0193 
     10 C10         3.1660  -16.6465  -50.4856 C.ar      23 UNK        -0.1150 
     11 C11         2.1509  -17.5941  -50.3328 C.ar      23 UNK        -0.0193 
     12 C12         2.4857  -18.9307  -50.1044 C.ar      23 UNK        -0.1150 
     13 C13         3.8226  -19.3266  -50.0234 C.ar      23 UNK        -0.0193 
     14 C14         4.8307  -18.3725  -50.1939 C.ar      23 UNK        -0.1150 
     15 C15         4.1694  -20.7934  -49.8030 C.3       23 UNK        -0.0205 
     16 S16         4.7661  -21.1621  -48.1175 S.3       23 UNK        -0.2404 
     17 C17         3.3846  -20.6624  -47.0336 C.3       23 UNK        -0.0398 
     18 CA          2.3031  -21.7603  -46.8355 C.3       11 UNK         0.1400 
     19 N           1.7609  -21.7525  -45.4752 N.am      11 UNK        -0.5000 
     20 C           1.0956  -22.7599  -44.8956 C.2       10 UNK         0.5000 
     21 O           0.9644  -23.8702  -45.4108 O.2       10 UNK        -0.5000 
     22 CA          0.4219  -22.4472  -43.5403 C.3       10 UNK         0.1400 
     23 CB          0.2230  -23.6975  -42.6590 C.3       10 UNK        -0.1800 
     24 N           1.0819  -21.3650  -42.7999 N.am      10 UNK        -0.5000 
     25 C           2.3138  -21.3684  -42.2685 C.2       9 UNK         0.5000 
     26 O           3.0632  -22.3454  -42.2786 O.2       9 UNK        -0.5000 
     27 CA          2.8172  -20.0482  -41.6491 C.3       9 UNK         0.1400 
     28 CB          3.9109  -19.4335  -42.5374 C.3       9 UNK        -0.1800 
     29 N           1.7657  -19.0485  -41.4472 N.am      9 UNK        -0.5000 
     30 C           0.8448  -19.0801  -40.4747 C.2       8 UNK         0.5000 
     31 O           0.7874  -19.9592  -39.6145 O.2       8 UNK        -0.5000 
     32 CA         -0.2053  -17.9525  -40.4859 C.3       8 UNK         0.1400 
     33 CB          0.3388  -16.6866  -39.8061 C.3       8 UNK        -0.1800 
     34 N          -0.6608  -17.6214  -41.8378 N.am      8 UNK        -0.5000 
     35 C          -1.4139  -18.4253  -42.6020 C.2       7 UNK         0.5000 
     36 O          -1.8207  -19.5298  -42.2419 O.2       7 UNK        -0.5000 
     37 CA         -1.7278  -17.9320  -44.0252 C.3       7 UNK         0.1400 
     38 CB         -2.8886  -16.9269  -44.0180 C.3       7 UNK        -0.1800 
     39 N          -0.5599  -17.3329  -44.6695 N.am      7 UNK        -0.5000 
     40 C           0.5308  -18.0195  -45.0320 C.2       6 UNK         0.5000 
     41 O           0.6176  -19.2448  -44.9667 O.2       6 UNK        -0.5000 
     42 CA          1.7345  -17.2205  -45.5509 C.3       6 UNK         0.1400 
     43 CB          1.6357  -17.0398  -47.0673 C.3       6 UNK        -0.1800 
     44 N           1.8757  -15.9129  -44.9221 N.am      6 UNK        -0.5000 
     45 C           2.1239  -15.6945  -43.6258 C.2       5 UNK         0.5000 
     46 O           2.2682  -16.5904  -42.7962 O.2       5 UNK        -0.5000 
     47 CA          2.1723  -14.2242  -43.1829 C.3       5 UNK         0.1400 
     48 CB          3.5398  -13.6018  -43.5041 C.3       5 UNK        -0.1800 
     49 N           1.1148  -13.4383  -43.8187 N.am      5 UNK        -0.5000 
     50 C          -0.1842  -13.5269  -43.5030 C.2       4 UNK         0.5000 
     51 O          -0.6238  -14.2579  -42.6142 O.2       4 UNK        -0.5000 
     52 CA         -1.1541  -12.6756  -44.3442 C.3       4 UNK         0.1400 
     53 CB         -1.1807  -11.2248  -43.8397 C.3       4 UNK        -0.1800 
     54 N          -0.8316  -12.6871  -45.7738 N.am      4 UNK        -0.5000 
     55 C          -0.9532  -13.7651  -46.5604 C.2       3 UNK         0.5000 
     56 O          -1.3413  -14.8615  -46.1586 O.2       3 UNK        -0.5000 
     57 CA         -0.5360  -13.6086  -48.0369 C.3       3 UNK         0.1400 
     58 CB         -1.6824  -13.0021  -48.8594 C.3       3 UNK        -0.1800 
     59 N           0.6928  -12.8377  -48.2725 N.am      3 UNK        -0.5000 
     60 C           1.8729  -13.0581  -47.6792 C.2       2 UNK         0.5000 
     61 O           2.0306  -13.8420  -46.7405 O.2       2 UNK        -0.5000 
     62 CA          3.0866  -12.2809  -48.2066 C.3       2 UNK         0.1400 
     63 CB          3.0860  -10.8302  -47.6978 C.3       2 UNK        -0.1800 
     64 N           4.2697  -12.9736  -47.7127 N.am      2 UNK        -0.5000 
     65 C           5.4574  -13.0759  -48.3106 C.2       1 UNK         0.5000 
     66 O           5.7487  -12.5128  -49.3690 O.2       1 UNK        -0.5000 
     67 C           1.1528  -21.6017  -47.8494 C.2       11 UNK         0.5000 
     68 O           1.1144  -22.3092  -48.8546 O.2       11 UNK        -0.5000 
     69 N           0.2045  -20.6997  -47.5445 N.am      12 UNK        -0.5000 
     70 CA         -0.9761  -20.4260  -48.3704 C.3       12 UNK         0.1400 
     71 CB         -1.6812  -19.1650  -47.8477 C.3       12 UNK        -0.1800 
     72 C          -1.9608  -21.6094  -48.4161 C.2       12 UNK         0.5000 
     73 O          -2.6642  -21.7813  -49.4130 O.2       12 UNK        -0.5000 
     74 N          -1.9613  -22.4148  -47.3458 N.am      13 UNK        -0.5000 
     75 CA         -2.7728  -23.6188  -47.1715 C.3       13 UNK         0.1400 
     76 CB         -2.7662  -24.0015  -45.6827 C.3       13 UNK        -0.1800 
     77 C          -2.3297  -24.8102  -48.0470 C.2       13 UNK         0.5000 
     78 O          -3.0395  -25.8151  -48.0851 O.2       13 UNK        -0.5000 
     79 N          -1.1832  -24.6931  -48.7355 N.am      14 UNK        -0.5000 
     80 CA         -0.7095  -25.6671  -49.7225 C.3       14 UNK         0.1400 
     81 CB          0.7770  -25.4086  -50.0112 C.3       14 UNK        -0.1800 
     82 C          -1.5269  -25.6382  -51.0313 C.2       14 UNK         0.5000 
     83 O          -1.5234  -26.6256  -51.7681 O.2       14 UNK        -0.5000 
     84 N          -2.2098  -24.5158  -51.2966 N.am      15 UNK        -0.5000 
     85 CA         -3.1567  -24.3483  -52.3970 C.3       15 UNK         0.1400 
     86 CB         -3.2883  -22.8453  -52.6882 C.3       15 UNK        -0.1800 
     87 C          -4.5300  -24.9600  -52.0545 C.2       15 UNK         0.5000 
     88 O          -4.7450  -25.4377  -50.9371 O.2       15 UNK        -0.5000 
     89 N          -5.4623  -24.8999  -53.0135 N.am      16 UNK        -0.5000 
     90 CA         -6.8651  -25.2912  -52.8558 C.3       16 UNK         0.1400 
     91 CB         -7.4860  -25.4830  -54.2513 C.3       16 UNK        -0.1800 
     92 C          -7.6403  -24.2624  -52.0052 C.2       16 UNK         0.5000 
     93 O          -8.5031  -23.5527  -52.5239 O.2       16 UNK        -0.5000 
     94 N          -7.2991  -24.1892  -50.7117 N.am      17 UNK        -0.5000 
     95 CA         -7.7434  -23.1899  -49.7342 C.3       17 UNK         0.1400 
     96 CB         -7.0621  -23.4758  -48.3884 C.3       17 UNK        -0.1800 
     97 C          -9.2685  -23.0542  -49.5604 C.2       17 UNK         0.5000 
     98 O          -9.7346  -21.9866  -49.1621 O.2       17 UNK        -0.5000 
     99 N         -10.0175  -24.1158  -49.8881 N.am      18 UNK        -0.5000 
    100 CA       -11.4803  -24.1211  -49.9451 C.3       18 UNK         0.1400 
    101 CB       -11.9676  -25.5688  -50.1097 C.3       18 UNK        -0.1800 
    102 C        -12.0497  -23.2288  -51.0685 C.2       18 UNK         0.5000 
    103 O        -13.1602  -22.7162  -50.9225 O.2       18 UNK        -0.5000 
    104 N        -11.2854  -23.0538  -52.1554 N.am      19 UNK        -0.5000 
    105 CA       -11.5944  -22.1490  -53.2586 C.3       19 UNK         0.1400 
    106 CB       -11.1876  -22.7999  -54.5916 C.3       19 UNK        -0.1800 
    107 C        -10.8785  -20.8052  -53.0511 C.2       19 UNK         0.5000 
    108 O        -11.5386  -19.7654  -53.0374 O.2       19 UNK        -0.5000 
    109 N         -9.5526  -20.8499  -52.8661 N.am      20 UNK        -0.5000 
    110 CA        -8.6961  -19.6947  -52.6132 C.3       20 UNK         0.1400 
    111 CB        -8.5350  -18.8385  -53.8845 C.3       20 UNK        -0.1800 
    112 C         -7.3292  -20.1831  -52.1186 C.2       20 UNK         0.5000 
    113 O         -6.7175  -21.0366  -52.7635 O.2       20 UNK        -0.5000 
    114 N         -6.8687  -19.6331  -50.9897 N.am      21 UNK        -0.5000 
    115 CA        -5.5348  -19.8814  -50.4432 C.3       21 UNK         0.1400 
    116 CB        -5.5383  -19.5254  -48.9486 C.3       21 UNK        -0.1800 
    117 C         -4.4726  -19.0707  -51.2110 C.2       21 UNK         0.5000 
    118 O         -4.7788  -17.9863  -51.7132 O.2       21 UNK        -0.5000 
    119 N         -3.2461  -19.6047  -51.2525 N.am      22 UNK        -0.5000 
    120 CA        -2.0975  -19.1349  -52.0452 C.3       22 UNK         0.1400 
    121 C         -2.2504  -19.4323  -53.5661 C.2       22 UNK         0.5000 
    122 N         -1.2384  -20.0184  -54.1919 N.am      22 UNK        -0.7600 
    123 O         -3.2562  -19.1155  -54.1951 O.2       22 UNK        -0.5000 
    124 C124       -1.7263  -17.6486  -51.7789 C.3       23 UNK        -0.0398 
    125 S125        0.0436  -17.3234  -52.0925 S.3       23 UNK        -0.2404 
    126 C126        0.6903  -17.1824  -50.4013 C.3       23 UNK        -0.0205 
    127 H127        9.8893  -11.2033  -48.2840 H         1 UNK         0.0600 
    128 H128       10.2362  -12.9268  -48.4470 H         1 UNK         0.0600 
    129 H129       10.5002  -12.1168  -46.9004 H         1 UNK         0.0600 
    130 H130        8.3683  -14.1491  -48.4869 H         1 UNK         0.3000 
    131 H131        6.2895  -13.8893  -46.5257 H         1 UNK         0.0600 
    132 H132        6.6760  -16.1032  -47.1511 H         1 UNK         0.0800 
    133 H133        5.1738  -15.7472  -47.9310 H         1 UNK         0.0800 
    134 H134        5.9865  -16.1433  -51.6844 H         1 UNK         0.0800 
    135 H135        5.1817  -14.9801  -50.6655 H         1 UNK         0.0800 
    136 H136        2.9057  -15.6141  -50.6724 H         1 UNK         0.1150 
    137 H137        1.7013  -19.6655  -49.9983 H         1 UNK         0.1150 
    138 H138        5.8660  -18.6810  -50.1579 H         1 UNK         0.1150 
    139 H139        3.3150  -21.4305  -50.0321 H         1 UNK         0.0800 
    140 H140        4.9469  -21.0806  -50.5122 H         1 UNK         0.0800 
    141 H141        2.9671  -19.7159  -47.3737 H         1 UNK         0.0800 
    142 H142        3.8464  -20.4314  -46.0724 H         1 UNK         0.0800 
    143 H143        2.7605  -22.7387  -46.9991 H         1 UNK         0.0600 
    144 H144        1.7187  -20.8512  -45.0120 H         1 UNK         0.3000 
    145 H145       -0.5704  -22.0666  -43.7870 H         1 UNK         0.0600 
    146 H146       -0.2518  -23.4402  -41.7122 H         1 UNK         0.0600 
    147 H147       -0.4187  -24.4270  -43.1541 H         1 UNK         0.0600 
    148 H148        1.1676  -24.1948  -42.4378 H         1 UNK         0.0600 
    149 H149        0.5640  -20.4977  -42.7537 H         1 UNK         0.3000 
    150 H150        3.2579  -20.2881  -40.6794 H         1 UNK         0.0600 
    151 H151        4.7419  -20.1263  -42.6759 H         1 UNK         0.0600 
    152 H152        4.3172  -18.5253  -42.0916 H         1 UNK         0.0600 
    153 H153        3.5275  -19.1786  -43.5255 H         1 UNK         0.0600 
    154 H154        1.7902  -18.2377  -42.0615 H         1 UNK         0.3000 
    155 H155       -1.0690  -18.2976  -39.9134 H         1 UNK         0.0600 
    156 H156        0.6493  -16.8970  -38.7820 H         1 UNK         0.0600 
    157 H157       -0.4207  -15.9057  -39.7624 H         1 UNK         0.0600 
    158 H158        1.2026  -16.2818  -40.3338 H         1 UNK         0.0600 
    159 H159       -0.3599  -16.7325  -42.2150 H         1 UNK         0.3000 
    160 H160       -2.0363  -18.7993  -44.6111 H         1 UNK         0.0600 
    161 H161       -2.6267  -16.0110  -43.4874 H         1 UNK         0.0600 
    162 H162       -3.7697  -17.3492  -43.5334 H         1 UNK         0.0600 
    163 H163       -3.1760  -16.6537  -45.0334 H         1 UNK         0.0600 
    164 H164       -0.5957  -16.3356  -44.8481 H         1 UNK         0.3000 
    165 H165        2.6342  -17.7982  -45.3325 H         1 UNK         0.0600 
    166 H166        2.5472  -16.6006  -47.4728 H         1 UNK         0.0600 
    167 H167        1.4810  -17.9952  -47.5651 H         1 UNK         0.0600 
    168 H168        0.8015  -16.3944  -47.3393 H         1 UNK         0.0600 
    169 H169        1.8021  -15.1078  -45.5424 H         1 UNK         0.3000 
    170 H170        2.0279  -14.1938  -42.1007 H         1 UNK         0.0600 
    171 H171        4.3444  -14.1628  -43.0268 H         1 UNK         0.0600 
    172 H172        3.7396  -13.5894  -44.5757 H         1 UNK         0.0600 
    173 H173        3.5998  -12.5758  -43.1409 H         1 UNK         0.0600 
    174 H174        1.3826  -12.8712  -44.6100 H         1 UNK         0.3000 
    175 H175       -2.1545  -13.0959  -44.2194 H         1 UNK         0.0600 
    176 H176       -1.4336  -11.1853  -42.7793 H         1 UNK         0.0600 
    177 H177       -0.2143  -10.7350  -43.9654 H         1 UNK         0.0600 
    178 H178       -1.9275  -10.6361  -44.3727 H         1 UNK         0.0600 
    179 H179       -0.4917  -11.8272  -46.1786 H         1 UNK         0.3000 
    180 H180       -0.3548  -14.6137  -48.4196 H         1 UNK         0.0600 
    181 H181       -1.8803  -11.9685  -48.5729 H         1 UNK         0.0600 
    182 H182       -2.6063  -13.5651  -48.7184 H         1 UNK         0.0600 
    183 H183       -1.4552  -13.0183  -49.9255 H         1 UNK         0.0600 
    184 H184        0.6482  -12.1551  -49.0153 H         1 UNK         0.3000 
    185 H185        3.0699  -12.3001  -49.2982 H         1 UNK         0.0600 
    186 H186        2.2100  -10.2878  -48.0550 H         1 UNK         0.0600 
    187 H187        3.0802  -10.7867  -46.6078 H         1 UNK         0.0600 
    188 H188        3.9663  -10.2909  -48.0480 H         1 UNK         0.0600 
    189 H189        4.0750  -13.5233  -46.8850 H         1 UNK         0.3000 
    190 H190        0.2838  -20.1864  -46.6728 H         1 UNK         0.3000 
    191 H191       -0.6353  -20.2355  -49.3891 H         1 UNK         0.0600 
    192 H192       -2.1669  -19.3446  -46.8888 H         1 UNK         0.0600 
    193 H193       -2.4479  -18.8296  -48.5454 H         1 UNK         0.0600 
    194 H194       -0.9880  -18.3359  -47.7166 H         1 UNK         0.0600 
    195 H195       -1.3257  -22.1952  -46.5949 H         1 UNK         0.3000 
    196 H196       -3.7980  -23.3755  -47.4558 H         1 UNK         0.0600 
    197 H197       -3.4291  -24.8467  -45.4935 H         1 UNK         0.0600 
    198 H198       -3.1097  -23.1763  -45.0585 H         1 UNK         0.0600 
    199 H199       -1.7695  -24.2877  -45.3466 H         1 UNK         0.0600 
    200 H200       -0.6331  -23.8500  -48.6357 H         1 UNK         0.3000 
    201 H201       -0.8043  -26.6667  -49.2933 H         1 UNK         0.0600 
    202 H202        1.3678  -25.4238  -49.0950 H         1 UNK         0.0600 
    203 H203        0.9304  -24.4428  -50.4939 H         1 UNK         0.0600 
    204 H204        1.1835  -26.1732  -50.6743 H         1 UNK         0.0600 
    205 H205       -2.1946  -23.7753  -50.6086 H         1 UNK         0.3000 
    206 H206       -2.7666  -24.8477  -53.2862 H         1 UNK         0.0600 
    207 H207       -2.3104  -22.3868  -52.8321 H         1 UNK         0.0600 
    208 H208       -3.8671  -22.6603  -53.5937 H         1 UNK         0.0600 
    209 H209       -3.7885  -22.3256  -51.8718 H         1 UNK         0.0600 
    210 H210       -5.2257  -24.4610  -53.8915 H         1 UNK         0.3000 
    211 H211       -6.9091  -26.2506  -52.3361 H         1 UNK         0.0600 
    212 H212       -8.5307  -25.7876  -54.1756 H         1 UNK         0.0600 
    213 H213       -6.9628  -26.2572  -54.8127 H         1 UNK         0.0600 
    214 H214       -7.4542  -24.5635  -54.8375 H         1 UNK         0.0600 
    215 H215       -6.5318  -24.7863  -50.4177 H         1 UNK         0.3000 
    216 H216       -7.3839  -22.2250  -50.0863 H         1 UNK         0.0600 
    217 H217       -7.3327  -22.7265  -47.6432 H         1 UNK         0.0600 
    218 H218       -5.9770  -23.4559  -48.4882 H         1 UNK         0.0600 
    219 H219       -7.3460  -24.4523  -47.9944 H         1 UNK         0.0600 
    220 H220       -9.5463  -24.9520  -50.1999 H         1 UNK         0.3000 
    221 H221      -11.8582  -23.7380  -48.9949 H         1 UNK         0.0600 
    222 H222      -11.6039  -26.0128  -51.0372 H         1 UNK         0.0600 
    223 H223      -11.6327  -26.1948  -49.2824 H         1 UNK         0.0600 
    224 H224      -13.0574  -25.6139  -50.1294 H         1 UNK         0.0600 
    225 H225      -10.3550  -23.4617  -52.1710 H         1 UNK         0.3000 
    226 H226      -12.6689  -21.9577  -53.2985 H         1 UNK         0.0600 
    227 H227      -11.7347  -23.7281  -54.7565 H         1 UNK         0.0600 
    228 H228      -11.4084  -22.1386  -55.4303 H         1 UNK         0.0600 
    229 H229      -10.1226  -23.0314  -54.6285 H         1 UNK         0.0600 
    230 H230       -9.0761  -21.7502  -52.8659 H         1 UNK         0.3000 
    231 H231       -9.1577  -19.0871  -51.8319 H         1 UNK         0.0600 
    232 H232       -9.4828  -18.4035  -54.2008 H         1 UNK         0.0600 
    233 H233       -8.1426  -19.4269  -54.7148 H         1 UNK         0.0600 
    234 H234       -7.8436  -18.0125  -53.7121 H         1 UNK         0.0600 
    235 H235       -7.4058  -18.9054  -50.5410 H         1 UNK         0.3000 
    236 H236       -5.3059  -20.9450  -50.5400 H         1 UNK         0.0600 
    237 H237       -4.5946  -19.8011  -48.4796 H         1 UNK         0.0600 
    238 H238       -5.6896  -18.4574  -48.7872 H         1 UNK         0.0600 
    239 H239       -6.3256  -20.0613  -48.4178 H         1 UNK         0.0600 
    240 H240       -3.0990  -20.4853  -50.7676 H         1 UNK         0.3000 
    241 H241       -1.2733  -19.7493  -51.6803 H         1 UNK         0.0600 
    242 H242       -1.3185  -20.2035  -55.1794 H         1 UNK         0.3800 
    243 H243       -0.3828  -20.2536  -53.7140 H         1 UNK         0.3800 
    244 H244       -2.3243  -16.9765  -52.3968 H         1 UNK         0.0800 
    245 H245       -1.9579  -17.3780  -50.7481 H         1 UNK         0.0800 
    246 H246        0.5654  -16.1573  -50.0510 H         1 UNK         0.0800 
    247 H247        0.1103  -17.8129  -49.7294 H         1 UNK         0.0800 
@<TRIPOS>BOND
     1    1    2 1    
     2    1  127 1    
     3    1  128 1    
     4    1  129 1    
     5    2    3 2    
     6    2    4 am   BACKBONE|DICT|INTERRES
     7    4    5 1    
     8    4  130 1    
     9    5    6 1    
    10    5   65 1    
    11    5  131 1    
    12    6    7 1    
    13    6  132 1    
    14    6  133 1    
    15    7    8 1    
    16    8    9 1    
    17    8  134 1    
    18    8  135 1    
    19    9   10 ar   
    20    9   14 ar   
    21   10   11 ar   
    22   10  136 1    
    23   11   12 ar   
    24   11  126 1    
    25   12   13 ar   
    26   12  137 1    
    27   13   14 ar   
    28   13   15 1    
    29   14  138 1    
    30   15   16 1    
    31   15  139 1    
    32   15  140 1    
    33   16   17 1    
    34   17   18 1    
    35   17  141 1    
    36   17  142 1    
    37   18   19 1    
    38   18   67 1    
    39   18  143 1    
    40   19   20 am   BACKBONE|DICT|INTERRES
    41   19  144 1    
    42   20   21 2    
    43   20   22 1    
    44   22   23 1    
    45   22   24 1    
    46   22  145 1    
    47   23  146 1    
    48   23  147 1    
    49   23  148 1    
    50   24   25 am   BACKBONE|DICT|INTERRES
    51   24  149 1    
    52   25   26 2    
    53   25   27 1    
    54   27   28 1    
    55   27   29 1    
    56   27  150 1    
    57   28  151 1    
    58   28  152 1    
    59   28  153 1    
    60   29   30 am   BACKBONE|DICT|INTERRES
    61   29  154 1    
    62   30   31 2    
    63   30   32 1    
    64   32   33 1    
    65   32   34 1    
    66   32  155 1    
    67   33  156 1    
    68   33  157 1    
    69   33  158 1    
    70   34   35 am   BACKBONE|DICT|INTERRES
    71   34  159 1    
    72   35   36 2    
    73   35   37 1    
    74   37   38 1    
    75   37   39 1    
    76   37  160 1    
    77   38  161 1    
    78   38  162 1    
    79   38  163 1    
    80   39   40 am   BACKBONE|DICT|INTERRES
    81   39  164 1    
    82   40   41 2    
    83   40   42 1    
    84   42   43 1    
    85   42   44 1    
    86   42  165 1    
    87   43  166 1    
    88   43  167 1    
    89   43  168 1    
    90   44   45 am   BACKBONE|DICT|INTERRES
    91   44  169 1    
    92   45   46 2    
    93   45   47 1    
    94   47   48 1    
    95   47   49 1    
    96   47  170 1    
    97   48  171 1    
    98   48  172 1    
    99   48  173 1    
   100   49   50 am   BACKBONE|DICT|INTERRES
   101   49  174 1    
   102   50   51 2    
   103   50   52 1    
   104   52   53 1    
   105   52   54 1    
   106   52  175 1    
   107   53  176 1    
   108   53  177 1    
   109   53  178 1    
   110   54   55 am   BACKBONE|DICT|INTERRES
   111   54  179 1    
   112   55   56 2    
   113   55   57 1    
   114   57   58 1    
   115   57   59 1    
   116   57  180 1    
   117   58  181 1    
   118   58  182 1    
   119   58  183 1    
   120   59   60 am   BACKBONE|DICT|INTERRES
   121   59  184 1    
   122   60   61 2    
   123   60   62 1    
   124   62   63 1    
   125   62   64 1    
   126   62  185 1    
   127   63  186 1    
   128   63  187 1    
   129   63  188 1    
   130   64   65 am   BACKBONE|DICT|INTERRES
   131   64  189 1    
   132   65   66 2    
   133   67   68 2    
   134   67   69 am   BACKBONE|DICT|INTERRES
   135   69   70 1    
   136   69  190 1    
   137   70   71 1    
   138   70   72 1    
   139   70  191 1    
   140   71  192 1    
   141   71  193 1    
   142   71  194 1    
   143   72   73 2    
   144   72   74 am   BACKBONE|DICT|INTERRES
   145   74   75 1    
   146   74  195 1    
   147   75   76 1    
   148   75   77 1    
   149   75  196 1    
   150   76  197 1    
   151   76  198 1    
   152   76  199 1    
   153   77   78 2    
   154   77   79 am   BACKBONE|DICT|INTERRES
   155   79   80 1    
   156   79  200 1    
   157   80   81 1    
   158   80   82 1    
   159   80  201 1    
   160   81  202 1    
   161   81  203 1    
   162   81  204 1    
   163   82   83 2    
   164   82   84 am   BACKBONE|DICT|INTERRES
   165   84   85 1    
   166   84  205 1    
   167   85   86 1    
   168   85   87 1    
   169   85  206 1    
   170   86  207 1    
   171   86  208 1    
   172   86  209 1    
   173   87   88 2    
   174   87   89 am   BACKBONE|DICT|INTERRES
   175   89   90 1    
   176   89  210 1    
   177   90   91 1    
   178   90   92 1    
   179   90  211 1    
   180   91  212 1    
   181   91  213 1    
   182   91  214 1    
   183   92   93 2    
   184   92   94 am   BACKBONE|DICT|INTERRES
   185   94   95 1    
   186   94  215 1    
   187   95   96 1    
   188   95   97 1    
   189   95  216 1    
   190   96  217 1    
   191   96  218 1    
   192   96  219 1    
   193   97   98 2    
   194   97   99 am   BACKBONE|DICT|INTERRES
   195   99  100 1    
   196   99  220 1    
   197  100  101 1    
   198  100  102 1    
   199  100  221 1    
   200  101  222 1    
   201  101  223 1    
   202  101  224 1    
   203  102  103 2    
   204  102  104 am   BACKBONE|DICT|INTERRES
   205  104  105 1    
   206  104  225 1    
   207  105  106 1    
   208  105  107 1    
   209  105  226 1    
   210  106  227 1    
   211  106  228 1    
   212  106  229 1    
   213  107  108 2    
   214  107  109 am   BACKBONE|DICT|INTERRES
   215  109  110 1    
   216  109  230 1    
   217  110  111 1    
   218  110  112 1    
   219  110  231 1    
   220  111  232 1    
   221  111  233 1    
   222  111  234 1    
   223  112  113 2    
   224  112  114 am   BACKBONE|DICT|INTERRES
   225  114  115 1    
   226  114  235 1    
   227  115  116 1    
   228  115  117 1    
   229  115  236 1    
   230  116  237 1    
   231  116  238 1    
   232  116  239 1    
   233  117  118 2    
   234  117  119 am   BACKBONE|DICT|INTERRES
   235  119  120 1    
   236  119  240 1    
   237  120  121 1    
   238  120  124 1    
   239  120  241 1    
   240  121  122 am   BACKBONE|DICT|INTERRES
   241  121  123 2    
   242  122  242 1    
   243  122  243 1    
   244  124  125 1    
   245  124  244 1    
   246  124  245 1    
   247  125  126 1    
   248  126  246 1    
   249  126  247 1    
@<TRIPOS>SUBSTRUCTURE
     1 UNK         1 GROUP             0       ****    0 ROOT    
