@<TRIPOS>MOLECULE
3R540
247   249    1
SMALL
USER_CHARGES


@<TRIPOS>ATOM
      1 CA          5.7578  -13.6633  -43.8641 C.3       0 UNK        -0.1800 
      2 C           4.7926  -13.1187  -44.9061 C.2       0 UNK         0.5000 
      3 O           5.1832  -12.3082  -45.7463 O.2       0 UNK        -0.5000 
      4 N           3.5274  -13.5477  -44.8361 N.am      1 UNK        -0.5000 
      5 CA          2.4019  -13.1948  -45.7057 C.3       1 UNK         0.1400 
      6 C6          2.6518  -13.4978  -47.2069 C.3       23 UNK        -0.0398 
      7 S7          1.0986  -13.7404  -48.1248 S.3       23 UNK        -0.2404 
      8 C8          1.7373  -14.1720  -49.7749 C.3       23 UNK        -0.0205 
      9 C9          0.7880  -15.1025  -50.5166 C.ar      23 UNK        -0.0193 
     10 C10        -0.4821  -14.6607  -50.8980 C.ar      23 UNK        -0.1150 
     11 C11        -1.3769  -15.5148  -51.5504 C.ar      23 UNK        -0.0193 
     12 C12        -0.9727  -16.8277  -51.8266 C.ar      23 UNK        -0.1150 
     13 C13         0.3085  -17.2726  -51.4912 C.ar      23 UNK        -0.0193 
     14 C14         1.1814  -16.4065  -50.8297 C.ar      23 UNK        -0.1150 
     15 C15         0.7664  -18.6716  -51.8833 C.3       23 UNK        -0.0205 
     16 S16         0.7457  -19.8467  -50.4939 S.3       23 UNK        -0.2404 
     17 C17        -1.0415  -20.1642  -50.3016 C.3       23 UNK        -0.0398 
     18 CA         -1.4541  -20.3335  -48.8150 C.3       11 UNK         0.1400 
     19 N          -1.0825  -19.1914  -47.9695 N.am      11 UNK        -0.5000 
     20 C          -1.5465  -17.9375  -48.0668 C.2       10 UNK         0.5000 
     21 O          -2.4283  -17.5957  -48.8545 O.2       10 UNK        -0.5000 
     22 CA         -0.9492  -16.8853  -47.1105 C.3       10 UNK         0.1400 
     23 CB         -2.0340  -16.3109  -46.1843 C.3       10 UNK        -0.1800 
     24 N           0.1400  -17.3958  -46.2764 N.am      10 UNK        -0.5000 
     25 C           1.4168  -17.5392  -46.6556 C.2       9 UNK         0.5000 
     26 O           1.8453  -17.2539  -47.7710 O.2       9 UNK        -0.5000 
     27 CA          2.3749  -18.1271  -45.6072 C.3       9 UNK         0.1400 
     28 CB          2.8618  -17.0371  -44.6395 C.3       9 UNK        -0.1800 
     29 N           1.7462  -19.2091  -44.8496 N.am      9 UNK        -0.5000 
     30 C           1.6298  -20.4698  -45.2891 C.2       8 UNK         0.5000 
     31 O           2.0540  -20.8560  -46.3777 O.2       8 UNK        -0.5000 
     32 CA          0.9112  -21.4692  -44.3637 C.3       8 UNK         0.1400 
     33 CB          1.9135  -22.1527  -43.4220 C.3       8 UNK        -0.1800 
     34 N          -0.1451  -20.8451  -43.5673 N.am      8 UNK        -0.5000 
     35 C          -1.3308  -20.4616  -44.0569 C.2       7 UNK         0.5000 
     36 O          -1.6865  -20.6600  -45.2187 O.2       7 UNK        -0.5000 
     37 CA         -2.2745  -19.7150  -43.0958 C.3       7 UNK         0.1400 
     38 CB         -3.2190  -20.7058  -42.3994 C.3       7 UNK        -0.1800 
     39 N          -1.5835  -18.9046  -42.0860 N.am      7 UNK        -0.5000 
     40 C          -0.7648  -17.8835  -42.3694 C.2       6 UNK         0.5000 
     41 O          -0.4424  -17.5703  -43.5172 O.2       6 UNK        -0.5000 
     42 CA         -0.1586  -17.1202  -41.1807 C.3       6 UNK         0.1400 
     43 CB          1.1779  -17.7557  -40.7682 C.3       6 UNK        -0.1800 
     44 N           0.0791  -15.7244  -41.5383 N.am      6 UNK        -0.5000 
     45 C          -0.8717  -14.8002  -41.7130 C.2       5 UNK         0.5000 
     46 O          -2.0586  -14.9925  -41.4411 O.2       5 UNK        -0.5000 
     47 CA         -0.4097  -13.4383  -42.2788 C.3       5 UNK         0.1400 
     48 CB         -1.5486  -12.4045  -42.3430 C.3       5 UNK        -0.1800 
     49 N           0.7116  -12.8547  -41.5357 N.am      5 UNK        -0.5000 
     50 C           1.9876  -13.2460  -41.6155 C.2       4 UNK         0.5000 
     51 O           2.3733  -14.1763  -42.3278 O.2       4 UNK        -0.5000 
     52 CA          3.0041  -12.4394  -40.8022 C.3       4 UNK         0.1400 
     53 CB          4.1096  -13.3355  -40.2100 C.3       4 UNK        -0.1800 
     54 N           3.5814  -11.4324  -41.6854 N.am      4 UNK        -0.5000 
     55 C           4.2000  -10.3151  -41.2855 C.2       3 UNK         0.5000 
     56 O           4.3355   -9.9979  -40.1031 O.2       3 UNK        -0.5000 
     57 CA          4.7739   -9.3952  -42.3803 C.3       3 UNK         0.1400 
     58 CB          6.2908   -9.6006  -42.5155 C.3       3 UNK        -0.1800 
     59 N           4.1525   -9.6003  -43.6906 N.am      3 UNK        -0.5000 
     60 C           3.0090   -9.0223  -44.0856 C.2       2 UNK         0.5000 
     61 O           2.3405   -8.2685  -43.3780 O.2       2 UNK        -0.5000 
     62 CA          2.5313   -9.3550  -45.5097 C.3       2 UNK         0.1400 
     63 CB          3.2657   -8.4916  -46.5468 C.3       2 UNK        -0.1800 
     64 N           2.7435  -10.7673  -45.8201 N.am      2 UNK        -0.5000 
     65 C           1.9248  -11.7542  -45.4383 C.2       1 UNK         0.5000 
     66 O           0.8589  -11.5664  -44.8528 O.2       1 UNK        -0.5000 
     67 C          -2.9406  -20.7252  -48.6524 C.2       11 UNK         0.5000 
     68 O          -3.5944  -21.1025  -49.6254 O.2       11 UNK        -0.5000 
     69 N          -3.4408  -20.6305  -47.4146 N.am      12 UNK        -0.5000 
     70 CA         -4.7750  -21.0641  -47.0042 C.3       12 UNK         0.1400 
     71 CB         -5.3289  -20.0660  -45.9767 C.3       12 UNK        -0.1800 
     72 C          -4.7378  -22.4839  -46.4103 C.2       12 UNK         0.5000 
     73 O          -5.7124  -23.2255  -46.5469 O.2       12 UNK        -0.5000 
     74 N          -3.6107  -22.8476  -45.7818 N.am      13 UNK        -0.5000 
     75 CA         -3.3443  -24.1775  -45.2334 C.3       13 UNK         0.1400 
     76 CB         -2.0627  -24.1162  -44.3884 C.3       13 UNK        -0.1800 
     77 C          -3.2086  -25.2479  -46.3330 C.2       13 UNK         0.5000 
     78 O          -2.9684  -24.9131  -47.4957 O.2       13 UNK        -0.5000 
     79 N          -3.3513  -26.5199  -45.9331 N.am      14 UNK        -0.5000 
     80 CA         -3.2535  -27.7194  -46.7759 C.3       14 UNK         0.1400 
     81 CB         -1.8035  -27.9238  -47.2647 C.3       14 UNK        -0.1800 
     82 C          -4.2808  -27.7156  -47.9268 C.2       14 UNK         0.5000 
     83 O          -3.9256  -27.9831  -49.0758 O.2       14 UNK        -0.5000 
     84 N          -5.5330  -27.3688  -47.5887 N.am      15 UNK        -0.5000 
     85 CA         -6.6760  -27.2048  -48.4950 C.3       15 UNK         0.1400 
     86 CB         -7.1116  -28.5673  -49.0750 C.3       15 UNK        -0.1800 
     87 C          -6.3965  -26.1487  -49.5832 C.2       15 UNK         0.5000 
     88 O          -6.5359  -26.4325  -50.7735 O.2       15 UNK        -0.5000 
     89 N          -5.9556  -24.9613  -49.1427 N.am      16 UNK        -0.5000 
     90 CA         -5.5104  -23.8328  -49.9641 C.3       16 UNK         0.1400 
     91 CB         -6.6979  -23.1949  -50.7144 C.3       16 UNK        -0.1800 
     92 C          -4.3385  -24.2123  -50.8905 C.2       16 UNK         0.5000 
     93 O          -4.4131  -23.9954  -52.1004 O.2       16 UNK        -0.5000 
     94 N          -3.2973  -24.8197  -50.3025 N.am      17 UNK        -0.5000 
     95 CA         -2.0946  -25.3402  -50.9586 C.3       17 UNK         0.1400 
     96 CB         -1.2003  -24.1727  -51.4259 C.3       17 UNK        -0.1800 
     97 C          -2.4270  -26.3419  -52.0855 C.2       17 UNK         0.5000 
     98 O          -1.9725  -26.1742  -53.2176 O.2       17 UNK        -0.5000 
     99 N          -3.2591  -27.3410  -51.7564 N.am      18 UNK        -0.5000 
    100 CA        -3.8319  -28.3478  -52.6567 C.3       18 UNK         0.1400 
    101 CB        -2.7408  -29.3155  -53.1599 C.3       18 UNK        -0.1800 
    102 C         -4.6614  -27.7147  -53.7958 C.2       18 UNK         0.5000 
    103 O         -4.5016  -28.0768  -54.9629 O.2       18 UNK        -0.5000 
    104 N         -5.5233  -26.7610  -53.4175 N.am      19 UNK        -0.5000 
    105 CA        -6.4331  -25.9711  -54.2523 C.3       19 UNK         0.1400 
    106 CB        -7.4874  -26.8777  -54.9208 C.3       19 UNK        -0.1800 
    107 C         -5.7433  -25.0226  -55.2583 C.2       19 UNK         0.5000 
    108 O         -6.4098  -24.5264  -56.1687 O.2       19 UNK        -0.5000 
    109 N         -4.4418  -24.7561  -55.0812 N.am      20 UNK        -0.5000 
    110 CA        -3.6869  -23.7887  -55.8806 C.3       20 UNK         0.1400 
    111 CB        -2.1852  -24.0832  -55.7567 C.3       20 UNK        -0.1800 
    112 C         -3.9806  -22.3343  -55.4684 C.2       20 UNK         0.5000 
    113 O         -3.9551  -21.4458  -56.3235 O.2       20 UNK        -0.5000 
    114 N         -4.2538  -22.1251  -54.1711 N.am      21 UNK        -0.5000 
    115 CA        -4.5249  -20.8513  -53.5052 C.3       21 UNK         0.1400 
    116 CB        -5.9599  -20.3833  -53.8352 C.3       21 UNK        -0.1800 
    117 C         -3.4257  -19.8092  -53.8000 C.2       21 UNK         0.5000 
    118 O         -2.2631  -20.0547  -53.4761 O.2       21 UNK        -0.5000 
    119 N         -3.8063  -18.6916  -54.4254 N.am      22 UNK        -0.5000 
    120 CA        -2.9132  -17.6069  -54.8594 C.3       22 UNK         0.1400 
    121 C         -2.5994  -17.6529  -56.3842 C.2       22 UNK         0.5000 
    122 N         -2.9385  -18.7150  -57.1075 N.am      22 UNK        -0.7600 
    123 O         -2.0244  -16.7126  -56.9259 O.2       22 UNK        -0.5000 
    124 C124       -3.4396  -16.2136  -54.4106 C.3       23 UNK        -0.0398 
    125 S125       -3.9490  -16.1382  -52.6515 S.3       23 UNK        -0.2404 
    126 C126       -2.7570  -14.9620  -51.9173 C.3       23 UNK        -0.0205 
    127 H127        5.3412  -14.5280  -43.3465 H         1 UNK         0.0600 
    128 H128        5.9856  -12.8995  -43.1221 H         1 UNK         0.0600 
    129 H129        6.6897  -13.9710  -44.3383 H         1 UNK         0.0600 
    130 H130        3.2614  -14.1221  -44.0402 H         1 UNK         0.3000 
    131 H131        1.5973  -13.8531  -45.3717 H         1 UNK         0.0600 
    132 H132        3.2491  -12.7239  -47.6910 H         1 UNK         0.0800 
    133 H133        3.2241  -14.4224  -47.2974 H         1 UNK         0.0800 
    134 H134        1.8862  -13.2603  -50.3549 H         1 UNK         0.0800 
    135 H135        2.7177  -14.6407  -49.6768 H         1 UNK         0.0800 
    136 H136       -0.7814  -13.6480  -50.6655 H         1 UNK         0.1150 
    137 H137       -1.6496  -17.5211  -52.2961 H         1 UNK         0.1150 
    138 H138        2.1660  -16.7550  -50.5509 H         1 UNK         0.1150 
    139 H139        0.1555  -19.0636  -52.6978 H         1 UNK         0.0800 
    140 H140        1.7837  -18.6152  -52.2730 H         1 UNK         0.0800 
    141 H141       -1.2766  -21.0631  -50.8737 H         1 UNK         0.0800 
    142 H142       -1.6155  -19.3601  -50.7617 H         1 UNK         0.0800 
    143 H143       -0.8926  -21.1818  -48.4205 H         1 UNK         0.0600 
    144 H144       -0.3742  -19.3720  -47.2735 H         1 UNK         0.3000 
    145 H145       -0.5664  -16.0763  -47.7335 H         1 UNK         0.0600 
    146 H146       -1.6270  -15.5355  -45.5346 H         1 UNK         0.0600 
    147 H147       -2.8441  -15.8607  -46.7590 H         1 UNK         0.0600 
    148 H148       -2.4691  -17.0847  -45.5504 H         1 UNK         0.0600 
    149 H149       -0.1004  -17.6033  -45.3092 H         1 UNK         0.3000 
    150 H150        3.2476  -18.5238  -46.1309 H         1 UNK         0.0600 
    151 H151        3.4178  -16.2721  -45.1807 H         1 UNK         0.0600 
    152 H152        3.5303  -17.4475  -43.8826 H         1 UNK         0.0600 
    153 H153        2.0351  -16.5445  -44.1261 H         1 UNK         0.0600 
    154 H154        1.3041  -18.9522  -43.9787 H         1 UNK         0.3000 
    155 H155        0.4648  -22.2365  -44.9983 H         1 UNK         0.0600 
    156 H156        2.7060  -22.6457  -43.9865 H         1 UNK         0.0600 
    157 H157        1.4255  -22.9156  -42.8150 H         1 UNK         0.0600 
    158 H158        2.3863  -21.4374  -42.7478 H         1 UNK         0.0600 
    159 H159        0.0593  -20.6605  -42.5965 H         1 UNK         0.3000 
    160 H160       -2.8780  -19.0363  -43.7019 H         1 UNK         0.0600 
    161 H161       -2.6755  -21.3867  -41.7431 H         1 UNK         0.0600 
    162 H162       -3.7587  -21.3137  -43.1268 H         1 UNK         0.0600 
    163 H163       -3.9647  -20.1841  -41.7994 H         1 UNK         0.0600 
    164 H164       -1.7892  -19.1168  -41.1202 H         1 UNK         0.3000 
    165 H165       -0.8504  -17.1580  -40.3368 H         1 UNK         0.0600 
    166 H166        1.6165  -17.2315  -39.9188 H         1 UNK         0.0600 
    167 H167        1.0440  -18.7969  -40.4724 H         1 UNK         0.0600 
    168 H168        1.9032  -17.7348  -41.5829 H         1 UNK         0.0600 
    169 H169        1.0232  -15.4768  -41.8167 H         1 UNK         0.3000 
    170 H170       -0.0826  -13.6269  -43.3033 H         1 UNK         0.0600 
    171 H171       -2.3813  -12.7745  -42.9425 H         1 UNK         0.0600 
    172 H172       -1.9344  -12.1674  -41.3508 H         1 UNK         0.0600 
    173 H173       -1.2104  -11.4760  -42.8037 H         1 UNK         0.0600 
    174 H174        0.4787  -12.0859  -40.9239 H         1 UNK         0.3000 
    175 H175        2.4787  -11.9463  -39.9815 H         1 UNK         0.0600 
    176 H176        4.7093  -13.8078  -40.9882 H         1 UNK         0.0600 
    177 H177        4.7837  -12.7649  -39.5713 H         1 UNK         0.0600 
    178 H178        3.6803  -14.1302  -39.5988 H         1 UNK         0.0600 
    179 H179        3.4658  -11.5970  -42.6745 H         1 UNK         0.3000 
    180 H180        4.6037   -8.3644  -42.0619 H         1 UNK         0.0600 
    181 H181        6.5358  -10.6067  -42.8552 H         1 UNK         0.0600 
    182 H182        6.7939   -9.4450  -41.5602 H         1 UNK         0.0600 
    183 H183        6.7210   -8.8942  -43.2257 H         1 UNK         0.0600 
    184 H184        4.6472  -10.1941  -44.3410 H         1 UNK         0.3000 
    185 H185        1.4650   -9.1270  -45.5729 H         1 UNK         0.0600 
    186 H186        3.1183   -7.4299  -46.3447 H         1 UNK         0.0600 
    187 H187        4.3399   -8.6809  -46.5449 H         1 UNK         0.0600 
    188 H188        2.8935   -8.6852  -47.5530 H         1 UNK         0.0600 
    189 H189        3.6362  -11.0245  -46.2267 H         1 UNK         0.3000 
    190 H190       -2.8071  -20.3525  -46.6699 H         1 UNK         0.3000 
    191 H191       -5.4478  -21.0732  -47.8642 H         1 UNK         0.0600 
    192 H192       -5.3904  -19.0625  -46.3983 H         1 UNK         0.0600 
    193 H193       -6.3337  -20.3488  -45.6601 H         1 UNK         0.0600 
    194 H194       -4.7050  -20.0157  -45.0847 H         1 UNK         0.0600 
    195 H195       -2.8494  -22.1807  -45.7342 H         1 UNK         0.3000 
    196 H196       -4.1804  -24.4509  -44.5866 H         1 UNK         0.0600 
    197 H197       -1.8537  -25.0769  -43.9163 H         1 UNK         0.0600 
    198 H198       -2.1469  -23.3793  -43.5902 H         1 UNK         0.0600 
    199 H199       -1.1975  -23.8584  -44.9987 H         1 UNK         0.0600 
    200 H200       -3.5464  -26.6945  -44.9568 H         1 UNK         0.3000 
    201 H201       -3.5093  -28.5695  -46.1418 H         1 UNK         0.0600 
    202 H202       -1.1059  -27.9480  -46.4277 H         1 UNK         0.0600 
    203 H203       -1.4856  -27.1307  -47.9419 H         1 UNK         0.0600 
    204 H204       -1.7010  -28.8690  -47.7990 H         1 UNK         0.0600 
    205 H205       -5.7106  -27.1467  -46.6193 H         1 UNK         0.3000 
    206 H206       -7.5024  -26.8208  -47.8951 H         1 UNK         0.0600 
    207 H207       -7.3238  -29.2835  -48.2815 H         1 UNK         0.0600 
    208 H208       -8.0196  -28.4641  -49.6703 H         1 UNK         0.0600 
    209 H209       -6.3468  -28.9997  -49.7209 H         1 UNK         0.0600 
    210 H210       -5.8572  -24.8233  -48.1443 H         1 UNK         0.3000 
    211 H211       -5.1247  -23.0910  -49.2698 H         1 UNK         0.0600 
    212 H212       -7.1208  -23.8695  -51.4590 H         1 UNK         0.0600 
    213 H213       -6.3847  -22.2889  -51.2338 H         1 UNK         0.0600 
    214 H214       -7.4934  -22.9139  -50.0246 H         1 UNK         0.0600 
    215 H215       -3.3200  -24.9412  -49.2913 H         1 UNK         0.3000 
    216 H216       -1.5442  -25.8987  -50.2005 H         1 UNK         0.0600 
    217 H217       -0.2701  -24.5407  -51.8601 H         1 UNK         0.0600 
    218 H218       -0.9339  -23.5265  -50.5897 H         1 UNK         0.0600 
    219 H219       -1.6937  -23.5579  -52.1796 H         1 UNK         0.0600 
    220 H220       -3.5673  -27.4095  -50.7875 H         1 UNK         0.3000 
    221 H221       -4.5335  -28.9272  -52.0546 H         1 UNK         0.0600 
    222 H222       -2.0193  -28.8148  -53.8061 H         1 UNK         0.0600 
    223 H223       -2.1947  -29.7592  -52.3275 H         1 UNK         0.0600 
    224 H224       -3.1796  -30.1333  -53.7325 H         1 UNK         0.0600 
    225 H225       -5.6001  -26.5612  -52.4226 H         1 UNK         0.3000 
    226 H226       -6.9626  -25.3182  -53.5573 H         1 UNK         0.0600 
    227 H227       -7.9780  -27.5178  -54.1874 H         1 UNK         0.0600 
    228 H228       -8.2662  -26.2857  -55.4027 H         1 UNK         0.0600 
    229 H229       -7.0455  -27.5180  -55.6846 H         1 UNK         0.0600 
    230 H230       -3.9629  -25.1774  -54.2952 H         1 UNK         0.3000 
    231 H231       -3.9678  -23.9050  -56.9294 H         1 UNK         0.0600 
    232 H232       -1.8298  -23.9342  -54.7365 H         1 UNK         0.0600 
    233 H233       -1.6048  -23.4248  -56.4041 H         1 UNK         0.0600 
    234 H234       -1.9576  -25.1097  -56.0448 H         1 UNK         0.0600 
    235 H235       -4.2409  -22.9288  -53.5447 H         1 UNK         0.3000 
    236 H236       -4.4762  -21.0469  -52.4328 H         1 UNK         0.0600 
    237 H237       -6.6886  -21.1401  -53.5443 H         1 UNK         0.0600 
    238 H238       -6.2136  -19.4720  -53.2920 H         1 UNK         0.0600 
    239 H239       -6.0961  -20.1925  -54.9003 H         1 UNK         0.0600 
    240 H240       -4.7777  -18.5875  -54.6784 H         1 UNK         0.3000 
    241 H241       -1.9350  -17.7452  -54.4019 H         1 UNK         0.0600 
    242 H242       -2.7240  -18.7278  -58.0919 H         1 UNK         0.3800 
    243 H243       -3.3690  -19.5306  -56.6832 H         1 UNK         0.3800 
    244 H244       -4.3058  -15.9314  -55.0111 H         1 UNK         0.0800 
    245 H245       -2.6832  -15.4499  -54.5981 H         1 UNK         0.0800 
    246 H246       -3.2118  -14.5708  -51.0060 H         1 UNK         0.0800 
    247 H247       -2.6372  -14.1088  -52.5863 H         1 UNK         0.0800 
@<TRIPOS>BOND
     1    1    2 1    
     2    1  127 1    
     3    1  128 1    
     4    1  129 1    
     5    2    3 2    
     6    2    4 am   BACKBONE|DICT|INTERRES
     7    4    5 1    
     8    4  130 1    
     9    5    6 1    
    10    5   65 1    
    11    5  131 1    
    12    6    7 1    
    13    6  132 1    
    14    6  133 1    
    15    7    8 1    
    16    8    9 1    
    17    8  134 1    
    18    8  135 1    
    19    9   10 ar   
    20    9   14 ar   
    21   10   11 ar   
    22   10  136 1    
    23   11   12 ar   
    24   11  126 1    
    25   12   13 ar   
    26   12  137 1    
    27   13   14 ar   
    28   13   15 1    
    29   14  138 1    
    30   15   16 1    
    31   15  139 1    
    32   15  140 1    
    33   16   17 1    
    34   17   18 1    
    35   17  141 1    
    36   17  142 1    
    37   18   19 1    
    38   18   67 1    
    39   18  143 1    
    40   19   20 am   BACKBONE|DICT|INTERRES
    41   19  144 1    
    42   20   21 2    
    43   20   22 1    
    44   22   23 1    
    45   22   24 1    
    46   22  145 1    
    47   23  146 1    
    48   23  147 1    
    49   23  148 1    
    50   24   25 am   BACKBONE|DICT|INTERRES
    51   24  149 1    
    52   25   26 2    
    53   25   27 1    
    54   27   28 1    
    55   27   29 1    
    56   27  150 1    
    57   28  151 1    
    58   28  152 1    
    59   28  153 1    
    60   29   30 am   BACKBONE|DICT|INTERRES
    61   29  154 1    
    62   30   31 2    
    63   30   32 1    
    64   32   33 1    
    65   32   34 1    
    66   32  155 1    
    67   33  156 1    
    68   33  157 1    
    69   33  158 1    
    70   34   35 am   BACKBONE|DICT|INTERRES
    71   34  159 1    
    72   35   36 2    
    73   35   37 1    
    74   37   38 1    
    75   37   39 1    
    76   37  160 1    
    77   38  161 1    
    78   38  162 1    
    79   38  163 1    
    80   39   40 am   BACKBONE|DICT|INTERRES
    81   39  164 1    
    82   40   41 2    
    83   40   42 1    
    84   42   43 1    
    85   42   44 1    
    86   42  165 1    
    87   43  166 1    
    88   43  167 1    
    89   43  168 1    
    90   44   45 am   BACKBONE|DICT|INTERRES
    91   44  169 1    
    92   45   46 2    
    93   45   47 1    
    94   47   48 1    
    95   47   49 1    
    96   47  170 1    
    97   48  171 1    
    98   48  172 1    
    99   48  173 1    
   100   49   50 am   BACKBONE|DICT|INTERRES
   101   49  174 1    
   102   50   51 2    
   103   50   52 1    
   104   52   53 1    
   105   52   54 1    
   106   52  175 1    
   107   53  176 1    
   108   53  177 1    
   109   53  178 1    
   110   54   55 am   BACKBONE|DICT|INTERRES
   111   54  179 1    
   112   55   56 2    
   113   55   57 1    
   114   57   58 1    
   115   57   59 1    
   116   57  180 1    
   117   58  181 1    
   118   58  182 1    
   119   58  183 1    
   120   59   60 am   BACKBONE|DICT|INTERRES
   121   59  184 1    
   122   60   61 2    
   123   60   62 1    
   124   62   63 1    
   125   62   64 1    
   126   62  185 1    
   127   63  186 1    
   128   63  187 1    
   129   63  188 1    
   130   64   65 am   BACKBONE|DICT|INTERRES
   131   64  189 1    
   132   65   66 2    
   133   67   68 2    
   134   67   69 am   BACKBONE|DICT|INTERRES
   135   69   70 1    
   136   69  190 1    
   137   70   71 1    
   138   70   72 1    
   139   70  191 1    
   140   71  192 1    
   141   71  193 1    
   142   71  194 1    
   143   72   73 2    
   144   72   74 am   BACKBONE|DICT|INTERRES
   145   74   75 1    
   146   74  195 1    
   147   75   76 1    
   148   75   77 1    
   149   75  196 1    
   150   76  197 1    
   151   76  198 1    
   152   76  199 1    
   153   77   78 2    
   154   77   79 am   BACKBONE|DICT|INTERRES
   155   79   80 1    
   156   79  200 1    
   157   80   81 1    
   158   80   82 1    
   159   80  201 1    
   160   81  202 1    
   161   81  203 1    
   162   81  204 1    
   163   82   83 2    
   164   82   84 am   BACKBONE|DICT|INTERRES
   165   84   85 1    
   166   84  205 1    
   167   85   86 1    
   168   85   87 1    
   169   85  206 1    
   170   86  207 1    
   171   86  208 1    
   172   86  209 1    
   173   87   88 2    
   174   87   89 am   BACKBONE|DICT|INTERRES
   175   89   90 1    
   176   89  210 1    
   177   90   91 1    
   178   90   92 1    
   179   90  211 1    
   180   91  212 1    
   181   91  213 1    
   182   91  214 1    
   183   92   93 2    
   184   92   94 am   BACKBONE|DICT|INTERRES
   185   94   95 1    
   186   94  215 1    
   187   95   96 1    
   188   95   97 1    
   189   95  216 1    
   190   96  217 1    
   191   96  218 1    
   192   96  219 1    
   193   97   98 2    
   194   97   99 am   BACKBONE|DICT|INTERRES
   195   99  100 1    
   196   99  220 1    
   197  100  101 1    
   198  100  102 1    
   199  100  221 1    
   200  101  222 1    
   201  101  223 1    
   202  101  224 1    
   203  102  103 2    
   204  102  104 am   BACKBONE|DICT|INTERRES
   205  104  105 1    
   206  104  225 1    
   207  105  106 1    
   208  105  107 1    
   209  105  226 1    
   210  106  227 1    
   211  106  228 1    
   212  106  229 1    
   213  107  108 2    
   214  107  109 am   BACKBONE|DICT|INTERRES
   215  109  110 1    
   216  109  230 1    
   217  110  111 1    
   218  110  112 1    
   219  110  231 1    
   220  111  232 1    
   221  111  233 1    
   222  111  234 1    
   223  112  113 2    
   224  112  114 am   BACKBONE|DICT|INTERRES
   225  114  115 1    
   226  114  235 1    
   227  115  116 1    
   228  115  117 1    
   229  115  236 1    
   230  116  237 1    
   231  116  238 1    
   232  116  239 1    
   233  117  118 2    
   234  117  119 am   BACKBONE|DICT|INTERRES
   235  119  120 1    
   236  119  240 1    
   237  120  121 1    
   238  120  124 1    
   239  120  241 1    
   240  121  122 am   BACKBONE|DICT|INTERRES
   241  121  123 2    
   242  122  242 1    
   243  122  243 1    
   244  124  125 1    
   245  124  244 1    
   246  124  245 1    
   247  125  126 1    
   248  126  246 1    
   249  126  247 1    
@<TRIPOS>SUBSTRUCTURE
     1 UNK         1 GROUP             0       ****    0 ROOT    
