@<TRIPOS>MOLECULE
3R540
247   249    1
SMALL
USER_CHARGES


@<TRIPOS>ATOM
      1 CA          1.0239   -7.5724  -48.6242 C.3       0 UNK        -0.1800 
      2 C           1.5315   -8.8411  -47.9540 C.2       0 UNK         0.5000 
      3 O           2.6135   -8.8340  -47.3651 O.2       0 UNK        -0.5000 
      4 N           0.7567   -9.9302  -48.0355 N.am      1 UNK        -0.5000 
      5 CA          1.0564  -11.2317  -47.4312 C.3       1 UNK         0.1400 
      6 C6          0.3687  -12.3834  -48.2096 C.3       23 UNK        -0.0398 
      7 S7          1.2434  -13.9676  -47.9752 S.3       23 UNK        -0.2404 
      8 C8          1.0833  -14.7424  -49.6229 C.3       23 UNK        -0.0205 
      9 C9         -0.2235  -15.4963  -49.8842 C.ar      23 UNK        -0.0193 
     10 C10        -0.2776  -16.3634  -50.9809 C.ar      23 UNK        -0.1150 
     11 C11        -1.4294  -17.1070  -51.2536 C.ar      23 UNK        -0.0193 
     12 C12        -2.5461  -16.9754  -50.4244 C.ar      23 UNK        -0.1150 
     13 C13        -2.5106  -16.1174  -49.3233 C.ar      23 UNK        -0.0193 
     14 C14        -1.3529  -15.3802  -49.0615 C.ar      23 UNK        -0.1150 
     15 C15        -3.7164  -15.9818  -48.4079 C.3       23 UNK        -0.0205 
     16 S16        -3.7458  -17.2931  -47.1465 S.3       23 UNK        -0.2404 
     17 C17        -4.8887  -18.5098  -47.8921 C.3       23 UNK        -0.0398 
     18 CA         -4.5016  -19.9885  -47.6513 C.3       11 UNK         0.1400 
     19 N          -3.2036  -20.3318  -48.2400 N.am      11 UNK        -0.5000 
     20 C          -2.7533  -21.5832  -48.3984 C.2       10 UNK         0.5000 
     21 O          -3.3934  -22.5840  -48.0730 O.2       10 UNK        -0.5000 
     22 CA         -1.3444  -21.7544  -48.9908 C.3       10 UNK         0.1400 
     23 CB         -1.4356  -21.8242  -50.5233 C.3       10 UNK        -0.1800 
     24 N          -0.3719  -20.7218  -48.6142 N.am      10 UNK        -0.5000 
     25 C          -0.0725  -20.3193  -47.3706 C.2       9 UNK         0.5000 
     26 O          -0.6823  -20.6800  -46.3610 O.2       9 UNK        -0.5000 
     27 CA          1.0765  -19.3050  -47.2533 C.3       9 UNK         0.1400 
     28 CB          0.5578  -17.8936  -47.5406 C.3       9 UNK        -0.1800 
     29 N           1.7059  -19.3330  -45.9337 N.am      9 UNK        -0.5000 
     30 C           2.5224  -20.3094  -45.5136 C.2       8 UNK         0.5000 
     31 O           2.8501  -21.2660  -46.2177 O.2       8 UNK        -0.5000 
     32 CA          3.0978  -20.2076  -44.0894 C.3       8 UNK         0.1400 
     33 CB          4.5445  -19.6953  -44.1425 C.3       8 UNK        -0.1800 
     34 N           2.3096  -19.3361  -43.2166 N.am      8 UNK        -0.5000 
     35 C           1.3196  -19.7585  -42.4195 C.2       7 UNK         0.5000 
     36 O           0.9788  -20.9396  -42.3380 O.2       7 UNK        -0.5000 
     37 CA          0.5718  -18.6960  -41.5816 C.3       7 UNK         0.1400 
     38 CB          0.0305  -19.2588  -40.2512 C.3       7 UNK        -0.1800 
     39 N           1.3139  -17.4532  -41.3519 N.am      7 UNK        -0.5000 
     40 C           2.4652  -17.2766  -40.6897 C.2       6 UNK         0.5000 
     41 O           3.0948  -18.1827  -40.1409 O.2       6 UNK        -0.5000 
     42 CA          2.9956  -15.8242  -40.6743 C.3       6 UNK         0.1400 
     43 CB          4.3791  -15.6835  -40.0064 C.3       6 UNK        -0.1800 
     44 N           2.9967  -15.2266  -42.0161 N.am      6 UNK        -0.5000 
     45 C           3.6377  -15.6898  -43.1001 C.2       5 UNK         0.5000 
     46 O           4.4329  -16.6284  -43.0767 O.2       5 UNK        -0.5000 
     47 CA          3.2794  -15.0126  -44.4389 C.3       5 UNK         0.1400 
     48 CB          3.8307  -15.7679  -45.6677 C.3       5 UNK        -0.1800 
     49 N           1.8355  -14.7887  -44.5668 N.am      5 UNK        -0.5000 
     50 C           0.8648  -15.7151  -44.5629 C.2       4 UNK         0.5000 
     51 O           1.0717  -16.9274  -44.4982 O.2       4 UNK        -0.5000 
     52 CA         -0.5792  -15.1707  -44.5711 C.3       4 UNK         0.1400 
     53 CB         -1.6428  -16.2598  -44.3148 C.3       4 UNK        -0.1800 
     54 N          -0.7416  -14.0504  -43.6358 N.am      4 UNK        -0.5000 
     55 C          -0.5415  -14.0844  -42.3077 C.2       3 UNK         0.5000 
     56 O          -0.2581  -15.1104  -41.6888 O.2       3 UNK        -0.5000 
     57 CA         -0.6187  -12.7370  -41.5564 C.3       3 UNK         0.1400 
     58 CB          0.0658  -12.7858  -40.1737 C.3       3 UNK        -0.1800 
     59 N          -0.1018  -11.6076  -42.3382 N.am      3 UNK        -0.5000 
     60 C           1.1206  -11.4908  -42.8767 C.2       2 UNK         0.5000 
     61 O           2.0086  -12.3412  -42.7787 O.2       2 UNK        -0.5000 
     62 CA          1.3666  -10.2221  -43.7132 C.3       2 UNK         0.1400 
     63 CB          2.6086   -9.4685  -43.2125 C.3       2 UNK        -0.1800 
     64 N           1.5225  -10.4966  -45.1437 N.am      2 UNK        -0.5000 
     65 C           0.6983  -11.2066  -45.9274 C.2       1 UNK         0.5000 
     66 O          -0.3196  -11.7715  -45.5203 O.2       1 UNK        -0.5000 
     67 C          -4.6299  -20.3910  -46.1638 C.2       11 UNK         0.5000 
     68 O          -5.7456  -20.6393  -45.7056 O.2       11 UNK        -0.5000 
     69 N          -3.4975  -20.4698  -45.4533 N.am      12 UNK        -0.5000 
     70 CA         -3.4176  -20.8488  -44.0472 C.3       12 UNK         0.1400 
     71 CB         -2.5452  -19.8241  -43.3066 C.3       12 UNK        -0.1800 
     72 C          -2.8434  -22.2646  -43.8936 C.2       12 UNK         0.5000 
     73 O          -3.4403  -23.0888  -43.2011 O.2       12 UNK        -0.5000 
     74 N          -1.7021  -22.5266  -44.5443 N.am      13 UNK        -0.5000 
     75 CA         -0.9207  -23.7551  -44.3970 C.3       13 UNK         0.1400 
     76 CB          0.4794  -23.5349  -44.9875 C.3       13 UNK        -0.1800 
     77 C          -1.5780  -24.9899  -45.0344 C.2       13 UNK         0.5000 
     78 O          -1.4171  -26.0933  -44.5115 O.2       13 UNK        -0.5000 
     79 N          -2.2998  -24.7847  -46.1428 N.am      14 UNK        -0.5000 
     80 CA         -2.9972  -25.8328  -46.8898 C.3       14 UNK         0.1400 
     81 CB         -2.4285  -25.8841  -48.3188 C.3       14 UNK        -0.1800 
     82 C          -4.5183  -25.6032  -46.9054 C.2       14 UNK         0.5000 
     83 O          -5.2163  -26.2826  -47.6566 O.2       14 UNK        -0.5000 
     84 N          -5.0108  -24.6312  -46.1204 N.am      15 UNK        -0.5000 
     85 CA         -6.4139  -24.2043  -46.0224 C.3       15 UNK         0.1400 
     86 CB         -7.2446  -25.2748  -45.2851 C.3       15 UNK        -0.1800 
     87 C          -7.0309  -23.8022  -47.3832 C.2       15 UNK         0.5000 
     88 O          -8.2183  -24.0327  -47.6167 O.2       15 UNK        -0.5000 
     89 N          -6.1919  -23.2337  -48.2619 N.am      16 UNK        -0.5000 
     90 CA         -6.4650  -22.8256  -49.6419 C.3       16 UNK         0.1400 
     91 CB         -7.6176  -21.8022  -49.7216 C.3       16 UNK        -0.1800 
     92 C          -6.6391  -23.9940  -50.6349 C.2       16 UNK         0.5000 
     93 O          -7.0290  -23.7474  -51.7759 O.2       16 UNK        -0.5000 
     94 N          -6.2963  -25.2323  -50.2448 N.am      17 UNK        -0.5000 
     95 CA         -6.2959  -26.3895  -51.1497 C.3       17 UNK         0.1400 
     96 CB         -6.2017  -27.6891  -50.3374 C.3       17 UNK        -0.1800 
     97 C          -5.1607  -26.3245  -52.1913 C.2       17 UNK         0.5000 
     98 O          -5.3224  -26.8289  -53.3026 O.2       17 UNK        -0.5000 
     99 N          -4.0458  -25.6800  -51.8198 N.am      18 UNK        -0.5000 
    100 CA        -2.8701  -25.4640  -52.6658 C.3       18 UNK         0.1400 
    101 CB        -1.6050  -25.5987  -51.8014 C.3       18 UNK        -0.1800 
    102 C         -2.9019  -24.1062  -53.3978 C.2       18 UNK         0.5000 
    103 O         -1.9080  -23.7401  -54.0258 O.2       18 UNK        -0.5000 
    104 N         -4.0259  -23.3735  -53.3273 N.am      19 UNK        -0.5000 
    105 CA        -4.1996  -22.0381  -53.9154 C.3       19 UNK         0.1400 
    106 CB        -5.5305  -21.4334  -53.4480 C.3       19 UNK        -0.1800 
    107 C         -4.0866  -21.9865  -55.4536 C.2       19 UNK         0.5000 
    108 O         -3.8923  -20.9044  -56.0047 O.2       19 UNK        -0.5000 
    109 N         -4.1434  -23.1455  -56.1234 N.am      20 UNK        -0.5000 
    110 CA        -3.8351  -23.3044  -57.5469 C.3       20 UNK         0.1400 
    111 CB        -4.1598  -24.7461  -57.9665 C.3       20 UNK        -0.1800 
    112 C         -2.3728  -22.9538  -57.9051 C.2       20 UNK         0.5000 
    113 O         -2.1059  -22.5918  -59.0513 O.2       20 UNK        -0.5000 
    114 N         -1.4599  -23.0488  -56.9264 N.am      21 UNK        -0.5000 
    115 CA        -0.0477  -22.6850  -57.0589 C.3       21 UNK         0.1400 
    116 CB         0.7810  -23.6085  -56.1502 C.3       21 UNK        -0.1800 
    117 C          0.2305  -21.2032  -56.7251 C.2       21 UNK         0.5000 
    118 O          1.3739  -20.7664  -56.8665 O.2       21 UNK        -0.5000 
    119 N         -0.7876  -20.4603  -56.2679 N.am      22 UNK        -0.5000 
    120 CA        -0.7031  -19.0339  -55.9186 C.3       22 UNK         0.1400 
    121 C         -0.4498  -18.1246  -57.1553 C.2       22 UNK         0.5000 
    122 N          0.3467  -17.0743  -57.0113 N.am      22 UNK        -0.7600 
    123 O         -0.9955  -18.3438  -58.2348 O.2       22 UNK        -0.5000 
    124 C124       -1.9654  -18.5912  -55.1351 C.3       23 UNK        -0.0398 
    125 S125       -1.6746  -17.1882  -54.0073 S.3       23 UNK        -0.2404 
    126 C126       -1.4608  -18.0685  -52.4298 C.3       23 UNK        -0.0205 
    127 H127        0.0588   -7.7269  -49.1074 H         1 UNK         0.0600 
    128 H128        1.7336   -7.2385  -49.3811 H         1 UNK         0.0600 
    129 H129        0.9117   -6.7780  -47.8864 H         1 UNK         0.0600 
    130 H130       -0.1359   -9.8620  -48.5039 H         1 UNK         0.3000 
    131 H131        2.1356  -11.3869  -47.5050 H         1 UNK         0.0600 
    132 H132       -0.6837  -12.4911  -47.9431 H         1 UNK         0.0800 
    133 H133        0.3767  -12.1538  -49.2757 H         1 UNK         0.0800 
    134 H134        1.9089  -15.4488  -49.7221 H         1 UNK         0.0800 
    135 H135        1.2314  -13.9947  -50.4027 H         1 UNK         0.0800 
    136 H136        0.5857  -16.4697  -51.6229 H         1 UNK         0.1150 
    137 H137       -3.4401  -17.5454  -50.6325 H         1 UNK         0.1150 
    138 H138       -1.3424  -14.7316  -48.1998 H         1 UNK         0.1150 
    139 H139       -3.6887  -15.0168  -47.8994 H         1 UNK         0.0800 
    140 H140       -4.6391  -15.9842  -48.9897 H         1 UNK         0.0800 
    141 H141       -4.9521  -18.3353  -48.9662 H         1 UNK         0.0800 
    142 H142       -5.8916  -18.3141  -47.5083 H         1 UNK         0.0800 
    143 H143       -5.2441  -20.5851  -48.1807 H         1 UNK         0.0600 
    144 H144       -2.6058  -19.5593  -48.4955 H         1 UNK         0.3000 
    145 H145       -0.9601  -22.7090  -48.6258 H         1 UNK         0.0600 
    146 H146       -0.4900  -22.1409  -50.9637 H         1 UNK         0.0600 
    147 H147       -2.1960  -22.5383  -50.8405 H         1 UNK         0.0600 
    148 H148       -1.7010  -20.8586  -50.9544 H         1 UNK         0.0600 
    149 H149        0.1714  -20.3424  -49.3756 H         1 UNK         0.3000 
    150 H150        1.8350  -19.5504  -47.9996 H         1 UNK         0.0600 
    151 H151        0.1498  -17.8426  -48.5483 H         1 UNK         0.0600 
    152 H152        1.3530  -17.1514  -47.4696 H         1 UNK         0.0600 
    153 H153       -0.2383  -17.6055  -46.8555 H         1 UNK         0.0600 
    154 H154        1.4642  -18.5747  -45.3003 H         1 UNK         0.3000 
    155 H155        3.1211  -21.2161  -43.6714 H         1 UNK         0.0600 
    156 H156        4.6120  -18.7343  -44.6527 H         1 UNK         0.0600 
    157 H157        5.1849  -20.3944  -44.6813 H         1 UNK         0.0600 
    158 H158        4.9607  -19.5756  -43.1419 H         1 UNK         0.0600 
    159 H159        2.5020  -18.3435  -43.2624 H         1 UNK         0.3000 
    160 H160       -0.2879  -18.4036  -42.1831 H         1 UNK         0.0600 
    161 H161        0.8342  -19.6196  -39.6089 H         1 UNK         0.0600 
    162 H162       -0.6488  -20.0942  -40.4234 H         1 UNK         0.0600 
    163 H163       -0.5259  -18.5003  -39.7006 H         1 UNK         0.0600 
    164 H164        0.8612  -16.6192  -41.7195 H         1 UNK         0.3000 
    165 H165        2.2850  -15.2470  -40.0812 H         1 UNK         0.0600 
    166 H166        5.1411  -16.2719  -40.5181 H         1 UNK         0.0600 
    167 H167        4.7076  -14.6442  -39.9975 H         1 UNK         0.0600 
    168 H168        4.3467  -16.0227  -38.9705 H         1 UNK         0.0600 
    169 H169        2.3822  -14.4314  -42.1470 H         1 UNK         0.3000 
    170 H170        3.7457  -14.0266  -44.4186 H         1 UNK         0.0600 
    171 H171        4.9162  -15.8585  -45.6159 H         1 UNK         0.0600 
    172 H172        3.4231  -16.7759  -45.7452 H         1 UNK         0.0600 
    173 H173        3.5962  -15.2416  -46.5920 H         1 UNK         0.0600 
    174 H174        1.5527  -13.8188  -44.5390 H         1 UNK         0.3000 
    175 H175       -0.7490  -14.7723  -45.5724 H         1 UNK         0.0600 
    176 H176       -1.5481  -16.7017  -43.3239 H         1 UNK         0.0600 
    177 H177       -2.6497  -15.8525  -44.4031 H         1 UNK         0.0600 
    178 H178       -1.5603  -17.0723  -45.0359 H         1 UNK         0.0600 
    179 H179       -0.9006  -13.1477  -44.0723 H         1 UNK         0.3000 
    180 H180       -1.6798  -12.5435  -41.3941 H         1 UNK         0.0600 
    181 H181        1.1299  -13.0081  -40.2555 H         1 UNK         0.0600 
    182 H182       -0.3816  -13.5520  -39.5394 H         1 UNK         0.0600 
    183 H183       -0.0370  -11.8351  -39.6507 H         1 UNK         0.0600 
    184 H184       -0.7690  -10.8697  -42.5163 H         1 UNK         0.3000 
    185 H185        0.5066   -9.5586  -43.6046 H         1 UNK         0.0600 
    186 H186        2.5236   -9.2369  -42.1500 H         1 UNK         0.0600 
    187 H187        3.5177  -10.0559  -43.3489 H         1 UNK         0.0600 
    188 H188        2.7376   -8.5239  -43.7414 H         1 UNK         0.0600 
    189 H189        2.2942  -10.0257  -45.6013 H         1 UNK         0.3000 
    190 H190       -2.6142  -20.2990  -45.9220 H         1 UNK         0.3000 
    191 H191       -4.4079  -20.8389  -43.5870 H         1 UNK         0.0600 
    192 H192       -2.4152  -20.1020  -42.2601 H         1 UNK         0.0600 
    193 H193       -3.0028  -18.8352  -43.3273 H         1 UNK         0.0600 
    194 H194       -1.5543  -19.7420  -43.7551 H         1 UNK         0.0600 
    195 H195       -1.2844  -21.7985  -45.1218 H         1 UNK         0.3000 
    196 H196       -0.8082  -23.9553  -43.3293 H         1 UNK         0.0600 
    197 H197        0.4370  -23.2907  -46.0497 H         1 UNK         0.0600 
    198 H198        0.9934  -22.7211  -44.4775 H         1 UNK         0.0600 
    199 H199        1.0976  -24.4267  -44.8785 H         1 UNK         0.0600 
    200 H200       -2.3933  -23.8443  -46.5054 H         1 UNK         0.3000 
    201 H201       -2.8388  -26.8098  -46.4295 H         1 UNK         0.0600 
    202 H202       -2.6264  -24.9621  -48.8639 H         1 UNK         0.0600 
    203 H203       -2.8675  -26.7037  -48.8891 H         1 UNK         0.0600 
    204 H204       -1.3499  -26.0414  -48.3083 H         1 UNK         0.0600 
    205 H205       -4.3588  -24.1346  -45.5303 H         1 UNK         0.3000 
    206 H206       -6.4184  -23.3028  -45.4087 H         1 UNK         0.0600 
    207 H207       -6.7972  -25.5268  -44.3236 H         1 UNK         0.0600 
    208 H208       -8.2563  -24.9191  -45.0868 H         1 UNK         0.0600 
    209 H209       -7.3279  -26.1930  -45.8675 H         1 UNK         0.0600 
    210 H210       -5.2219  -23.1213  -47.9773 H         1 UNK         0.3000 
    211 H211       -5.5607  -22.3107  -49.9682 H         1 UNK         0.0600 
    212 H212       -7.6668  -21.3468  -50.7113 H         1 UNK         0.0600 
    213 H213       -7.4870  -20.9951  -49.0012 H         1 UNK         0.0600 
    214 H214       -8.5859  -22.2659  -49.5330 H         1 UNK         0.0600 
    215 H215       -5.9978  -25.4008  -49.2889 H         1 UNK         0.3000 
    216 H216       -7.2449  -26.4002  -51.6903 H         1 UNK         0.0600 
    217 H217       -5.2383  -27.7826  -49.8352 H         1 UNK         0.0600 
    218 H218       -6.3168  -28.5600  -50.9838 H         1 UNK         0.0600 
    219 H219       -6.9831  -27.7404  -49.5789 H         1 UNK         0.0600 
    220 H220       -4.0107  -25.2934  -50.8885 H         1 UNK         0.3000 
    221 H221       -2.8268  -26.2363  -53.4364 H         1 UNK         0.0600 
    222 H222       -1.5708  -26.5672  -51.3023 H         1 UNK         0.0600 
    223 H223       -1.5502  -24.8253  -51.0363 H         1 UNK         0.0600 
    224 H224       -0.7029  -25.5197  -52.4095 H         1 UNK         0.0600 
    225 H225       -4.8222  -23.7543  -52.8353 H         1 UNK         0.3000 
    226 H226       -3.3964  -21.4113  -53.5232 H         1 UNK         0.0600 
    227 H227       -6.3808  -22.0286  -53.7826 H         1 UNK         0.0600 
    228 H228       -5.5720  -21.3617  -52.3616 H         1 UNK         0.0600 
    229 H229       -5.6626  -20.4244  -53.8410 H         1 UNK         0.0600 
    230 H230       -4.3131  -23.9906  -55.5986 H         1 UNK         0.3000 
    231 H231       -4.4823  -22.6279  -58.1088 H         1 UNK         0.0600 
    232 H232       -3.5549  -25.4700  -57.4190 H         1 UNK         0.0600 
    233 H233       -3.9690  -24.8960  -59.0300 H         1 UNK         0.0600 
    234 H234       -5.2094  -24.9821  -57.7898 H         1 UNK         0.0600 
    235 H235       -1.7533  -23.3466  -56.0009 H         1 UNK         0.3000 
    236 H236        0.2750  -22.8516  -58.0886 H         1 UNK         0.0600 
    237 H237        0.5961  -24.6582  -56.3789 H         1 UNK         0.0600 
    238 H238        1.8493  -23.4321  -56.2817 H         1 UNK         0.0600 
    239 H239        0.5510  -23.4490  -55.0963 H         1 UNK         0.0600 
    240 H240       -1.7125  -20.8689  -56.2439 H         1 UNK         0.3000 
    241 H241        0.1573  -18.9404  -55.2527 H         1 UNK         0.0600 
    242 H242        0.7816  -16.8614  -56.1268 H         1 UNK         0.3800 
    243 H243        0.5100  -16.4695  -57.8013 H         1 UNK         0.3800 
    244 H244       -2.3373  -19.4185  -54.5322 H         1 UNK         0.0800 
    245 H245       -2.7831  -18.3393  -55.8131 H         1 UNK         0.0800 
    246 H246       -0.5367  -18.6480  -52.4588 H         1 UNK         0.0800 
    247 H247       -2.2726  -18.7856  -52.2990 H         1 UNK         0.0800 
@<TRIPOS>BOND
     1    1    2 1    
     2    1  127 1    
     3    1  128 1    
     4    1  129 1    
     5    2    3 2    
     6    2    4 am   BACKBONE|DICT|INTERRES
     7    4    5 1    
     8    4  130 1    
     9    5    6 1    
    10    5   65 1    
    11    5  131 1    
    12    6    7 1    
    13    6  132 1    
    14    6  133 1    
    15    7    8 1    
    16    8    9 1    
    17    8  134 1    
    18    8  135 1    
    19    9   10 ar   
    20    9   14 ar   
    21   10   11 ar   
    22   10  136 1    
    23   11   12 ar   
    24   11  126 1    
    25   12   13 ar   
    26   12  137 1    
    27   13   14 ar   
    28   13   15 1    
    29   14  138 1    
    30   15   16 1    
    31   15  139 1    
    32   15  140 1    
    33   16   17 1    
    34   17   18 1    
    35   17  141 1    
    36   17  142 1    
    37   18   19 1    
    38   18   67 1    
    39   18  143 1    
    40   19   20 am   BACKBONE|DICT|INTERRES
    41   19  144 1    
    42   20   21 2    
    43   20   22 1    
    44   22   23 1    
    45   22   24 1    
    46   22  145 1    
    47   23  146 1    
    48   23  147 1    
    49   23  148 1    
    50   24   25 am   BACKBONE|DICT|INTERRES
    51   24  149 1    
    52   25   26 2    
    53   25   27 1    
    54   27   28 1    
    55   27   29 1    
    56   27  150 1    
    57   28  151 1    
    58   28  152 1    
    59   28  153 1    
    60   29   30 am   BACKBONE|DICT|INTERRES
    61   29  154 1    
    62   30   31 2    
    63   30   32 1    
    64   32   33 1    
    65   32   34 1    
    66   32  155 1    
    67   33  156 1    
    68   33  157 1    
    69   33  158 1    
    70   34   35 am   BACKBONE|DICT|INTERRES
    71   34  159 1    
    72   35   36 2    
    73   35   37 1    
    74   37   38 1    
    75   37   39 1    
    76   37  160 1    
    77   38  161 1    
    78   38  162 1    
    79   38  163 1    
    80   39   40 am   BACKBONE|DICT|INTERRES
    81   39  164 1    
    82   40   41 2    
    83   40   42 1    
    84   42   43 1    
    85   42   44 1    
    86   42  165 1    
    87   43  166 1    
    88   43  167 1    
    89   43  168 1    
    90   44   45 am   BACKBONE|DICT|INTERRES
    91   44  169 1    
    92   45   46 2    
    93   45   47 1    
    94   47   48 1    
    95   47   49 1    
    96   47  170 1    
    97   48  171 1    
    98   48  172 1    
    99   48  173 1    
   100   49   50 am   BACKBONE|DICT|INTERRES
   101   49  174 1    
   102   50   51 2    
   103   50   52 1    
   104   52   53 1    
   105   52   54 1    
   106   52  175 1    
   107   53  176 1    
   108   53  177 1    
   109   53  178 1    
   110   54   55 am   BACKBONE|DICT|INTERRES
   111   54  179 1    
   112   55   56 2    
   113   55   57 1    
   114   57   58 1    
   115   57   59 1    
   116   57  180 1    
   117   58  181 1    
   118   58  182 1    
   119   58  183 1    
   120   59   60 am   BACKBONE|DICT|INTERRES
   121   59  184 1    
   122   60   61 2    
   123   60   62 1    
   124   62   63 1    
   125   62   64 1    
   126   62  185 1    
   127   63  186 1    
   128   63  187 1    
   129   63  188 1    
   130   64   65 am   BACKBONE|DICT|INTERRES
   131   64  189 1    
   132   65   66 2    
   133   67   68 2    
   134   67   69 am   BACKBONE|DICT|INTERRES
   135   69   70 1    
   136   69  190 1    
   137   70   71 1    
   138   70   72 1    
   139   70  191 1    
   140   71  192 1    
   141   71  193 1    
   142   71  194 1    
   143   72   73 2    
   144   72   74 am   BACKBONE|DICT|INTERRES
   145   74   75 1    
   146   74  195 1    
   147   75   76 1    
   148   75   77 1    
   149   75  196 1    
   150   76  197 1    
   151   76  198 1    
   152   76  199 1    
   153   77   78 2    
   154   77   79 am   BACKBONE|DICT|INTERRES
   155   79   80 1    
   156   79  200 1    
   157   80   81 1    
   158   80   82 1    
   159   80  201 1    
   160   81  202 1    
   161   81  203 1    
   162   81  204 1    
   163   82   83 2    
   164   82   84 am   BACKBONE|DICT|INTERRES
   165   84   85 1    
   166   84  205 1    
   167   85   86 1    
   168   85   87 1    
   169   85  206 1    
   170   86  207 1    
   171   86  208 1    
   172   86  209 1    
   173   87   88 2    
   174   87   89 am   BACKBONE|DICT|INTERRES
   175   89   90 1    
   176   89  210 1    
   177   90   91 1    
   178   90   92 1    
   179   90  211 1    
   180   91  212 1    
   181   91  213 1    
   182   91  214 1    
   183   92   93 2    
   184   92   94 am   BACKBONE|DICT|INTERRES
   185   94   95 1    
   186   94  215 1    
   187   95   96 1    
   188   95   97 1    
   189   95  216 1    
   190   96  217 1    
   191   96  218 1    
   192   96  219 1    
   193   97   98 2    
   194   97   99 am   BACKBONE|DICT|INTERRES
   195   99  100 1    
   196   99  220 1    
   197  100  101 1    
   198  100  102 1    
   199  100  221 1    
   200  101  222 1    
   201  101  223 1    
   202  101  224 1    
   203  102  103 2    
   204  102  104 am   BACKBONE|DICT|INTERRES
   205  104  105 1    
   206  104  225 1    
   207  105  106 1    
   208  105  107 1    
   209  105  226 1    
   210  106  227 1    
   211  106  228 1    
   212  106  229 1    
   213  107  108 2    
   214  107  109 am   BACKBONE|DICT|INTERRES
   215  109  110 1    
   216  109  230 1    
   217  110  111 1    
   218  110  112 1    
   219  110  231 1    
   220  111  232 1    
   221  111  233 1    
   222  111  234 1    
   223  112  113 2    
   224  112  114 am   BACKBONE|DICT|INTERRES
   225  114  115 1    
   226  114  235 1    
   227  115  116 1    
   228  115  117 1    
   229  115  236 1    
   230  116  237 1    
   231  116  238 1    
   232  116  239 1    
   233  117  118 2    
   234  117  119 am   BACKBONE|DICT|INTERRES
   235  119  120 1    
   236  119  240 1    
   237  120  121 1    
   238  120  124 1    
   239  120  241 1    
   240  121  122 am   BACKBONE|DICT|INTERRES
   241  121  123 2    
   242  122  242 1    
   243  122  243 1    
   244  124  125 1    
   245  124  244 1    
   246  124  245 1    
   247  125  126 1    
   248  126  246 1    
   249  126  247 1    
@<TRIPOS>SUBSTRUCTURE
     1 UNK         1 GROUP             0       ****    0 ROOT    
