@<TRIPOS>MOLECULE
3R540
247   249    1
SMALL
USER_CHARGES


@<TRIPOS>ATOM
      1 CA          3.9600  -16.3348  -43.7408 C.3       0 UNK        -0.1800 
      2 C           2.8131  -15.6666  -44.4850 C.2       0 UNK         0.5000 
      3 O           1.7886  -15.3548  -43.8781 O.2       0 UNK        -0.5000 
      4 N           2.9945  -15.4157  -45.7883 N.am      1 UNK        -0.5000 
      5 CA          2.0622  -14.6960  -46.6655 C.3       1 UNK         0.1400 
      6 C6          2.2905  -15.0415  -48.1594 C.3       23 UNK        -0.0398 
      7 S7          1.9934  -16.7990  -48.5449 S.3       23 UNK        -0.2404 
      8 C8          2.1854  -16.7452  -50.3530 C.3       23 UNK        -0.0205 
      9 C9          1.8743  -18.0820  -51.0107 C.ar      23 UNK        -0.0193 
     10 C10         0.5939  -18.3376  -51.5111 C.ar      23 UNK        -0.1150 
     11 C11         0.3112  -19.5356  -52.1759 C.ar      23 UNK        -0.0193 
     12 C12         1.3266  -20.4876  -52.3199 C.ar      23 UNK        -0.1150 
     13 C13         2.6173  -20.2396  -51.8427 C.ar      23 UNK        -0.0193 
     14 C14         2.8805  -19.0385  -51.1763 C.ar      23 UNK        -0.1150 
     15 C15         3.7480  -21.2237  -52.1268 C.3       23 UNK        -0.0205 
     16 S16         3.4129  -22.9209  -51.5535 S.3       23 UNK        -0.2404 
     17 C17         3.5980  -22.7340  -49.7500 C.3       23 UNK        -0.0398 
     18 CA          2.5359  -23.5205  -48.9447 C.3       11 UNK         0.1400 
     19 N           2.9200  -23.6175  -47.5336 N.am      11 UNK        -0.5000 
     20 C           2.2841  -24.3406  -46.6009 C.2       10 UNK         0.5000 
     21 O           1.3078  -25.0541  -46.8292 O.2       10 UNK        -0.5000 
     22 CA          2.8050  -24.2025  -45.1581 C.3       10 UNK         0.1400 
     23 CB          3.9247  -25.2188  -44.8899 C.3       10 UNK        -0.1800 
     24 N           3.2854  -22.8535  -44.8400 N.am      10 UNK        -0.5000 
     25 C           2.5154  -21.7576  -44.8307 C.2       9 UNK         0.5000 
     26 O           1.3199  -21.7596  -45.1343 O.2       9 UNK        -0.5000 
     27 CA          3.2009  -20.4346  -44.4593 C.3       9 UNK         0.1400 
     28 CB          3.3728  -19.5478  -45.7036 C.3       9 UNK        -0.1800 
     29 N           2.3835  -19.7384  -43.4720 N.am      9 UNK        -0.5000 
     30 C           2.4983  -19.8954  -42.1442 C.2       8 UNK         0.5000 
     31 O           3.4149  -20.5190  -41.6078 O.2       8 UNK        -0.5000 
     32 CA          1.3888  -19.2812  -41.2627 C.3       8 UNK         0.1400 
     33 CB          1.7659  -17.8600  -40.8166 C.3       8 UNK        -0.1800 
     34 N           0.1016  -19.2350  -41.9527 N.am      8 UNK        -0.5000 
     35 C          -0.6065  -20.3111  -42.3192 C.2       7 UNK         0.5000 
     36 O          -0.3849  -21.4400  -41.8811 O.2       7 UNK        -0.5000 
     37 CA         -1.7237  -20.1079  -43.3701 C.3       7 UNK         0.1400 
     38 CB         -3.0665  -20.6698  -42.8759 C.3       7 UNK        -0.1800 
     39 N          -1.9298  -18.7265  -43.8299 N.am      7 UNK        -0.5000 
     40 C          -1.0485  -17.9872  -44.5208 C.2       6 UNK         0.5000 
     41 O           0.1067  -18.3391  -44.7498 O.2       6 UNK        -0.5000 
     42 CA         -1.5182  -16.6004  -44.9620 C.3       6 UNK         0.1400 
     43 CB         -2.7317  -16.6710  -45.9044 C.3       6 UNK        -0.1800 
     44 N          -1.8287  -15.7940  -43.7851 N.am      6 UNK        -0.5000 
     45 C          -1.5694  -14.4882  -43.6829 C.2       5 UNK         0.5000 
     46 O          -1.0852  -13.8065  -44.5931 O.2       5 UNK        -0.5000 
     47 CA         -1.8962  -13.8352  -42.3310 C.3       5 UNK         0.1400 
     48 CB         -0.8233  -14.1688  -41.2804 C.3       5 UNK        -0.1800 
     49 N          -1.9484  -12.3953  -42.5369 N.am      5 UNK        -0.5000 
     50 C          -2.7852  -11.5256  -41.9604 C.2       4 UNK         0.5000 
     51 O          -3.5638  -11.8222  -41.0536 O.2       4 UNK        -0.5000 
     52 CA         -2.7555  -10.0782  -42.5022 C.3       4 UNK         0.1400 
     53 CB         -1.9923   -9.1585  -41.5369 C.3       4 UNK        -0.1800 
     54 N          -2.1308   -9.9921  -43.8250 N.am      4 UNK        -0.5000 
     55 C          -2.6710  -10.4383  -44.9665 C.2       3 UNK         0.5000 
     56 O          -3.8499  -10.7762  -45.0745 O.2       3 UNK        -0.5000 
     57 CA         -1.7155  -10.6270  -46.1606 C.3       3 UNK         0.1400 
     58 CB         -1.6106   -9.3543  -47.0225 C.3       3 UNK        -0.1800 
     59 N          -0.3998  -11.1524  -45.7603 N.am      3 UNK        -0.5000 
     60 C           0.6109  -10.5285  -45.1363 C.2       2 UNK         0.5000 
     61 O           0.5895   -9.3355  -44.8340 O.2       2 UNK        -0.5000 
     62 CA          1.8146  -11.3864  -44.6983 C.3       2 UNK         0.1400 
     63 CB          1.9057  -11.4307  -43.1639 C.3       2 UNK        -0.1800 
     64 N           1.7644  -12.7632  -45.1907 N.am      2 UNK        -0.5000 
     65 C           2.1470  -13.1737  -46.4043 C.2       1 UNK         0.5000 
     66 O           2.5778  -12.4116  -47.2715 O.2       1 UNK        -0.5000 
     67 C           1.1263  -22.9146  -49.1070 C.2       11 UNK         0.5000 
     68 O           0.2991  -23.4628  -49.8358 O.2       11 UNK        -0.5000 
     69 N           0.8693  -21.8222  -48.3765 N.am      12 UNK        -0.5000 
     70 CA         -0.4255  -21.1555  -48.3322 C.3       12 UNK         0.1400 
     71 CB         -0.2719  -19.7857  -47.6735 C.3       12 UNK        -0.1800 
     72 C          -1.4837  -21.9877  -47.5980 C.2       12 UNK         0.5000 
     73 O          -2.6175  -22.0458  -48.0681 O.2       12 UNK        -0.5000 
     74 N          -1.1050  -22.6277  -46.4823 N.am      13 UNK        -0.5000 
     75 CA         -1.9712  -23.5081  -45.6938 C.3       13 UNK         0.1400 
     76 CB         -1.2296  -23.9785  -44.4350 C.3       13 UNK        -0.1800 
     77 C          -2.4845  -24.7140  -46.5010 C.2       13 UNK         0.5000 
     78 O          -3.6820  -25.0001  -46.4690 O.2       13 UNK        -0.5000 
     79 N          -1.5807  -25.3575  -47.2548 N.am      14 UNK        -0.5000 
     80 CA         -1.8883  -26.4490  -48.1831 C.3       14 UNK         0.1400 
     81 CB         -0.5751  -27.0480  -48.7082 C.3       14 UNK        -0.1800 
     82 C          -2.7871  -26.0112  -49.3565 C.2       14 UNK         0.5000 
     83 O          -3.5752  -26.8152  -49.8539 O.2       14 UNK        -0.5000 
     84 N          -2.6793  -24.7362  -49.7467 N.am      15 UNK        -0.5000 
     85 CA         -3.4809  -24.0778  -50.7746 C.3       15 UNK         0.1400 
     86 CB         -2.5699  -23.1203  -51.5576 C.3       15 UNK        -0.1800 
     87 C          -4.7085  -23.3531  -50.1822 C.2       15 UNK         0.5000 
     88 O          -5.1271  -22.3332  -50.7283 O.2       15 UNK        -0.5000 
     89 N          -5.2644  -23.8826  -49.0818 N.am      16 UNK        -0.5000 
     90 CA         -6.5012  -23.4535  -48.4176 C.3       16 UNK         0.1400 
     91 CB         -7.7203  -23.7537  -49.3153 C.3       16 UNK        -0.1800 
     92 C          -6.4668  -21.9936  -47.9149 C.2       16 UNK         0.5000 
     93 O          -7.4219  -21.2436  -48.1231 O.2       16 UNK        -0.5000 
     94 N          -5.3585  -21.6318  -47.2539 N.am      17 UNK        -0.5000 
     95 CA         -5.0331  -20.3059  -46.7152 C.3       17 UNK         0.1400 
     96 CB         -6.0326  -19.8731  -45.6221 C.3       17 UNK        -0.1800 
     97 C          -4.8477  -19.2630  -47.8353 C.2       17 UNK         0.5000 
     98 O          -5.4391  -18.1833  -47.7932 O.2       17 UNK        -0.5000 
     99 N          -4.0072  -19.6310  -48.8111 N.am      18 UNK        -0.5000 
    100 CA        -3.6270  -18.8705  -50.0031 C.3       18 UNK         0.1400 
    101 CB        -2.7956  -17.6211  -49.6399 C.3       18 UNK        -0.1800 
    102 C         -4.8177  -18.5492  -50.9273 C.2       18 UNK         0.5000 
    103 O         -4.9931  -17.4023  -51.3457 O.2       18 UNK        -0.5000 
    104 N         -5.6039  -19.5811  -51.2526 N.am      19 UNK        -0.5000 
    105 CA        -6.5974  -19.5475  -52.3226 C.3       19 UNK         0.1400 
    106 CB        -7.6239  -20.6681  -52.0775 C.3       19 UNK        -0.1800 
    107 C         -5.9166  -19.7011  -53.6997 C.2       19 UNK         0.5000 
    108 O         -4.6964  -19.8649  -53.7862 O.2       19 UNK        -0.5000 
    109 N         -6.7284  -19.6949  -54.7653 N.am      20 UNK        -0.5000 
    110 CA        -6.3025  -19.8597  -56.1619 C.3       20 UNK         0.1400 
    111 CB        -7.5096  -19.5963  -57.0761 C.3       20 UNK        -0.1800 
    112 C         -5.6613  -21.2275  -56.4923 C.2       20 UNK         0.5000 
    113 O         -5.1047  -21.3848  -57.5797 O.2       20 UNK        -0.5000 
    114 N         -5.7330  -22.1825  -55.5542 N.am      21 UNK        -0.5000 
    115 CA        -5.1753  -23.5339  -55.6229 C.3       21 UNK         0.1400 
    116 CB        -5.4960  -24.2600  -54.3066 C.3       21 UNK        -0.1800 
    117 C         -3.6627  -23.6027  -55.9208 C.2       21 UNK         0.5000 
    118 O         -3.2215  -24.5906  -56.5098 O.2       21 UNK        -0.5000 
    119 N         -2.9012  -22.5667  -55.5384 N.am      22 UNK        -0.5000 
    120 CA        -1.4807  -22.4189  -55.9020 C.3       22 UNK         0.1400 
    121 C         -1.2235  -21.8709  -57.3393 C.2       22 UNK         0.5000 
    122 N         -2.2356  -21.4938  -58.1123 N.am      22 UNK        -0.7600 
    123 O         -0.0767  -21.8075  -57.7745 O.2       22 UNK        -0.5000 
    124 C124       -0.6633  -21.6674  -54.8200 C.3       23 UNK        -0.0398 
    125 S125       -1.1503  -19.9264  -54.5449 S.3       23 UNK        -0.2404 
    126 C126       -1.0899  -19.7890  -52.7270 C.3       23 UNK        -0.0205 
    127 H127        4.2791  -15.7083  -42.9081 H         1 UNK         0.0600 
    128 H128        4.8208  -16.5038  -44.3879 H         1 UNK         0.0600 
    129 H129        3.6422  -17.2948  -43.3397 H         1 UNK         0.0600 
    130 H130        3.8626  -15.6923  -46.2230 H         1 UNK         0.3000 
    131 H131        1.0450  -14.9984  -46.4138 H         1 UNK         0.0600 
    132 H132        1.6216  -14.4491  -48.7866 H         1 UNK         0.0800 
    133 H133        3.3067  -14.7846  -48.4638 H         1 UNK         0.0800 
    134 H134        1.5319  -15.9734  -50.7627 H         1 UNK         0.0800 
    135 H135        3.2048  -16.4418  -50.5966 H         1 UNK         0.0800 
    136 H136       -0.1791  -17.5915  -51.3949 H         1 UNK         0.1150 
    137 H137        1.1290  -21.4194  -52.8253 H         1 UNK         0.1150 
    138 H138        3.8774  -18.8298  -50.8142 H         1 UNK         0.1150 
    139 H139        3.9111  -21.2516  -53.2049 H         1 UNK         0.0800 
    140 H140        4.6861  -20.8795  -51.6884 H         1 UNK         0.0800 
    141 H141        3.5867  -21.6770  -49.4775 H         1 UNK         0.0800 
    142 H142        4.5956  -23.0965  -49.4980 H         1 UNK         0.0800 
    143 H143        2.4992  -24.5411  -49.3323 H         1 UNK         0.0600 
    144 H144        3.7132  -23.0664  -47.2416 H         1 UNK         0.3000 
    145 H145        1.9762  -24.4265  -44.4843 H         1 UNK         0.0600 
    146 H146        4.2408  -25.1915  -43.8469 H         1 UNK         0.0600 
    147 H147        3.5873  -26.2350  -45.0988 H         1 UNK         0.0600 
    148 H148        4.8003  -25.0292  -45.5120 H         1 UNK         0.0600 
    149 H149        4.2578  -22.7731  -44.5791 H         1 UNK         0.3000 
    150 H150        4.1915  -20.6417  -44.0491 H         1 UNK         0.0600 
    151 H151        3.8993  -20.0788  -46.4975 H         1 UNK         0.0600 
    152 H152        3.9553  -18.6572  -45.4734 H         1 UNK         0.0600 
    153 H153        2.4150  -19.2188  -46.1065 H         1 UNK         0.0600 
    154 H154        1.5700  -19.2547  -43.8435 H         1 UNK         0.3000 
    155 H155        1.2833  -19.9062  -40.3736 H         1 UNK         0.0600 
    156 H156        1.8193  -17.1726  -41.6615 H         1 UNK         0.0600 
    157 H157        1.0363  -17.4630  -40.1107 H         1 UNK         0.0600 
    158 H158        2.7373  -17.8492  -40.3206 H         1 UNK         0.0600 
    159 H159       -0.1381  -18.3564  -42.3866 H         1 UNK         0.3000 
    160 H160       -1.4207  -20.6900  -44.2429 H         1 UNK         0.0600 
    161 H161       -3.4363  -20.1197  -42.0100 H         1 UNK         0.0600 
    162 H162       -2.9737  -21.7171  -42.5852 H         1 UNK         0.0600 
    163 H163       -3.8262  -20.6224  -43.6555 H         1 UNK         0.0600 
    164 H164       -2.8501  -18.3476  -43.6634 H         1 UNK         0.3000 
    165 H165       -0.6876  -16.1546  -45.5107 H         1 UNK         0.0600 
    166 H166       -2.9558  -15.6912  -46.3263 H         1 UNK         0.0600 
    167 H167       -2.5376  -17.3457  -46.7373 H         1 UNK         0.0600 
    168 H168       -3.6285  -17.0258  -45.3959 H         1 UNK         0.0600 
    169 H169       -2.1899  -16.2864  -42.9811 H         1 UNK         0.3000 
    170 H170       -2.8705  -14.1974  -41.9962 H         1 UNK         0.0600 
    171 H171        0.1727  -13.8756  -41.6143 H         1 UNK         0.0600 
    172 H172       -1.0236  -13.6617  -40.3365 H         1 UNK         0.0600 
    173 H173       -0.7946  -15.2393  -41.0744 H         1 UNK         0.0600 
    174 H174       -1.4037  -12.0836  -43.3294 H         1 UNK         0.3000 
    175 H175       -3.7867   -9.7269  -42.5768 H         1 UNK         0.0600 
    176 H176       -2.0070   -8.1248  -41.8827 H         1 UNK         0.0600 
    177 H177       -0.9501   -9.4628  -41.4313 H         1 UNK         0.0600 
    178 H178       -2.4422   -9.1747  -40.5433 H         1 UNK         0.0600 
    179 H179       -1.1639   -9.6876  -43.8577 H         1 UNK         0.3000 
    180 H180       -2.1542  -11.4053  -46.7871 H         1 UNK         0.0600 
    181 H181       -1.2618   -8.4951  -46.4495 H         1 UNK         0.0600 
    182 H182       -2.5842   -9.0895  -47.4364 H         1 UNK         0.0600 
    183 H183       -0.9294   -9.5002  -47.8607 H         1 UNK         0.0600 
    184 H184       -0.3115  -12.1582  -45.8474 H         1 UNK         0.3000 
    185 H185        2.7166  -10.9051  -45.0815 H         1 UNK         0.0600 
    186 H186        2.0140  -10.4290  -42.7461 H         1 UNK         0.0600 
    187 H187        1.0145  -11.8759  -42.7213 H         1 UNK         0.0600 
    188 H188        2.7679  -12.0120  -42.8363 H         1 UNK         0.0600 
    189 H189        1.4389  -13.4735  -44.5406 H         1 UNK         0.3000 
    190 H190        1.5812  -21.4662  -47.7571 H         1 UNK         0.3000 
    191 H191       -0.7728  -21.0011  -49.3560 H         1 UNK         0.0600 
    192 H192        0.2771  -19.1040  -48.3204 H         1 UNK         0.0600 
    193 H193       -1.2396  -19.3343  -47.4571 H         1 UNK         0.0600 
    194 H194        0.2663  -19.8665  -46.7323 H         1 UNK         0.0600 
    195 H195       -0.1639  -22.4758  -46.1288 H         1 UNK         0.3000 
    196 H196       -2.8360  -22.9204  -45.3789 H         1 UNK         0.0600 
    197 H197       -1.8964  -24.5361  -43.7765 H         1 UNK         0.0600 
    198 H198       -0.8388  -23.1369  -43.8660 H         1 UNK         0.0600 
    199 H199       -0.3920  -24.6307  -44.6800 H         1 UNK         0.0600 
    200 H200       -0.6045  -25.0794  -47.1941 H         1 UNK         0.3000 
    201 H201       -2.4218  -27.2228  -47.6276 H         1 UNK         0.0600 
    202 H202        0.0354  -27.4350  -47.8922 H         1 UNK         0.0600 
    203 H203        0.0171  -26.3056  -49.2452 H         1 UNK         0.0600 
    204 H204       -0.7668  -27.8755  -49.3925 H         1 UNK         0.0600 
    205 H205       -2.0077  -24.1477  -49.2713 H         1 UNK         0.3000 
    206 H206       -3.8611  -24.8230  -51.4757 H         1 UNK         0.0600 
    207 H207       -1.7245  -23.6507  -51.9959 H         1 UNK         0.0600 
    208 H208       -3.1043  -22.6308  -52.3728 H         1 UNK         0.0600 
    209 H209       -2.1739  -22.3452  -50.9024 H         1 UNK         0.0600 
    210 H210       -4.8041  -24.6806  -48.6654 H         1 UNK         0.3000 
    211 H211       -6.5940  -24.0740  -47.5251 H         1 UNK         0.0600 
    212 H212       -7.7162  -23.1461  -50.2203 H         1 UNK         0.0600 
    213 H213       -8.6539  -23.5507  -48.7894 H         1 UNK         0.0600 
    214 H214       -7.7401  -24.8013  -49.6157 H         1 UNK         0.0600 
    215 H215       -4.5948  -22.2971  -47.2406 H         1 UNK         0.3000 
    216 H216       -4.0589  -20.4066  -46.2343 H         1 UNK         0.0600 
    217 H217       -5.6982  -18.9575  -45.1331 H         1 UNK         0.0600 
    218 H218       -6.1292  -20.6370  -44.8507 H         1 UNK         0.0600 
    219 H219       -7.0255  -19.6791  -46.0281 H         1 UNK         0.0600 
    220 H220       -3.6077  -20.5629  -48.7390 H         1 UNK         0.3000 
    221 H221       -2.9811  -19.5382  -50.5715 H         1 UNK         0.0600 
    222 H222       -3.3661  -16.9154  -49.0359 H         1 UNK         0.0600 
    223 H223       -1.8923  -17.8833  -49.0939 H         1 UNK         0.0600 
    224 H224       -2.4756  -17.0917  -50.5378 H         1 UNK         0.0600 
    225 H225       -5.3728  -20.5099  -50.9053 H         1 UNK         0.3000 
    226 H226       -7.1175  -18.5878  -52.3000 H         1 UNK         0.0600 
    227 H227       -8.0094  -20.6335  -51.0579 H         1 UNK         0.0600 
    228 H228       -8.4796  -20.5766  -52.7468 H         1 UNK         0.0600 
    229 H229       -7.1901  -21.6560  -52.2350 H         1 UNK         0.0600 
    230 H230       -7.7196  -19.5688  -54.6188 H         1 UNK         0.3000 
    231 H231       -5.5462  -19.0996  -56.3683 H         1 UNK         0.0600 
    232 H232       -8.3093  -20.3173  -56.9023 H         1 UNK         0.0600 
    233 H233       -7.2288  -19.6652  -58.1280 H         1 UNK         0.0600 
    234 H234       -7.9158  -18.5973  -56.9169 H         1 UNK         0.0600 
    235 H235       -6.1981  -21.9415  -54.6926 H         1 UNK         0.3000 
    236 H236       -5.6865  -24.0539  -56.4352 H         1 UNK         0.0600 
    237 H237       -6.5721  -24.3473  -54.1559 H         1 UNK         0.0600 
    238 H238       -5.0856  -25.2707  -54.3026 H         1 UNK         0.0600 
    239 H239       -5.0809  -23.7317  -53.4481 H         1 UNK         0.0600 
    240 H240       -3.3323  -21.7775  -55.0755 H         1 UNK         0.3000 
    241 H241       -1.0549  -23.4239  -55.9261 H         1 UNK         0.0600 
    242 H242       -3.1986  -21.5425  -57.7935 H         1 UNK         0.3800 
    243 H243       -2.0419  -21.1519  -59.0399 H         1 UNK         0.3800 
    244 H244       -0.7513  -22.2170  -53.8829 H         1 UNK         0.0800 
    245 H245        0.3982  -21.6857  -55.0725 H         1 UNK         0.0800 
    246 H246       -1.7516  -18.9676  -52.4514 H         1 UNK         0.0800 
    247 H247       -1.5094  -20.6811  -52.2706 H         1 UNK         0.0800 
@<TRIPOS>BOND
     1    1    2 1    
     2    1  127 1    
     3    1  128 1    
     4    1  129 1    
     5    2    3 2    
     6    2    4 am   BACKBONE|DICT|INTERRES
     7    4    5 1    
     8    4  130 1    
     9    5    6 1    
    10    5   65 1    
    11    5  131 1    
    12    6    7 1    
    13    6  132 1    
    14    6  133 1    
    15    7    8 1    
    16    8    9 1    
    17    8  134 1    
    18    8  135 1    
    19    9   10 ar   
    20    9   14 ar   
    21   10   11 ar   
    22   10  136 1    
    23   11   12 ar   
    24   11  126 1    
    25   12   13 ar   
    26   12  137 1    
    27   13   14 ar   
    28   13   15 1    
    29   14  138 1    
    30   15   16 1    
    31   15  139 1    
    32   15  140 1    
    33   16   17 1    
    34   17   18 1    
    35   17  141 1    
    36   17  142 1    
    37   18   19 1    
    38   18   67 1    
    39   18  143 1    
    40   19   20 am   BACKBONE|DICT|INTERRES
    41   19  144 1    
    42   20   21 2    
    43   20   22 1    
    44   22   23 1    
    45   22   24 1    
    46   22  145 1    
    47   23  146 1    
    48   23  147 1    
    49   23  148 1    
    50   24   25 am   BACKBONE|DICT|INTERRES
    51   24  149 1    
    52   25   26 2    
    53   25   27 1    
    54   27   28 1    
    55   27   29 1    
    56   27  150 1    
    57   28  151 1    
    58   28  152 1    
    59   28  153 1    
    60   29   30 am   BACKBONE|DICT|INTERRES
    61   29  154 1    
    62   30   31 2    
    63   30   32 1    
    64   32   33 1    
    65   32   34 1    
    66   32  155 1    
    67   33  156 1    
    68   33  157 1    
    69   33  158 1    
    70   34   35 am   BACKBONE|DICT|INTERRES
    71   34  159 1    
    72   35   36 2    
    73   35   37 1    
    74   37   38 1    
    75   37   39 1    
    76   37  160 1    
    77   38  161 1    
    78   38  162 1    
    79   38  163 1    
    80   39   40 am   BACKBONE|DICT|INTERRES
    81   39  164 1    
    82   40   41 2    
    83   40   42 1    
    84   42   43 1    
    85   42   44 1    
    86   42  165 1    
    87   43  166 1    
    88   43  167 1    
    89   43  168 1    
    90   44   45 am   BACKBONE|DICT|INTERRES
    91   44  169 1    
    92   45   46 2    
    93   45   47 1    
    94   47   48 1    
    95   47   49 1    
    96   47  170 1    
    97   48  171 1    
    98   48  172 1    
    99   48  173 1    
   100   49   50 am   BACKBONE|DICT|INTERRES
   101   49  174 1    
   102   50   51 2    
   103   50   52 1    
   104   52   53 1    
   105   52   54 1    
   106   52  175 1    
   107   53  176 1    
   108   53  177 1    
   109   53  178 1    
   110   54   55 am   BACKBONE|DICT|INTERRES
   111   54  179 1    
   112   55   56 2    
   113   55   57 1    
   114   57   58 1    
   115   57   59 1    
   116   57  180 1    
   117   58  181 1    
   118   58  182 1    
   119   58  183 1    
   120   59   60 am   BACKBONE|DICT|INTERRES
   121   59  184 1    
   122   60   61 2    
   123   60   62 1    
   124   62   63 1    
   125   62   64 1    
   126   62  185 1    
   127   63  186 1    
   128   63  187 1    
   129   63  188 1    
   130   64   65 am   BACKBONE|DICT|INTERRES
   131   64  189 1    
   132   65   66 2    
   133   67   68 2    
   134   67   69 am   BACKBONE|DICT|INTERRES
   135   69   70 1    
   136   69  190 1    
   137   70   71 1    
   138   70   72 1    
   139   70  191 1    
   140   71  192 1    
   141   71  193 1    
   142   71  194 1    
   143   72   73 2    
   144   72   74 am   BACKBONE|DICT|INTERRES
   145   74   75 1    
   146   74  195 1    
   147   75   76 1    
   148   75   77 1    
   149   75  196 1    
   150   76  197 1    
   151   76  198 1    
   152   76  199 1    
   153   77   78 2    
   154   77   79 am   BACKBONE|DICT|INTERRES
   155   79   80 1    
   156   79  200 1    
   157   80   81 1    
   158   80   82 1    
   159   80  201 1    
   160   81  202 1    
   161   81  203 1    
   162   81  204 1    
   163   82   83 2    
   164   82   84 am   BACKBONE|DICT|INTERRES
   165   84   85 1    
   166   84  205 1    
   167   85   86 1    
   168   85   87 1    
   169   85  206 1    
   170   86  207 1    
   171   86  208 1    
   172   86  209 1    
   173   87   88 2    
   174   87   89 am   BACKBONE|DICT|INTERRES
   175   89   90 1    
   176   89  210 1    
   177   90   91 1    
   178   90   92 1    
   179   90  211 1    
   180   91  212 1    
   181   91  213 1    
   182   91  214 1    
   183   92   93 2    
   184   92   94 am   BACKBONE|DICT|INTERRES
   185   94   95 1    
   186   94  215 1    
   187   95   96 1    
   188   95   97 1    
   189   95  216 1    
   190   96  217 1    
   191   96  218 1    
   192   96  219 1    
   193   97   98 2    
   194   97   99 am   BACKBONE|DICT|INTERRES
   195   99  100 1    
   196   99  220 1    
   197  100  101 1    
   198  100  102 1    
   199  100  221 1    
   200  101  222 1    
   201  101  223 1    
   202  101  224 1    
   203  102  103 2    
   204  102  104 am   BACKBONE|DICT|INTERRES
   205  104  105 1    
   206  104  225 1    
   207  105  106 1    
   208  105  107 1    
   209  105  226 1    
   210  106  227 1    
   211  106  228 1    
   212  106  229 1    
   213  107  108 2    
   214  107  109 am   BACKBONE|DICT|INTERRES
   215  109  110 1    
   216  109  230 1    
   217  110  111 1    
   218  110  112 1    
   219  110  231 1    
   220  111  232 1    
   221  111  233 1    
   222  111  234 1    
   223  112  113 2    
   224  112  114 am   BACKBONE|DICT|INTERRES
   225  114  115 1    
   226  114  235 1    
   227  115  116 1    
   228  115  117 1    
   229  115  236 1    
   230  116  237 1    
   231  116  238 1    
   232  116  239 1    
   233  117  118 2    
   234  117  119 am   BACKBONE|DICT|INTERRES
   235  119  120 1    
   236  119  240 1    
   237  120  121 1    
   238  120  124 1    
   239  120  241 1    
   240  121  122 am   BACKBONE|DICT|INTERRES
   241  121  123 2    
   242  122  242 1    
   243  122  243 1    
   244  124  125 1    
   245  124  244 1    
   246  124  245 1    
   247  125  126 1    
   248  126  246 1    
   249  126  247 1    
@<TRIPOS>SUBSTRUCTURE
     1 UNK         1 GROUP             0       ****    0 ROOT    
