@<TRIPOS>MOLECULE
3R540
247   249    1
SMALL
USER_CHARGES


@<TRIPOS>ATOM
      1 CA          0.8560   -9.0465  -48.0668 C.3       0 UNK        -0.1800 
      2 C          -0.1107  -10.2197  -48.2189 C.2       0 UNK         0.5000 
      3 O          -1.2700  -10.0993  -47.8273 O.2       0 UNK        -0.5000 
      4 N           0.3004  -11.3603  -48.7899 N.am      1 UNK        -0.5000 
      5 CA          1.6571  -11.7003  -49.2344 C.3       1 UNK         0.1400 
      6 C6          1.6245  -12.8832  -50.2412 C.3       23 UNK        -0.0398 
      7 S7          1.1929  -14.4958  -49.4982 S.3       23 UNK        -0.2404 
      8 C8         -0.3769  -14.9242  -50.3114 C.3       23 UNK        -0.0205 
      9 C9         -0.9497  -16.2066  -49.7232 C.ar      23 UNK        -0.0193 
     10 C10        -2.1370  -16.1848  -48.9827 C.ar      23 UNK        -0.1150 
     11 C11        -2.6330  -17.3576  -48.4048 C.ar      23 UNK        -0.0193 
     12 C12        -1.9452  -18.5587  -48.5887 C.ar      23 UNK        -0.1150 
     13 C13        -0.7586  -18.5941  -49.3242 C.ar      23 UNK        -0.0193 
     14 C14        -0.2717  -17.4174  -49.8977 C.ar      23 UNK        -0.1150 
     15 C15        -0.0089  -19.9036  -49.5069 C.3       23 UNK        -0.0205 
     16 S16         1.3499  -20.1177  -48.3112 S.3       23 UNK        -0.2404 
     17 C17         0.4959  -20.2342  -46.7006 C.3       23 UNK        -0.0398 
     18 CA          0.1544  -21.6907  -46.3016 C.3       11 UNK         0.1400 
     19 N           0.0385  -21.8487  -44.8510 N.am      11 UNK        -0.5000 
     20 C          -0.1100  -23.0228  -44.2204 C.2       10 UNK         0.5000 
     21 O          -0.1257  -24.1135  -44.7900 O.2       10 UNK        -0.5000 
     22 CA         -0.3324  -22.9615  -42.7016 C.3       10 UNK         0.1400 
     23 CB          0.9977  -22.7586  -41.9617 C.3       10 UNK        -0.1800 
     24 N          -1.2726  -21.9018  -42.3381 N.am      10 UNK        -0.5000 
     25 C          -2.5817  -21.9291  -42.6261 C.2       9 UNK         0.5000 
     26 O          -3.1385  -22.8655  -43.1994 O.2       9 UNK        -0.5000 
     27 CA         -3.3963  -20.6807  -42.2434 C.3       9 UNK         0.1400 
     28 CB         -3.7937  -20.7246  -40.7605 C.3       9 UNK        -0.1800 
     29 N          -2.6874  -19.4299  -42.5206 N.am      9 UNK        -0.5000 
     30 C          -2.3493  -19.0115  -43.7480 C.2       8 UNK         0.5000 
     31 O          -2.5772  -19.6439  -44.7767 O.2       8 UNK        -0.5000 
     32 CA         -1.5965  -17.6759  -43.8447 C.3       8 UNK         0.1400 
     33 CB         -2.5936  -16.5093  -43.7449 C.3       8 UNK        -0.1800 
     34 N          -0.5360  -17.5090  -42.8432 N.am      8 UNK        -0.5000 
     35 C           0.4761  -18.3645  -42.6403 C.2       7 UNK         0.5000 
     36 O           0.6359  -19.3989  -43.2935 O.2       7 UNK        -0.5000 
     37 CA          1.4584  -18.0078  -41.5134 C.3       7 UNK         0.1400 
     38 CB          2.1538  -19.2653  -40.9466 C.3       7 UNK        -0.1800 
     39 N           2.4439  -17.0417  -41.9974 N.am      7 UNK        -0.5000 
     40 C           3.2920  -16.3611  -41.2125 C.2       6 UNK         0.5000 
     41 O           3.2961  -16.4386  -39.9828 O.2       6 UNK        -0.5000 
     42 CA          4.3055  -15.4304  -41.9046 C.3       6 UNK         0.1400 
     43 CB          5.2672  -16.2111  -42.8156 C.3       6 UNK        -0.1800 
     44 N           3.6463  -14.3710  -42.6627 N.am      6 UNK        -0.5000 
     45 C           2.9979  -13.3325  -42.1154 C.2       5 UNK         0.5000 
     46 O           2.9640  -13.1048  -40.9055 O.2       5 UNK        -0.5000 
     47 CA          2.2376  -12.4001  -43.0791 C.3       5 UNK         0.1400 
     48 CB          3.1494  -11.2748  -43.5912 C.3       5 UNK        -0.1800 
     49 N           1.6635  -13.1132  -44.2191 N.am      5 UNK        -0.5000 
     50 C           0.7160  -14.0567  -44.1295 C.2       4 UNK         0.5000 
     51 O           0.1620  -14.3816  -43.0788 O.2       4 UNK        -0.5000 
     52 CA          0.3668  -14.7920  -45.4316 C.3       4 UNK         0.1400 
     53 CB         -0.6360  -13.9839  -46.2664 C.3       4 UNK        -0.1800 
     54 N           1.5575  -15.1012  -46.2205 N.am      4 UNK        -0.5000 
     55 C           2.4821  -16.0067  -45.8697 C.2       3 UNK         0.5000 
     56 O           2.3995  -16.7105  -44.8634 O.2       3 UNK        -0.5000 
     57 CA          3.7334  -16.1095  -46.7613 C.3       3 UNK         0.1400 
     58 CB          3.5206  -17.1246  -47.8919 C.3       3 UNK        -0.1800 
     59 N           4.1273  -14.8162  -47.3233 N.am      3 UNK        -0.5000 
     60 C           4.6670  -13.8233  -46.6015 C.2       2 UNK         0.5000 
     61 O           4.9186  -13.9165  -45.4004 O.2       2 UNK        -0.5000 
     62 CA          4.9273  -12.4894  -47.3308 C.3       2 UNK         0.1400 
     63 CB          6.3071  -12.5037  -48.0050 C.3       2 UNK        -0.1800 
     64 N           3.9025  -12.1567  -48.3267 N.am      2 UNK        -0.5000 
     65 C           2.6077  -11.9653  -48.0392 C.2       1 UNK         0.5000 
     66 O           2.1617  -12.0325  -46.8909 O.2       1 UNK        -0.5000 
     67 C          -1.1044  -22.2071  -47.0282 C.2       11 UNK         0.5000 
     68 O          -0.9812  -22.9895  -47.9703 O.2       11 UNK        -0.5000 
     69 N          -2.2899  -21.7995  -46.5524 N.am      12 UNK        -0.5000 
     70 CA         -3.5906  -22.2142  -47.0773 C.3       12 UNK         0.1400 
     71 CB         -4.7076  -21.4433  -46.3599 C.3       12 UNK        -0.1800 
     72 C          -3.8298  -23.7287  -46.9660 C.2       12 UNK         0.5000 
     73 O          -4.3533  -24.3221  -47.9070 O.2       12 UNK        -0.5000 
     74 N          -3.4206  -24.3304  -45.8409 N.am      13 UNK        -0.5000 
     75 CA         -3.4864  -25.7739  -45.6171 C.3       13 UNK         0.1400 
     76 CB         -3.2076  -26.0762  -44.1369 C.3       13 UNK        -0.1800 
     77 C          -2.5244  -26.5632  -46.5250 C.2       13 UNK         0.5000 
     78 O          -2.8996  -27.6242  -47.0256 O.2       13 UNK        -0.5000 
     79 N          -1.3057  -26.0397  -46.7124 N.am      14 UNK        -0.5000 
     80 CA         -0.2551  -26.6609  -47.5146 C.3       14 UNK         0.1400 
     81 CB          1.1026  -26.0391  -47.1492 C.3       14 UNK        -0.1800 
     82 C          -0.5119  -26.5575  -49.0279 C.2       14 UNK         0.5000 
     83 O          -0.4618  -27.5744  -49.7214 O.2       14 UNK        -0.5000 
     84 N          -0.7416  -25.3329  -49.5175 N.am      15 UNK        -0.5000 
     85 CA         -0.8349  -25.0301  -50.9445 C.3       15 UNK         0.1400 
     86 CB         -0.3774  -23.5842  -51.1816 C.3       15 UNK        -0.1800 
     87 C          -2.2482  -25.2451  -51.5041 C.2       15 UNK         0.5000 
     88 O          -2.3849  -25.8067  -52.5921 O.2       15 UNK        -0.5000 
     89 N          -3.2672  -24.7840  -50.7632 N.am      16 UNK        -0.5000 
     90 CA         -4.6930  -24.8147  -51.1051 C.3       16 UNK         0.1400 
     91 CB         -5.2476  -26.2432  -50.9125 C.3       16 UNK        -0.1800 
     92 C          -4.9693  -24.2132  -52.4999 C.2       16 UNK         0.5000 
     93 O          -4.8262  -23.0010  -52.6791 O.2       16 UNK        -0.5000 
     94 N          -5.3166  -25.0675  -53.4712 N.am      17 UNK        -0.5000 
     95 CA         -5.5605  -24.7156  -54.8698 C.3       17 UNK         0.1400 
     96 CB         -6.0766  -25.9545  -55.6159 C.3       17 UNK        -0.1800 
     97 C          -4.3336  -24.1245  -55.5913 C.2       17 UNK         0.5000 
     98 O          -4.5133  -23.3120  -56.4981 O.2       17 UNK        -0.5000 
     99 N          -3.1145  -24.4838  -55.1587 N.am      18 UNK        -0.5000 
    100 CA        -1.8627  -23.9330  -55.6919 C.3       18 UNK         0.1400 
    101 CB        -0.6797  -24.8080  -55.2506 C.3       18 UNK        -0.1800 
    102 C         -1.6335  -22.4596  -55.2961 C.2       18 UNK         0.5000 
    103 O         -0.9016  -21.7558  -55.9922 O.2       18 UNK        -0.5000 
    104 N         -2.2864  -22.0138  -54.2140 N.am      19 UNK        -0.5000 
    105 CA        -2.3448  -20.6182  -53.7764 C.3       19 UNK         0.1400 
    106 CB        -2.1447  -20.5723  -52.2533 C.3       19 UNK        -0.1800 
    107 C         -3.6753  -19.9508  -54.1759 C.2       19 UNK         0.5000 
    108 O         -3.9523  -18.8447  -53.7118 O.2       19 UNK        -0.5000 
    109 N         -4.4943  -20.6415  -54.9873 N.am      20 UNK        -0.5000 
    110 CA        -5.8382  -20.2596  -55.4344 C.3       20 UNK         0.1400 
    111 CB        -5.7572  -19.0845  -56.4304 C.3       20 UNK        -0.1800 
    112 C         -6.8064  -19.9879  -54.2631 C.2       20 UNK         0.5000 
    113 O         -7.6274  -19.0723  -54.3447 O.2       20 UNK        -0.5000 
    114 N         -6.6538  -20.7553  -53.1705 N.am      21 UNK        -0.5000 
    115 CA        -7.3588  -20.6129  -51.8905 C.3       21 UNK         0.1400 
    116 CB        -8.8314  -21.0479  -52.0354 C.3       21 UNK        -0.1800 
    117 C         -7.1968  -19.2058  -51.2695 C.2       21 UNK         0.5000 
    118 O         -8.1511  -18.6600  -50.7132 O.2       21 UNK        -0.5000 
    119 N         -5.9874  -18.6456  -51.4110 N.am      22 UNK        -0.5000 
    120 CA        -5.5798  -17.2821  -51.0267 C.3       22 UNK         0.1400 
    121 C         -6.0819  -16.1661  -51.9939 C.2       22 UNK         0.5000 
    122 N         -6.7379  -16.4753  -53.1070 N.am      22 UNK        -0.7600 
    123 O         -5.8511  -14.9859  -51.7445 O.2       22 UNK        -0.5000 
    124 C124       -5.8574  -16.9160  -49.5388 C.3       23 UNK        -0.0398 
    125 S125       -5.2874  -18.1697  -48.3398 S.3       23 UNK        -0.2404 
    126 C126       -3.8835  -17.3340  -47.5407 C.3       23 UNK        -0.0205 
    127 H127        1.6349   -9.2768  -47.3403 H         1 UNK         0.0600 
    128 H128        0.3264   -8.1614  -47.7138 H         1 UNK         0.0600 
    129 H129        1.3217   -8.7914  -49.0182 H         1 UNK         0.0600 
    130 H130       -0.3586  -12.1218  -48.8468 H         1 UNK         0.3000 
    131 H131        2.0586  -10.8398  -49.7716 H         1 UNK         0.0600 
    132 H132        0.9297  -12.6590  -51.0518 H         1 UNK         0.0800 
    133 H133        2.5966  -12.9921  -50.7242 H         1 UNK         0.0800 
    134 H134       -1.0820  -14.0993  -50.2005 H         1 UNK         0.0800 
    135 H135       -0.2104  -15.0570  -51.3813 H         1 UNK         0.0800 
    136 H136       -2.6622  -15.2516  -48.8358 H         1 UNK         0.1150 
    137 H137       -2.3319  -19.4640  -48.1431 H         1 UNK         0.1150 
    138 H138        0.6501  -17.4380  -50.4620 H         1 UNK         0.1150 
    139 H139       -0.6971  -20.7460  -49.4501 H         1 UNK         0.0800 
    140 H140        0.4179  -19.9348  -50.5100 H         1 UNK         0.0800 
    141 H141        1.1898  -19.8134  -45.9711 H         1 UNK         0.0800 
    142 H142       -0.3771  -19.5840  -46.6623 H         1 UNK         0.0800 
    143 H143        0.9870  -22.3284  -46.6071 H         1 UNK         0.0600 
    144 H144        0.0687  -20.9980  -44.2961 H         1 UNK         0.3000 
    145 H145       -0.7561  -23.9166  -42.3834 H         1 UNK         0.0600 
    146 H146        0.8489  -22.7083  -40.8831 H         1 UNK         0.0600 
    147 H147        1.6793  -23.5871  -42.1581 H         1 UNK         0.0600 
    148 H148        1.4994  -21.8441  -42.2777 H         1 UNK         0.0600 
    149 H149       -0.8853  -21.0715  -41.9156 H         1 UNK         0.3000 
    150 H150       -4.3102  -20.6873  -42.8413 H         1 UNK         0.0600 
    151 H151       -4.3380  -21.6414  -40.5298 H         1 UNK         0.0600 
    152 H152       -4.4440  -19.8887  -40.5018 H         1 UNK         0.0600 
    153 H153       -2.9216  -20.6871  -40.1066 H         1 UNK         0.0600 
    154 H154       -2.4542  -18.8489  -41.7290 H         1 UNK         0.3000 
    155 H155       -1.1290  -17.6565  -44.8303 H         1 UNK         0.0600 
    156 H156       -2.1125  -15.5480  -43.9131 H         1 UNK         0.0600 
    157 H157       -3.0700  -16.4713  -42.7646 H         1 UNK         0.0600 
    158 H158       -3.3856  -16.6045  -44.4884 H         1 UNK         0.0600 
    159 H159       -0.5607  -16.6530  -42.3052 H         1 UNK         0.3000 
    160 H160        0.8827  -17.5447  -40.7094 H         1 UNK         0.0600 
    161 H161        2.8085  -19.7293  -41.6853 H         1 UNK         0.0600 
    162 H162        1.4192  -20.0098  -40.6387 H         1 UNK         0.0600 
    163 H163        2.7550  -19.0360  -40.0674 H         1 UNK         0.0600 
    164 H164        2.4721  -16.9102  -43.0080 H         1 UNK         0.3000 
    165 H165        4.9080  -14.9597  -41.1246 H         1 UNK         0.0600 
    166 H166        4.7489  -16.6977  -43.6406 H         1 UNK         0.0600 
    167 H167        6.0247  -15.5530  -43.2418 H         1 UNK         0.0600 
    168 H168        5.7889  -16.9874  -42.2547 H         1 UNK         0.0600 
    169 H169        3.6760  -14.4445  -43.6718 H         1 UNK         0.3000 
    170 H170        1.4151  -11.9462  -42.5225 H         1 UNK         0.0600 
    171 H171        3.5518  -10.6915  -42.7621 H         1 UNK         0.0600 
    172 H172        3.9943  -11.6670  -44.1570 H         1 UNK         0.0600 
    173 H173        2.6035  -10.5884  -44.2389 H         1 UNK         0.0600 
    174 H174        2.0150  -12.8657  -45.1399 H         1 UNK         0.3000 
    175 H175       -0.0992  -15.7380  -45.1704 H         1 UNK         0.0600 
    176 H176       -1.5692  -13.8399  -45.7213 H         1 UNK         0.0600 
    177 H177       -0.2527  -12.9963  -46.5184 H         1 UNK         0.0600 
    178 H178       -0.8783  -14.4965  -47.1946 H         1 UNK         0.0600 
    179 H179        1.7027  -14.5539  -47.0571 H         1 UNK         0.3000 
    180 H180        4.5552  -16.4720  -46.1402 H         1 UNK         0.0600 
    181 H181        2.6563  -16.8780  -48.5086 H         1 UNK         0.0600 
    182 H182        3.3542  -18.1198  -47.4797 H         1 UNK         0.0600 
    183 H183        4.3935  -17.1865  -48.5416 H         1 UNK         0.0600 
    184 H184        3.9354  -14.6624  -48.3023 H         1 UNK         0.3000 
    185 H185        4.9261  -11.6993  -46.5770 H         1 UNK         0.0600 
    186 H186        6.5417  -11.5342  -48.4448 H         1 UNK         0.0600 
    187 H187        7.0922  -12.7292  -47.2819 H         1 UNK         0.0600 
    188 H188        6.3627  -13.2541  -48.7946 H         1 UNK         0.0600 
    189 H189        4.2161  -12.0854  -49.2839 H         1 UNK         0.3000 
    190 H190       -2.3130  -21.1271  -45.7876 H         1 UNK         0.3000 
    191 H191       -3.6180  -21.9481  -48.1361 H         1 UNK         0.0600 
    192 H192       -5.6861  -21.7024  -46.7659 H         1 UNK         0.0600 
    193 H193       -4.5817  -20.3680  -46.4774 H         1 UNK         0.0600 
    194 H194       -4.7241  -21.6603  -45.2913 H         1 UNK         0.0600 
    195 H195       -3.0433  -23.7662  -45.0873 H         1 UNK         0.3000 
    196 H196       -4.5023  -26.1046  -45.8433 H         1 UNK         0.0600 
    197 H197       -3.2583  -27.1477  -43.9397 H         1 UNK         0.0600 
    198 H198       -3.9406  -25.5917  -43.4917 H         1 UNK         0.0600 
    199 H199       -2.2179  -25.7320  -43.8346 H         1 UNK         0.0600 
    200 H200       -1.0592  -25.1833  -46.2264 H         1 UNK         0.3000 
    201 H201       -0.2125  -27.7215  -47.2575 H         1 UNK         0.0600 
    202 H202        1.3400  -26.2054  -46.0983 H         1 UNK         0.0600 
    203 H203        1.1156  -24.9628  -47.3263 H         1 UNK         0.0600 
    204 H204        1.9075  -26.4802  -47.7383 H         1 UNK         0.0600 
    205 H205       -0.7901  -24.5403  -48.8786 H         1 UNK         0.3000 
    206 H206       -0.1554  -25.6849  -51.4946 H         1 UNK         0.0600 
    207 H207        0.6435  -23.4297  -50.8320 H         1 UNK         0.0600 
    208 H208       -0.4010  -23.3307  -52.2415 H         1 UNK         0.0600 
    209 H209       -1.0187  -22.8758  -50.6582 H         1 UNK         0.0600 
    210 H210       -3.0540  -24.3647  -49.8682 H         1 UNK         0.3000 
    211 H211       -5.2036  -24.1621  -50.3964 H         1 UNK         0.0600 
    212 H212       -4.7400  -26.9740  -51.5429 H         1 UNK         0.0600 
    213 H213       -6.3144  -26.2873  -51.1356 H         1 UNK         0.0600 
    214 H214       -5.1246  -26.5646  -49.8778 H         1 UNK         0.0600 
    215 H215       -5.3714  -26.0488  -53.2401 H         1 UNK         0.3000 
    216 H216       -6.3444  -23.9554  -54.8860 H         1 UNK         0.0600 
    217 H217       -5.3441  -26.7627  -55.6076 H         1 UNK         0.0600 
    218 H218       -6.9972  -26.3299  -55.1687 H         1 UNK         0.0600 
    219 H219       -6.2957  -25.7203  -56.6586 H         1 UNK         0.0600 
    220 H220       -3.0320  -25.1250  -54.3748 H         1 UNK         0.3000 
    221 H221       -1.9165  -23.9720  -56.7820 H         1 UNK         0.0600 
    222 H222       -0.8310  -25.8499  -55.5331 H         1 UNK         0.0600 
    223 H223        0.2460  -24.4747  -55.7213 H         1 UNK         0.0600 
    224 H224       -0.5263  -24.7714  -54.1731 H         1 UNK         0.0600 
    225 H225       -2.8960  -22.6523  -53.7179 H         1 UNK         0.3000 
    226 H226       -1.5455  -20.0369  -54.2399 H         1 UNK         0.0600 
    227 H227       -2.8908  -21.1674  -51.7251 H         1 UNK         0.0600 
    228 H228       -1.1593  -20.9511  -51.9921 H         1 UNK         0.0600 
    229 H229       -2.2041  -19.5522  -51.8710 H         1 UNK         0.0600 
    230 H230       -4.1749  -21.5395  -55.3279 H         1 UNK         0.3000 
    231 H231       -6.2427  -21.1201  -55.9688 H         1 UNK         0.0600 
    232 H232       -6.7334  -18.8736  -56.8686 H         1 UNK         0.0600 
    233 H233       -5.0770  -19.3108  -57.2514 H         1 UNK         0.0600 
    234 H234       -5.4097  -18.1696  -55.9491 H         1 UNK         0.0600 
    235 H235       -5.9322  -21.4712  -53.1823 H         1 UNK         0.3000 
    236 H236       -6.8770  -21.3054  -51.1986 H         1 UNK         0.0600 
    237 H237       -8.9056  -22.0512  -52.4549 H         1 UNK         0.0600 
    238 H238       -9.3317  -21.0646  -51.0665 H         1 UNK         0.0600 
    239 H239       -9.3915  -20.3715  -52.6817 H         1 UNK         0.0600 
    240 H240       -5.2962  -19.1437  -51.9563 H         1 UNK         0.3000 
    241 H241       -4.4961  -17.2801  -51.1507 H         1 UNK         0.0600 
    242 H242       -6.9492  -17.4370  -53.3477 H         1 UNK         0.3800 
    243 H243       -7.0415  -15.7348  -53.7185 H         1 UNK         0.3800 
    244 H244       -5.3893  -15.9608  -49.2967 H         1 UNK         0.0800 
    245 H245       -6.9255  -16.7653  -49.3783 H         1 UNK         0.0800 
    246 H246       -3.6684  -17.8500  -46.6044 H         1 UNK         0.0800 
    247 H247       -4.1588  -16.3142  -47.2680 H         1 UNK         0.0800 
@<TRIPOS>BOND
     1    1    2 1    
     2    1  127 1    
     3    1  128 1    
     4    1  129 1    
     5    2    3 2    
     6    2    4 am   BACKBONE|DICT|INTERRES
     7    4    5 1    
     8    4  130 1    
     9    5    6 1    
    10    5   65 1    
    11    5  131 1    
    12    6    7 1    
    13    6  132 1    
    14    6  133 1    
    15    7    8 1    
    16    8    9 1    
    17    8  134 1    
    18    8  135 1    
    19    9   10 ar   
    20    9   14 ar   
    21   10   11 ar   
    22   10  136 1    
    23   11   12 ar   
    24   11  126 1    
    25   12   13 ar   
    26   12  137 1    
    27   13   14 ar   
    28   13   15 1    
    29   14  138 1    
    30   15   16 1    
    31   15  139 1    
    32   15  140 1    
    33   16   17 1    
    34   17   18 1    
    35   17  141 1    
    36   17  142 1    
    37   18   19 1    
    38   18   67 1    
    39   18  143 1    
    40   19   20 am   BACKBONE|DICT|INTERRES
    41   19  144 1    
    42   20   21 2    
    43   20   22 1    
    44   22   23 1    
    45   22   24 1    
    46   22  145 1    
    47   23  146 1    
    48   23  147 1    
    49   23  148 1    
    50   24   25 am   BACKBONE|DICT|INTERRES
    51   24  149 1    
    52   25   26 2    
    53   25   27 1    
    54   27   28 1    
    55   27   29 1    
    56   27  150 1    
    57   28  151 1    
    58   28  152 1    
    59   28  153 1    
    60   29   30 am   BACKBONE|DICT|INTERRES
    61   29  154 1    
    62   30   31 2    
    63   30   32 1    
    64   32   33 1    
    65   32   34 1    
    66   32  155 1    
    67   33  156 1    
    68   33  157 1    
    69   33  158 1    
    70   34   35 am   BACKBONE|DICT|INTERRES
    71   34  159 1    
    72   35   36 2    
    73   35   37 1    
    74   37   38 1    
    75   37   39 1    
    76   37  160 1    
    77   38  161 1    
    78   38  162 1    
    79   38  163 1    
    80   39   40 am   BACKBONE|DICT|INTERRES
    81   39  164 1    
    82   40   41 2    
    83   40   42 1    
    84   42   43 1    
    85   42   44 1    
    86   42  165 1    
    87   43  166 1    
    88   43  167 1    
    89   43  168 1    
    90   44   45 am   BACKBONE|DICT|INTERRES
    91   44  169 1    
    92   45   46 2    
    93   45   47 1    
    94   47   48 1    
    95   47   49 1    
    96   47  170 1    
    97   48  171 1    
    98   48  172 1    
    99   48  173 1    
   100   49   50 am   BACKBONE|DICT|INTERRES
   101   49  174 1    
   102   50   51 2    
   103   50   52 1    
   104   52   53 1    
   105   52   54 1    
   106   52  175 1    
   107   53  176 1    
   108   53  177 1    
   109   53  178 1    
   110   54   55 am   BACKBONE|DICT|INTERRES
   111   54  179 1    
   112   55   56 2    
   113   55   57 1    
   114   57   58 1    
   115   57   59 1    
   116   57  180 1    
   117   58  181 1    
   118   58  182 1    
   119   58  183 1    
   120   59   60 am   BACKBONE|DICT|INTERRES
   121   59  184 1    
   122   60   61 2    
   123   60   62 1    
   124   62   63 1    
   125   62   64 1    
   126   62  185 1    
   127   63  186 1    
   128   63  187 1    
   129   63  188 1    
   130   64   65 am   BACKBONE|DICT|INTERRES
   131   64  189 1    
   132   65   66 2    
   133   67   68 2    
   134   67   69 am   BACKBONE|DICT|INTERRES
   135   69   70 1    
   136   69  190 1    
   137   70   71 1    
   138   70   72 1    
   139   70  191 1    
   140   71  192 1    
   141   71  193 1    
   142   71  194 1    
   143   72   73 2    
   144   72   74 am   BACKBONE|DICT|INTERRES
   145   74   75 1    
   146   74  195 1    
   147   75   76 1    
   148   75   77 1    
   149   75  196 1    
   150   76  197 1    
   151   76  198 1    
   152   76  199 1    
   153   77   78 2    
   154   77   79 am   BACKBONE|DICT|INTERRES
   155   79   80 1    
   156   79  200 1    
   157   80   81 1    
   158   80   82 1    
   159   80  201 1    
   160   81  202 1    
   161   81  203 1    
   162   81  204 1    
   163   82   83 2    
   164   82   84 am   BACKBONE|DICT|INTERRES
   165   84   85 1    
   166   84  205 1    
   167   85   86 1    
   168   85   87 1    
   169   85  206 1    
   170   86  207 1    
   171   86  208 1    
   172   86  209 1    
   173   87   88 2    
   174   87   89 am   BACKBONE|DICT|INTERRES
   175   89   90 1    
   176   89  210 1    
   177   90   91 1    
   178   90   92 1    
   179   90  211 1    
   180   91  212 1    
   181   91  213 1    
   182   91  214 1    
   183   92   93 2    
   184   92   94 am   BACKBONE|DICT|INTERRES
   185   94   95 1    
   186   94  215 1    
   187   95   96 1    
   188   95   97 1    
   189   95  216 1    
   190   96  217 1    
   191   96  218 1    
   192   96  219 1    
   193   97   98 2    
   194   97   99 am   BACKBONE|DICT|INTERRES
   195   99  100 1    
   196   99  220 1    
   197  100  101 1    
   198  100  102 1    
   199  100  221 1    
   200  101  222 1    
   201  101  223 1    
   202  101  224 1    
   203  102  103 2    
   204  102  104 am   BACKBONE|DICT|INTERRES
   205  104  105 1    
   206  104  225 1    
   207  105  106 1    
   208  105  107 1    
   209  105  226 1    
   210  106  227 1    
   211  106  228 1    
   212  106  229 1    
   213  107  108 2    
   214  107  109 am   BACKBONE|DICT|INTERRES
   215  109  110 1    
   216  109  230 1    
   217  110  111 1    
   218  110  112 1    
   219  110  231 1    
   220  111  232 1    
   221  111  233 1    
   222  111  234 1    
   223  112  113 2    
   224  112  114 am   BACKBONE|DICT|INTERRES
   225  114  115 1    
   226  114  235 1    
   227  115  116 1    
   228  115  117 1    
   229  115  236 1    
   230  116  237 1    
   231  116  238 1    
   232  116  239 1    
   233  117  118 2    
   234  117  119 am   BACKBONE|DICT|INTERRES
   235  119  120 1    
   236  119  240 1    
   237  120  121 1    
   238  120  124 1    
   239  120  241 1    
   240  121  122 am   BACKBONE|DICT|INTERRES
   241  121  123 2    
   242  122  242 1    
   243  122  243 1    
   244  124  125 1    
   245  124  244 1    
   246  124  245 1    
   247  125  126 1    
   248  126  246 1    
   249  126  247 1    
@<TRIPOS>SUBSTRUCTURE
     1 UNK         1 GROUP             0       ****    0 ROOT    
