@<TRIPOS>MOLECULE
3R540
247   249    1
SMALL
USER_CHARGES


@<TRIPOS>ATOM
      1 CA          6.3762  -16.6154  -46.0439 C.3       0 UNK        -0.1800 
      2 C           6.0620  -18.0522  -46.4354 C.2       0 UNK         0.5000 
      3 O           6.8392  -18.9565  -46.1314 O.2       0 UNK        -0.5000 
      4 N           4.9185  -18.2660  -47.0973 N.am      1 UNK        -0.5000 
      5 CA          4.4334  -19.5762  -47.5554 C.3       1 UNK         0.1400 
      6 C6          3.5577  -19.4550  -48.8274 C.3       23 UNK        -0.0398 
      7 S7          4.4675  -18.7864  -50.2597 S.3       23 UNK        -0.2404 
      8 C8          3.4455  -17.3523  -50.7347 C.3       23 UNK        -0.0205 
      9 C9          2.0637  -17.7291  -51.2634 C.ar      23 UNK        -0.0193 
     10 C10         1.9159  -18.6631  -52.2942 C.ar      23 UNK        -0.1150 
     11 C11         0.6487  -18.9738  -52.7969 C.ar      23 UNK        -0.0193 
     12 C12        -0.4764  -18.3308  -52.2720 C.ar      23 UNK        -0.1150 
     13 C13        -0.3477  -17.3852  -51.2472 C.ar      23 UNK        -0.0193 
     14 C14         0.9271  -17.0989  -50.7487 C.ar      23 UNK        -0.1150 
     15 C15        -1.5376  -16.6028  -50.6883 C.3       23 UNK        -0.0205 
     16 S16        -3.1896  -17.3214  -50.9669 S.3       23 UNK        -0.2404 
     17 C17        -3.1950  -18.8720  -49.9999 C.3       23 UNK        -0.0398 
     18 CA         -2.6076  -18.8717  -48.5549 C.3       11 UNK         0.1400 
     19 N          -3.0151  -17.7306  -47.7317 N.am      11 UNK        -0.5000 
     20 C          -4.2625  -17.3965  -47.3720 C.2       10 UNK         0.5000 
     21 O          -5.2654  -18.0130  -47.7341 O.2       10 UNK        -0.5000 
     22 CA         -4.4230  -16.1931  -46.4190 C.3       10 UNK         0.1400 
     23 CB         -4.9724  -16.6597  -45.0611 C.3       10 UNK        -0.1800 
     24 N          -3.1787  -15.4515  -46.1924 N.am      10 UNK        -0.5000 
     25 C          -2.6184  -14.6036  -47.0661 C.2       9 UNK         0.5000 
     26 O          -3.1258  -14.3027  -48.1463 O.2       9 UNK        -0.5000 
     27 CA         -1.2455  -14.0160  -46.6846 C.3       9 UNK         0.1400 
     28 CB         -1.4202  -12.7251  -45.8708 C.3       9 UNK        -0.1800 
     29 N          -0.3983  -14.9498  -45.9379 N.am      9 UNK        -0.5000 
     30 C           0.0894  -16.1000  -46.4248 C.2       8 UNK         0.5000 
     31 O          -0.1079  -16.4988  -47.5684 O.2       8 UNK        -0.5000 
     32 CA          0.8762  -16.9941  -45.4559 C.3       8 UNK         0.1400 
     33 CB          2.3108  -16.4805  -45.2654 C.3       8 UNK        -0.1800 
     34 N           0.2101  -17.1128  -44.1623 N.am      8 UNK        -0.5000 
     35 C          -0.9906  -17.6767  -43.9716 C.2       7 UNK         0.5000 
     36 O          -1.6583  -18.1895  -44.8706 O.2       7 UNK        -0.5000 
     37 CA         -1.5534  -17.6183  -42.5415 C.3       7 UNK         0.1400 
     38 CB         -0.9639  -18.7341  -41.6639 C.3       7 UNK        -0.1800 
     39 N          -1.2992  -16.3230  -41.9122 N.am      7 UNK        -0.5000 
     40 C          -1.8617  -15.1683  -42.2954 C.2       6 UNK         0.5000 
     41 O          -2.6954  -15.0765  -43.1959 O.2       6 UNK        -0.5000 
     42 CA         -1.3697  -13.8987  -41.5779 C.3       6 UNK         0.1400 
     43 CB         -2.0858  -13.7227  -40.2306 C.3       6 UNK        -0.1800 
     44 N           0.0788  -13.9078  -41.3630 N.am      6 UNK        -0.5000 
     45 C           0.9862  -13.8419  -42.3475 C.2       5 UNK         0.5000 
     46 O           0.6953  -13.7386  -43.5384 O.2       5 UNK        -0.5000 
     47 CA          2.4652  -13.9545  -41.9363 C.3       5 UNK         0.1400 
     48 CB          3.0182  -12.5810  -41.5281 C.3       5 UNK        -0.1800 
     49 N           2.6995  -14.9158  -40.8547 N.am      5 UNK        -0.5000 
     50 C           2.4597  -16.2303  -40.9409 C.2       4 UNK         0.5000 
     51 O           1.9535  -16.7740  -41.9253 O.2       4 UNK        -0.5000 
     52 CA          2.8056  -17.0732  -39.7092 C.3       4 UNK         0.1400 
     53 CB          1.6024  -17.1582  -38.7563 C.3       4 UNK        -0.1800 
     54 N           3.1664  -18.4161  -40.1515 N.am      4 UNK        -0.5000 
     55 C           4.2126  -19.1228  -39.7102 C.2       3 UNK         0.5000 
     56 O           4.9639  -18.7363  -38.8134 O.2       3 UNK        -0.5000 
     57 CA          4.4730  -20.4982  -40.3614 C.3       3 UNK         0.1400 
     58 CB          4.0962  -21.6280  -39.3894 C.3       3 UNK        -0.1800 
     59 N           3.7738  -20.7247  -41.6307 N.am      3 UNK        -0.5000 
     60 C           4.0531  -20.1118  -42.7877 C.2       2 UNK         0.5000 
     61 O           4.9044  -19.2268  -42.9092 O.2       2 UNK        -0.5000 
     62 CA          3.2323  -20.5659  -44.0057 C.3       2 UNK         0.1400 
     63 CB          1.7384  -20.2445  -43.8267 C.3       2 UNK        -0.1800 
     64 N           3.7506  -19.8998  -45.1956 N.am      2 UNK        -0.5000 
     65 C           3.7040  -20.3752  -46.4454 C.2       1 UNK         0.5000 
     66 O           3.1135  -21.4144  -46.7418 O.2       1 UNK        -0.5000 
     67 C          -2.9021  -20.2180  -47.8415 C.2       11 UNK         0.5000 
     68 O          -3.2030  -21.2063  -48.5167 O.2       11 UNK        -0.5000 
     69 N          -2.8582  -20.2347  -46.4981 N.am      12 UNK        -0.5000 
     70 CA         -3.3176  -21.3324  -45.6396 C.3       12 UNK         0.1400 
     71 CB         -3.2126  -20.9212  -44.1633 C.3       12 UNK        -0.1800 
     72 C          -2.5898  -22.6570  -45.9133 C.2       12 UNK         0.5000 
     73 O          -3.2030  -23.5964  -46.4193 O.2       12 UNK        -0.5000 
     74 N          -1.2835  -22.6838  -45.6266 N.am      13 UNK        -0.5000 
     75 CA         -0.4044  -23.8103  -45.9474 C.3       13 UNK         0.1400 
     76 CB          0.8113  -23.7737  -45.0089 C.3       13 UNK        -0.1800 
     77 C           0.0492  -23.7932  -47.4206 C.2       13 UNK         0.5000 
     78 O           0.4909  -24.8227  -47.9314 O.2       13 UNK        -0.5000 
     79 N          -0.0528  -22.6228  -48.0649 N.am      14 UNK        -0.5000 
     80 CA          0.4274  -22.3643  -49.4183 C.3       14 UNK         0.1400 
     81 CB          0.4675  -20.8475  -49.6505 C.3       14 UNK        -0.1800 
     82 C          -0.4320  -23.0349  -50.5009 C.2       14 UNK         0.5000 
     83 O           0.1199  -23.5985  -51.4466 O.2       14 UNK        -0.5000 
     84 N          -1.7603  -22.9361  -50.3588 N.am      15 UNK        -0.5000 
     85 CA         -2.7238  -23.3616  -51.3705 C.3       15 UNK         0.1400 
     86 CB         -2.8685  -22.2682  -52.4452 C.3       15 UNK        -0.1800 
     87 C          -4.0707  -23.7453  -50.7395 C.2       15 UNK         0.5000 
     88 O          -5.1167  -23.4584  -51.3240 O.2       15 UNK        -0.5000 
     89 N          -4.0243  -24.3750  -49.5561 N.am      16 UNK        -0.5000 
     90 CA         -5.1639  -24.9186  -48.8045 C.3       16 UNK         0.1400 
     91 CB         -5.7259  -26.1644  -49.5207 C.3       16 UNK        -0.1800 
     92 C          -6.2487  -23.8652  -48.4912 C.2       16 UNK         0.5000 
     93 O          -7.4382  -24.1248  -48.6806 O.2       16 UNK        -0.5000 
     94 N          -5.8001  -22.6863  -48.0372 N.am      17 UNK        -0.5000 
     95 CA         -6.5978  -21.4891  -47.7500 C.3       17 UNK         0.1400 
     96 CB         -7.6005  -21.7350  -46.6033 C.3       17 UNK        -0.1800 
     97 C          -7.2352  -20.9032  -49.0237 C.2       17 UNK         0.5000 
     98 O          -8.4309  -20.6057  -49.0493 O.2       17 UNK        -0.5000 
     99 N          -6.3896  -20.7441  -50.0511 N.am      18 UNK        -0.5000 
    100 CA        -6.6674  -20.1150  -51.3449 C.3       18 UNK         0.1400 
    101 CB        -7.0722  -18.6343  -51.1664 C.3       18 UNK        -0.1800 
    102 C         -7.6547  -20.9152  -52.2170 C.2       18 UNK         0.5000 
    103 O         -8.4869  -20.3273  -52.9099 O.2       18 UNK        -0.5000 
    104 N         -7.5209  -22.2476  -52.1993 N.am      19 UNK        -0.5000 
    105 CA        -8.2612  -23.1641  -53.0687 C.3       19 UNK         0.1400 
    106 CB        -8.1793  -24.5833  -52.4870 C.3       19 UNK        -0.1800 
    107 C         -7.7315  -23.1438  -54.5166 C.2       19 UNK         0.5000 
    108 O         -8.5010  -23.3708  -55.4509 O.2       19 UNK        -0.5000 
    109 N         -6.4330  -22.8587  -54.6721 N.am      20 UNK        -0.5000 
    110 CA        -5.7248  -22.7414  -55.9441 C.3       20 UNK         0.1400 
    111 CB        -5.2771  -24.1355  -56.4254 C.3       20 UNK        -0.1800 
    112 C         -4.5599  -21.7565  -55.7551 C.2       20 UNK         0.5000 
    113 O         -3.3959  -22.1332  -55.9003 O.2       20 UNK        -0.5000 
    114 N         -4.9029  -20.5277  -55.3439 N.am      21 UNK        -0.5000 
    115 CA        -3.9713  -19.4578  -54.9792 C.3       21 UNK         0.1400 
    116 CB        -4.7774  -18.2527  -54.4715 C.3       21 UNK        -0.1800 
    117 C         -3.0275  -19.0202  -56.1169 C.2       21 UNK         0.5000 
    118 O         -3.3636  -19.1466  -57.2967 O.2       21 UNK        -0.5000 
    119 N         -1.8764  -18.4704  -55.7167 N.am      22 UNK        -0.5000 
    120 CA        -0.8192  -17.9516  -56.5980 C.3       22 UNK         0.1400 
    121 C         -1.1464  -16.5797  -57.2623 C.2       22 UNK         0.5000 
    122 N         -2.2088  -15.8818  -56.8785 N.am      22 UNK        -0.7600 
    123 O         -0.4233  -16.1424  -58.1532 O.2       22 UNK        -0.5000 
    124 C124        0.5385  -17.8899  -55.8490 C.3       23 UNK        -0.0398 
    125 S125        1.2488  -19.5348  -55.4815 S.3       23 UNK        -0.2404 
    126 C126        0.4877  -20.0174  -53.8939 C.3       23 UNK        -0.0205 
    127 H127        6.4497  -16.5311  -44.9595 H         1 UNK         0.0600 
    128 H128        5.6066  -15.9232  -46.3866 H         1 UNK         0.0600 
    129 H129        7.3278  -16.3075  -46.4770 H         1 UNK         0.0600 
    130 H130        4.3327  -17.4794  -47.3334 H         1 UNK         0.3000 
    131 H131        5.3006  -20.1830  -47.8249 H         1 UNK         0.0600 
    132 H132        3.1985  -20.4378  -49.1340 H         1 UNK         0.0800 
    133 H133        2.6750  -18.8457  -48.6270 H         1 UNK         0.0800 
    134 H134        3.9698  -16.7960  -51.5125 H         1 UNK         0.0800 
    135 H135        3.3657  -16.6797  -49.8793 H         1 UNK         0.0800 
    136 H136        2.7880  -19.1514  -52.7061 H         1 UNK         0.1150 
    137 H137       -1.4512  -18.5663  -52.6694 H         1 UNK         0.1150 
    138 H138        1.0351  -16.3606  -49.9664 H         1 UNK         0.1150 
    139 H139       -1.4170  -16.4308  -49.6232 H         1 UNK         0.0800 
    140 H140       -1.5272  -15.6141  -51.1480 H         1 UNK         0.0800 
    141 H141       -2.6814  -19.6222  -50.6007 H         1 UNK         0.0800 
    142 H142       -4.2364  -19.1829  -49.9652 H         1 UNK         0.0800 
    143 H143       -1.5231  -18.7966  -48.6325 H         1 UNK         0.0600 
    144 H144       -2.2555  -17.1677  -47.3706 H         1 UNK         0.3000 
    145 H145       -5.1535  -15.5180  -46.8691 H         1 UNK         0.0600 
    146 H146       -5.1489  -15.8145  -44.3956 H         1 UNK         0.0600 
    147 H147       -5.9224  -17.1825  -45.1788 H         1 UNK         0.0600 
    148 H148       -4.2831  -17.3410  -44.5618 H         1 UNK         0.0600 
    149 H149       -2.7231  -15.5991  -45.2992 H         1 UNK         0.3000 
    150 H150       -0.7262  -13.7663  -47.6122 H         1 UNK         0.0600 
    151 H151       -2.0369  -12.0033  -46.4075 H         1 UNK         0.0600 
    152 H152       -0.4588  -12.2498  -45.6755 H         1 UNK         0.0600 
    153 H153       -1.8988  -12.9183  -44.9100 H         1 UNK         0.0600 
    154 H154       -0.1472  -14.6743  -44.9921 H         1 UNK         0.3000 
    155 H155        0.9315  -17.9926  -45.8948 H         1 UNK         0.0600 
    156 H156        2.3274  -15.4890  -44.8149 H         1 UNK         0.0600 
    157 H157        2.8282  -16.4110  -46.2220 H         1 UNK         0.0600 
    158 H158        2.8884  -17.1466  -44.6246 H         1 UNK         0.0600 
    159 H159        0.7227  -16.7700  -43.3542 H         1 UNK         0.3000 
    160 H160       -2.6337  -17.7651  -42.6020 H         1 UNK         0.0600 
    161 H161       -1.4137  -18.7306  -40.6710 H         1 UNK         0.0600 
    162 H162        0.1135  -18.6310  -41.5410 H         1 UNK         0.0600 
    163 H163       -1.1466  -19.7172  -42.0958 H         1 UNK         0.0600 
    164 H164       -0.5898  -16.2981  -41.1959 H         1 UNK         0.3000 
    165 H165       -1.6155  -13.0426  -42.2100 H         1 UNK         0.0600 
    166 H166       -1.7988  -12.7865  -39.7515 H         1 UNK         0.0600 
    167 H167       -3.1681  -13.6994  -40.3648 H         1 UNK         0.0600 
    168 H168       -1.8577  -14.5366  -39.5412 H         1 UNK         0.0600 
    169 H169        0.4031  -13.9904  -40.4109 H         1 UNK         0.3000 
    170 H170        3.0238  -14.2972  -42.8094 H         1 UNK         0.0600 
    171 H171        2.8734  -11.8497  -42.3246 H         1 UNK         0.0600 
    172 H172        2.5247  -12.1958  -40.6349 H         1 UNK         0.0600 
    173 H173        4.0883  -12.6308  -41.3260 H         1 UNK         0.0600 
    174 H174        3.1033  -14.5457  -40.0063 H         1 UNK         0.3000 
    175 H175        3.6441  -16.6002  -39.1937 H         1 UNK         0.0600 
    176 H176        0.7378  -17.6176  -39.2366 H         1 UNK         0.0600 
    177 H177        1.8444  -17.7485  -37.8724 H         1 UNK         0.0600 
    178 H178        1.3018  -16.1678  -38.4125 H         1 UNK         0.0600 
    179 H179        2.6434  -18.7584  -40.9453 H         1 UNK         0.3000 
    180 H180        5.5460  -20.5613  -40.5545 H         1 UNK         0.0600 
    181 H181        3.0279  -21.6285  -39.1692 H         1 UNK         0.0600 
    182 H182        4.6261  -21.5238  -38.4416 H         1 UNK         0.0600 
    183 H183        4.3569  -22.6046  -39.7979 H         1 UNK         0.0600 
    184 H184        3.0532  -21.4319  -41.6160 H         1 UNK         0.3000 
    185 H185        3.3648  -21.6442  -44.1154 H         1 UNK         0.0600 
    186 H186        1.1798  -20.3699  -44.7542 H         1 UNK         0.0600 
    187 H187        1.2810  -20.8955  -43.0814 H         1 UNK         0.0600 
    188 H188        1.6050  -19.2196  -43.4879 H         1 UNK         0.0600 
    189 H189        4.3225  -19.0884  -44.9979 H         1 UNK         0.3000 
    190 H190       -2.5527  -19.3931  -46.0136 H         1 UNK         0.3000 
    191 H191       -4.3742  -21.4961  -45.8490 H         1 UNK         0.0600 
    192 H192       -3.5808  -21.7120  -43.5086 H         1 UNK         0.0600 
    193 H193       -3.8047  -20.0285  -43.9603 H         1 UNK         0.0600 
    194 H194       -2.1833  -20.7105  -43.8778 H         1 UNK         0.0600 
    195 H195       -0.8544  -21.8705  -45.2114 H         1 UNK         0.3000 
    196 H196       -0.9401  -24.7462  -45.7738 H         1 UNK         0.0600 
    197 H197        1.4617  -24.6324  -45.1799 H         1 UNK         0.0600 
    198 H198        0.5062  -23.8000  -43.9627 H         1 UNK         0.0600 
    199 H199        1.4097  -22.8765  -45.1639 H         1 UNK         0.0600 
    200 H200       -0.4369  -21.8410  -47.5594 H         1 UNK         0.3000 
    201 H201        1.4465  -22.7506  -49.4900 H         1 UNK         0.0600 
    202 H202        0.8173  -20.3097  -48.7705 H         1 UNK         0.0600 
    203 H203       -0.5085  -20.4462  -49.9172 H         1 UNK         0.0600 
    204 H204        1.1423  -20.6143  -50.4724 H         1 UNK         0.0600 
    205 H205       -2.1482  -22.4450  -49.5576 H         1 UNK         0.3000 
    206 H206       -2.3562  -24.2689  -51.8542 H         1 UNK         0.0600 
    207 H207       -1.9099  -22.0213  -52.9008 H         1 UNK         0.0600 
    208 H208       -3.5228  -22.6105  -53.2443 H         1 UNK         0.0600 
    209 H209       -3.2972  -21.3541  -52.0365 H         1 UNK         0.0600 
    210 H210       -3.1181  -24.5226  -49.1345 H         1 UNK         0.3000 
    211 H211       -4.7730  -25.2474  -47.8410 H         1 UNK         0.0600 
    212 H212       -4.9457  -26.9061  -49.6912 H         1 UNK         0.0600 
    213 H213       -6.1647  -25.9124  -50.4860 H         1 UNK         0.0600 
    214 H214       -6.5022  -26.6435  -48.9231 H         1 UNK         0.0600 
    215 H215       -4.7951  -22.5722  -47.9621 H         1 UNK         0.3000 
    216 H216       -5.8991  -20.7281  -47.4027 H         1 UNK         0.0600 
    217 H217       -8.0864  -20.8041  -46.3090 H         1 UNK         0.0600 
    218 H218       -7.0996  -22.1324  -45.7207 H         1 UNK         0.0600 
    219 H219       -8.3864  -22.4347  -46.8882 H         1 UNK         0.0600 
    220 H220       -5.4499  -21.0933  -49.9265 H         1 UNK         0.3000 
    221 H221       -5.7209  -20.1299  -51.8863 H         1 UNK         0.0600 
    222 H222       -8.0354  -18.5338  -50.6661 H         1 UNK         0.0600 
    223 H223       -6.3340  -18.0885  -50.5788 H         1 UNK         0.0600 
    224 H224       -7.1582  -18.1275  -52.1275 H         1 UNK         0.0600 
    225 H225       -6.7797  -22.6617  -51.6380 H         1 UNK         0.3000 
    226 H226       -9.3100  -22.8606  -53.0861 H         1 UNK         0.0600 
    227 H227       -8.7860  -25.2786  -53.0683 H         1 UNK         0.0600 
    228 H228       -7.1557  -24.9591  -52.4907 H         1 UNK         0.0600 
    229 H229       -8.5426  -24.6117  -51.4593 H         1 UNK         0.0600 
    230 H230       -5.8808  -22.6916  -53.8419 H         1 UNK         0.3000 
    231 H231       -6.3896  -22.3105  -56.6957 H         1 UNK         0.0600 
    232 H232       -6.1330  -24.7889  -56.5945 H         1 UNK         0.0600 
    233 H233       -4.6249  -24.6204  -55.6981 H         1 UNK         0.0600 
    234 H234       -4.7307  -24.0673  -57.3668 H         1 UNK         0.0600 
    235 H235       -5.8852  -20.3057  -55.2754 H         1 UNK         0.3000 
    236 H236       -3.3580  -19.8325  -54.1573 H         1 UNK         0.0600 
    237 H237       -4.1209  -17.4491  -54.1353 H         1 UNK         0.0600 
    238 H238       -5.4249  -17.8457  -55.2492 H         1 UNK         0.0600 
    239 H239       -5.4030  -18.5257  -53.6249 H         1 UNK         0.0600 
    240 H240       -1.7012  -18.3647  -54.7304 H         1 UNK         0.3000 
    241 H241       -0.7090  -18.6543  -57.4263 H         1 UNK         0.0600 
    242 H242       -2.8189  -16.2266  -56.1562 H         1 UNK         0.3800 
    243 H243       -2.4077  -14.9992  -57.3232 H         1 UNK         0.3800 
    244 H244        1.2841  -17.3768  -56.4591 H         1 UNK         0.0800 
    245 H245        0.4547  -17.2979  -54.9370 H         1 UNK         0.0800 
    246 H246       -0.5634  -20.2539  -54.0594 H         1 UNK         0.0800 
    247 H247        0.9480  -20.9478  -53.5581 H         1 UNK         0.0800 
@<TRIPOS>BOND
     1    1    2 1    
     2    1  127 1    
     3    1  128 1    
     4    1  129 1    
     5    2    3 2    
     6    2    4 am   BACKBONE|DICT|INTERRES
     7    4    5 1    
     8    4  130 1    
     9    5    6 1    
    10    5   65 1    
    11    5  131 1    
    12    6    7 1    
    13    6  132 1    
    14    6  133 1    
    15    7    8 1    
    16    8    9 1    
    17    8  134 1    
    18    8  135 1    
    19    9   10 ar   
    20    9   14 ar   
    21   10   11 ar   
    22   10  136 1    
    23   11   12 ar   
    24   11  126 1    
    25   12   13 ar   
    26   12  137 1    
    27   13   14 ar   
    28   13   15 1    
    29   14  138 1    
    30   15   16 1    
    31   15  139 1    
    32   15  140 1    
    33   16   17 1    
    34   17   18 1    
    35   17  141 1    
    36   17  142 1    
    37   18   19 1    
    38   18   67 1    
    39   18  143 1    
    40   19   20 am   BACKBONE|DICT|INTERRES
    41   19  144 1    
    42   20   21 2    
    43   20   22 1    
    44   22   23 1    
    45   22   24 1    
    46   22  145 1    
    47   23  146 1    
    48   23  147 1    
    49   23  148 1    
    50   24   25 am   BACKBONE|DICT|INTERRES
    51   24  149 1    
    52   25   26 2    
    53   25   27 1    
    54   27   28 1    
    55   27   29 1    
    56   27  150 1    
    57   28  151 1    
    58   28  152 1    
    59   28  153 1    
    60   29   30 am   BACKBONE|DICT|INTERRES
    61   29  154 1    
    62   30   31 2    
    63   30   32 1    
    64   32   33 1    
    65   32   34 1    
    66   32  155 1    
    67   33  156 1    
    68   33  157 1    
    69   33  158 1    
    70   34   35 am   BACKBONE|DICT|INTERRES
    71   34  159 1    
    72   35   36 2    
    73   35   37 1    
    74   37   38 1    
    75   37   39 1    
    76   37  160 1    
    77   38  161 1    
    78   38  162 1    
    79   38  163 1    
    80   39   40 am   BACKBONE|DICT|INTERRES
    81   39  164 1    
    82   40   41 2    
    83   40   42 1    
    84   42   43 1    
    85   42   44 1    
    86   42  165 1    
    87   43  166 1    
    88   43  167 1    
    89   43  168 1    
    90   44   45 am   BACKBONE|DICT|INTERRES
    91   44  169 1    
    92   45   46 2    
    93   45   47 1    
    94   47   48 1    
    95   47   49 1    
    96   47  170 1    
    97   48  171 1    
    98   48  172 1    
    99   48  173 1    
   100   49   50 am   BACKBONE|DICT|INTERRES
   101   49  174 1    
   102   50   51 2    
   103   50   52 1    
   104   52   53 1    
   105   52   54 1    
   106   52  175 1    
   107   53  176 1    
   108   53  177 1    
   109   53  178 1    
   110   54   55 am   BACKBONE|DICT|INTERRES
   111   54  179 1    
   112   55   56 2    
   113   55   57 1    
   114   57   58 1    
   115   57   59 1    
   116   57  180 1    
   117   58  181 1    
   118   58  182 1    
   119   58  183 1    
   120   59   60 am   BACKBONE|DICT|INTERRES
   121   59  184 1    
   122   60   61 2    
   123   60   62 1    
   124   62   63 1    
   125   62   64 1    
   126   62  185 1    
   127   63  186 1    
   128   63  187 1    
   129   63  188 1    
   130   64   65 am   BACKBONE|DICT|INTERRES
   131   64  189 1    
   132   65   66 2    
   133   67   68 2    
   134   67   69 am   BACKBONE|DICT|INTERRES
   135   69   70 1    
   136   69  190 1    
   137   70   71 1    
   138   70   72 1    
   139   70  191 1    
   140   71  192 1    
   141   71  193 1    
   142   71  194 1    
   143   72   73 2    
   144   72   74 am   BACKBONE|DICT|INTERRES
   145   74   75 1    
   146   74  195 1    
   147   75   76 1    
   148   75   77 1    
   149   75  196 1    
   150   76  197 1    
   151   76  198 1    
   152   76  199 1    
   153   77   78 2    
   154   77   79 am   BACKBONE|DICT|INTERRES
   155   79   80 1    
   156   79  200 1    
   157   80   81 1    
   158   80   82 1    
   159   80  201 1    
   160   81  202 1    
   161   81  203 1    
   162   81  204 1    
   163   82   83 2    
   164   82   84 am   BACKBONE|DICT|INTERRES
   165   84   85 1    
   166   84  205 1    
   167   85   86 1    
   168   85   87 1    
   169   85  206 1    
   170   86  207 1    
   171   86  208 1    
   172   86  209 1    
   173   87   88 2    
   174   87   89 am   BACKBONE|DICT|INTERRES
   175   89   90 1    
   176   89  210 1    
   177   90   91 1    
   178   90   92 1    
   179   90  211 1    
   180   91  212 1    
   181   91  213 1    
   182   91  214 1    
   183   92   93 2    
   184   92   94 am   BACKBONE|DICT|INTERRES
   185   94   95 1    
   186   94  215 1    
   187   95   96 1    
   188   95   97 1    
   189   95  216 1    
   190   96  217 1    
   191   96  218 1    
   192   96  219 1    
   193   97   98 2    
   194   97   99 am   BACKBONE|DICT|INTERRES
   195   99  100 1    
   196   99  220 1    
   197  100  101 1    
   198  100  102 1    
   199  100  221 1    
   200  101  222 1    
   201  101  223 1    
   202  101  224 1    
   203  102  103 2    
   204  102  104 am   BACKBONE|DICT|INTERRES
   205  104  105 1    
   206  104  225 1    
   207  105  106 1    
   208  105  107 1    
   209  105  226 1    
   210  106  227 1    
   211  106  228 1    
   212  106  229 1    
   213  107  108 2    
   214  107  109 am   BACKBONE|DICT|INTERRES
   215  109  110 1    
   216  109  230 1    
   217  110  111 1    
   218  110  112 1    
   219  110  231 1    
   220  111  232 1    
   221  111  233 1    
   222  111  234 1    
   223  112  113 2    
   224  112  114 am   BACKBONE|DICT|INTERRES
   225  114  115 1    
   226  114  235 1    
   227  115  116 1    
   228  115  117 1    
   229  115  236 1    
   230  116  237 1    
   231  116  238 1    
   232  116  239 1    
   233  117  118 2    
   234  117  119 am   BACKBONE|DICT|INTERRES
   235  119  120 1    
   236  119  240 1    
   237  120  121 1    
   238  120  124 1    
   239  120  241 1    
   240  121  122 am   BACKBONE|DICT|INTERRES
   241  121  123 2    
   242  122  242 1    
   243  122  243 1    
   244  124  125 1    
   245  124  244 1    
   246  124  245 1    
   247  125  126 1    
   248  126  246 1    
   249  126  247 1    
@<TRIPOS>SUBSTRUCTURE
     1 UNK         1 GROUP             0       ****    0 ROOT    
