@<TRIPOS>MOLECULE
3R540
247   249    1
SMALL
USER_CHARGES


@<TRIPOS>ATOM
      1 CA          4.0395  -17.6519  -47.0475 C.3       0 UNK        -0.1800 
      2 C           3.4587  -16.3711  -47.6301 C.2       0 UNK         0.5000 
      3 O           2.5465  -15.7753  -47.0553 O.2       0 UNK        -0.5000 
      4 N           4.0163  -15.9307  -48.7644 N.am      1 UNK        -0.5000 
      5 CA          3.5678  -14.7762  -49.5570 C.3       1 UNK         0.1400 
      6 C6          4.2847  -14.7446  -50.9320 C.3       23 UNK        -0.0398 
      7 S7          3.1854  -14.2206  -52.2896 S.3       23 UNK        -0.2404 
      8 C8          2.7413  -15.8192  -53.0411 C.3       23 UNK        -0.0205 
      9 C9          1.6130  -16.5192  -52.2959 C.ar      23 UNK        -0.0193 
     10 C10         0.2864  -16.2069  -52.6023 C.ar      23 UNK        -0.1150 
     11 C11        -0.7656  -16.8918  -51.9901 C.ar      23 UNK        -0.0193 
     12 C12        -0.4846  -17.8860  -51.0482 C.ar      23 UNK        -0.1150 
     13 C13         0.8372  -18.2014  -50.7205 C.ar      23 UNK        -0.0193 
     14 C14         1.8828  -17.5107  -51.3459 C.ar      23 UNK        -0.1150 
     15 C15         1.1356  -19.3212  -49.7320 C.3       23 UNK        -0.0205 
     16 S16         0.7994  -18.8363  -48.0088 S.3       23 UNK        -0.2404 
     17 C17        -0.7930  -19.6562  -47.6706 C.3       23 UNK        -0.0398 
     18 CA         -0.6060  -21.1090  -47.1752 C.3       11 UNK         0.1400 
     19 N           0.1993  -21.2067  -45.9455 N.am      11 UNK        -0.5000 
     20 C           0.6460  -22.3540  -45.4094 C.2       10 UNK         0.5000 
     21 O           0.4171  -23.4627  -45.8923 O.2       10 UNK        -0.5000 
     22 CA          1.4163  -22.2604  -44.0827 C.3       10 UNK         0.1400 
     23 CB          2.8637  -21.7941  -44.3040 C.3       10 UNK        -0.1800 
     24 N           0.7246  -21.3737  -43.1475 N.am      10 UNK        -0.5000 
     25 C          -0.3474  -21.7443  -42.4305 C.2       9 UNK         0.5000 
     26 O          -0.7696  -22.9002  -42.3960 O.2       9 UNK        -0.5000 
     27 CA         -1.0989  -20.6549  -41.6371 C.3       9 UNK         0.1400 
     28 CB         -0.6635  -20.6605  -40.1644 C.3       9 UNK        -0.1800 
     29 N          -0.9398  -19.3077  -42.1869 N.am      9 UNK        -0.5000 
     30 C          -1.3909  -18.9154  -43.3873 C.2       8 UNK         0.5000 
     31 O          -2.0470  -19.6358  -44.1380 O.2       8 UNK        -0.5000 
     32 CA         -0.9787  -17.5095  -43.8593 C.3       8 UNK         0.1400 
     33 CB         -1.9618  -16.4490  -43.3432 C.3       8 UNK        -0.1800 
     34 N           0.3771  -17.1528  -43.4449 N.am      8 UNK        -0.5000 
     35 C           1.4921  -17.8088  -43.7907 C.2       7 UNK         0.5000 
     36 O           1.4970  -18.7882  -44.5348 O.2       7 UNK        -0.5000 
     37 CA          2.7967  -17.3474  -43.1166 C.3       7 UNK         0.1400 
     38 CB          3.3321  -16.0430  -43.7277 C.3       7 UNK        -0.1800 
     39 N           2.5948  -17.1472  -41.6834 N.am      7 UNK        -0.5000 
     40 C           2.5348  -18.1297  -40.7759 C.2       6 UNK         0.5000 
     41 O           2.6768  -19.3209  -41.0506 O.2       6 UNK        -0.5000 
     42 CA          2.2677  -17.7121  -39.3161 C.3       6 UNK         0.1400 
     43 CB          3.5915  -17.5680  -38.5504 C.3       6 UNK        -0.1800 
     44 N           1.5135  -16.4608  -39.2030 N.am      6 UNK        -0.5000 
     45 C           0.2089  -16.3391  -39.4832 C.2       5 UNK         0.5000 
     46 O          -0.4989  -17.2740  -39.8589 O.2       5 UNK        -0.5000 
     47 CA         -0.3859  -14.9186  -39.3847 C.3       5 UNK         0.1400 
     48 CB         -0.6887  -14.5568  -37.9228 C.3       5 UNK        -0.1800 
     49 N           0.4530  -13.8710  -39.9857 N.am      5 UNK        -0.5000 
     50 C           0.8712  -13.8797  -41.2581 C.2       4 UNK         0.5000 
     51 O           0.6616  -14.8209  -42.0231 O.2       4 UNK        -0.5000 
     52 CA          1.6899  -12.6725  -41.7577 C.3       4 UNK         0.1400 
     53 CB          3.1279  -12.7402  -41.2199 C.3       4 UNK        -0.1800 
     54 N           1.7420  -12.6589  -43.2221 N.am      4 UNK        -0.5000 
     55 C           0.6979  -12.3968  -44.0204 C.2       3 UNK         0.5000 
     56 O          -0.3602  -11.9141  -43.6116 O.2       3 UNK        -0.5000 
     57 CA          0.8401  -12.7883  -45.5087 C.3       3 UNK         0.1400 
     58 CB          0.0040  -11.8906  -46.4445 C.3       3 UNK        -0.1800 
     59 N           2.2226  -12.8970  -45.9918 N.am      3 UNK        -0.5000 
     60 C           3.1286  -11.9096  -46.0877 C.2       2 UNK         0.5000 
     61 O           2.9421  -10.7627  -45.6802 O.2       2 UNK        -0.5000 
     62 CA          4.4749  -12.2547  -46.7599 C.3       2 UNK         0.1400 
     63 CB          5.5345  -12.5706  -45.6925 C.3       2 UNK        -0.1800 
     64 N           4.3950  -13.3820  -47.6917 N.am      2 UNK        -0.5000 
     65 C           3.6708  -13.4156  -48.8211 C.2       1 UNK         0.5000 
     66 O           3.0784  -12.4341  -49.2709 O.2       1 UNK        -0.5000 
     67 C          -1.9689  -21.8259  -47.0643 C.2       11 UNK         0.5000 
     68 O          -2.4679  -22.3375  -48.0692 O.2       11 UNK        -0.5000 
     69 N          -2.5146  -21.9158  -45.8435 N.am      12 UNK        -0.5000 
     70 CA         -3.6947  -22.7077  -45.4915 C.3       12 UNK         0.1400 
     71 CB         -4.0244  -22.5021  -44.0065 C.3       12 UNK        -0.1800 
     72 C          -3.5619  -24.2102  -45.8166 C.2       12 UNK         0.5000 
     73 O          -4.5775  -24.8574  -46.0699 O.2       12 UNK        -0.5000 
     74 N          -2.3251  -24.7246  -45.8372 N.am      13 UNK        -0.5000 
     75 CA         -1.9934  -26.0774  -46.2718 C.3       13 UNK         0.1400 
     76 CB         -1.0099  -26.7056  -45.2709 C.3       13 UNK        -0.1800 
     77 C          -1.3970  -26.0605  -47.6890 C.2       13 UNK         0.5000 
     78 O          -1.8791  -26.7887  -48.5559 O.2       13 UNK        -0.5000 
     79 N          -0.3660  -25.2301  -47.9041 N.am      14 UNK        -0.5000 
     80 CA          0.4694  -25.2162  -49.1089 C.3       14 UNK         0.1400 
     81 CB          1.7028  -24.3342  -48.8603 C.3       14 UNK        -0.1800 
     82 C          -0.2587  -24.7760  -50.3915 C.2       14 UNK         0.5000 
     83 O           0.0390  -25.3069  -51.4620 O.2       14 UNK        -0.5000 
     84 N          -1.2002  -23.8338  -50.2619 N.am      15 UNK        -0.5000 
     85 CA         -2.0620  -23.3567  -51.3469 C.3       15 UNK         0.1400 
     86 CB         -1.9165  -21.8280  -51.4608 C.3       15 UNK        -0.1800 
     87 C          -3.5308  -23.7559  -51.1093 C.2       15 UNK         0.5000 
     88 O          -4.4090  -23.2846  -51.8338 O.2       15 UNK        -0.5000 
     89 N          -3.7826  -24.5697  -50.0707 N.am      16 UNK        -0.5000 
     90 CA         -5.0944  -24.9919  -49.5684 C.3       16 UNK         0.1400 
     91 CB         -5.7368  -26.0017  -50.5398 C.3       16 UNK        -0.1800 
     92 C          -6.0150  -23.7994  -49.2211 C.2       16 UNK         0.5000 
     93 O          -7.2162  -23.8476  -49.4888 O.2       16 UNK        -0.5000 
     94 N          -5.4120  -22.7365  -48.6623 N.am      17 UNK        -0.5000 
     95 CA         -6.0185  -21.4368  -48.3463 C.3       17 UNK         0.1400 
     96 CB         -7.1522  -21.5782  -47.3067 C.3       17 UNK        -0.1800 
     97 C          -6.4460  -20.6587  -49.6090 C.2       17 UNK         0.5000 
     98 O          -7.4467  -19.9409  -49.5819 O.2       17 UNK        -0.5000 
     99 N          -5.6600  -20.8176  -50.6845 N.am      18 UNK        -0.5000 
    100 CA        -5.8552  -20.2752  -52.0300 C.3       18 UNK         0.1400 
    101 CB        -5.7986  -18.7333  -52.0316 C.3       18 UNK        -0.1800 
    102 C         -7.1235  -20.8475  -52.6852 C.2       18 UNK         0.5000 
    103 O         -8.0452  -20.1024  -53.0248 O.2       18 UNK        -0.5000 
    104 N         -7.1497  -22.1797  -52.8226 N.am      19 UNK        -0.5000 
    105 CA        -8.2199  -22.9394  -53.4671 C.3       19 UNK         0.1400 
    106 CB        -8.0270  -24.4342  -53.1679 C.3       19 UNK        -0.1800 
    107 C         -8.2562  -22.6572  -54.9812 C.2       19 UNK         0.5000 
    108 O         -7.5075  -23.2748  -55.7395 O.2       19 UNK        -0.5000 
    109 N         -9.0824  -21.6783  -55.3739 N.am      20 UNK        -0.5000 
    110 CA        -9.2792  -21.1039  -56.7133 C.3       20 UNK         0.1400 
    111 CB        -9.6834  -22.1772  -57.7428 C.3       20 UNK        -0.1800 
    112 C         -8.1026  -20.2472  -57.2282 C.2       20 UNK         0.5000 
    113 O         -8.3402  -19.2934  -57.9708 O.2       20 UNK        -0.5000 
    114 N         -6.8719  -20.5685  -56.8210 N.am      21 UNK        -0.5000 
    115 CA        -5.6381  -19.8620  -57.1429 C.3       21 UNK         0.1400 
    116 CB        -5.1751  -20.2425  -58.5627 C.3       21 UNK        -0.1800 
    117 C         -4.5716  -20.2174  -56.0954 C.2       21 UNK         0.5000 
    118 O         -4.7693  -21.1413  -55.3018 O.2       21 UNK        -0.5000 
    119 N         -3.4541  -19.4867  -56.1216 N.am      22 UNK        -0.5000 
    120 CA        -2.2895  -19.6972  -55.2462 C.3       22 UNK         0.1400 
    121 C         -0.9201  -19.4740  -55.9538 C.2       22 UNK         0.5000 
    122 N         -0.8676  -19.3315  -57.2736 N.am      22 UNK        -0.7600 
    123 O          0.1215  -19.4611  -55.3047 O.2       22 UNK        -0.5000 
    124 C124       -2.4237  -18.9473  -53.8947 C.3       23 UNK        -0.0398 
    125 S125       -2.6101  -17.1366  -54.0562 S.3       23 UNK        -0.2404 
    126 C126       -2.2043  -16.5745  -52.3700 C.3       23 UNK        -0.0205 
    127 H127        3.3114  -18.1456  -46.4053 H         1 UNK         0.0600 
    128 H128        4.9275  -17.4333  -46.4550 H         1 UNK         0.0600 
    129 H129        4.3138  -18.3513  -47.8374 H         1 UNK         0.0600 
    130 H130        4.7875  -16.4525  -49.1554 H         1 UNK         0.3000 
    131 H131        2.5016  -14.9432  -49.7271 H         1 UNK         0.0600 
    132 H132        5.1579  -14.0895  -50.9143 H         1 UNK         0.0800 
    133 H133        4.6806  -15.7288  -51.1846 H         1 UNK         0.0800 
    134 H134        3.6177  -16.4653  -53.1090 H         1 UNK         0.0800 
    135 H135        2.4304  -15.6388  -54.0713 H         1 UNK         0.0800 
    136 H136        0.0704  -15.4486  -53.3420 H         1 UNK         0.1150 
    137 H137       -1.2955  -18.4268  -50.5830 H         1 UNK         0.1150 
    138 H138        2.9077  -17.7604  -51.1108 H         1 UNK         0.1150 
    139 H139        0.5619  -20.2100  -49.9970 H         1 UNK         0.0800 
    140 H140        2.1846  -19.6125  -49.8027 H         1 UNK         0.0800 
    141 H141       -1.4041  -19.6271  -48.5738 H         1 UNK         0.0800 
    142 H142       -1.3264  -19.0669  -46.9232 H         1 UNK         0.0800 
    143 H143       -0.0539  -21.6432  -47.9495 H         1 UNK         0.0600 
    144 H144        0.4613  -20.3307  -45.5051 H         1 UNK         0.3000 
    145 H145        1.4607  -23.2615  -43.6483 H         1 UNK         0.0600 
    146 H146        3.3843  -21.6577  -43.3559 H         1 UNK         0.0600 
    147 H147        3.4207  -22.5354  -44.8781 H         1 UNK         0.0600 
    148 H148        2.9195  -20.8562  -44.8550 H         1 UNK         0.0600 
    149 H149        1.0049  -20.4012  -43.1541 H         1 UNK         0.3000 
    150 H150       -2.1617  -20.9028  -41.6754 H         1 UNK         0.0600 
    151 H151       -0.8086  -21.6449  -39.7178 H         1 UNK         0.0600 
    152 H152       -1.2456  -19.9499  -39.5775 H         1 UNK         0.0600 
    153 H153        0.3898  -20.4037  -40.0553 H         1 UNK         0.0600 
    154 H154       -0.4544  -18.6336  -41.6074 H         1 UNK         0.3000 
    155 H155       -1.0042  -17.5023  -44.9507 H         1 UNK         0.0600 
    156 H156       -1.9540  -16.3914  -42.2539 H         1 UNK         0.0600 
    157 H157       -2.9819  -16.6754  -43.6555 H         1 UNK         0.0600 
    158 H158       -1.7128  -15.4605  -43.7302 H         1 UNK         0.0600 
    159 H159        0.4633  -16.3370  -42.8388 H         1 UNK         0.3000 
    160 H160        3.5512  -18.1244  -43.2584 H         1 UNK         0.0600 
    161 H161        2.5541  -15.2879  -43.8295 H         1 UNK         0.0600 
    162 H162        3.7404  -16.2208  -44.7180 H         1 UNK         0.0600 
    163 H163        4.1380  -15.6210  -43.1272 H         1 UNK         0.0600 
    164 H164        2.3882  -16.2052  -41.3852 H         1 UNK         0.3000 
    165 H165        1.6873  -18.5086  -38.8456 H         1 UNK         0.0600 
    166 H166        3.4162  -17.3430  -37.4982 H         1 UNK         0.0600 
    167 H167        4.1691  -18.4925  -38.5919 H         1 UNK         0.0600 
    168 H168        4.2130  -16.7736  -38.9657 H         1 UNK         0.0600 
    169 H169        2.0247  -15.6412  -38.9095 H         1 UNK         0.3000 
    170 H170       -1.3311  -14.9283  -39.9315 H         1 UNK         0.0600 
    171 H171       -1.3217  -15.3128  -37.4562 H         1 UNK         0.0600 
    172 H172        0.2227  -14.4793  -37.3287 H         1 UNK         0.0600 
    173 H173       -1.2169  -13.6058  -37.8532 H         1 UNK         0.0600 
    174 H174        0.6720  -13.0773  -39.4009 H         1 UNK         0.3000 
    175 H175        1.2148  -11.7538  -41.4081 H         1 UNK         0.0600 
    176 H176        3.6326  -13.6566  -41.5283 H         1 UNK         0.0600 
    177 H177        3.7204  -11.8967  -41.5750 H         1 UNK         0.0600 
    178 H178        3.1432  -12.7082  -40.1298 H         1 UNK         0.0600 
    179 H179        2.5628  -13.0613  -43.6466 H         1 UNK         0.3000 
    180 H180        0.4305  -13.7971  -45.5802 H         1 UNK         0.0600 
    181 H181        0.3054  -10.8449  -46.3782 H         1 UNK         0.0600 
    182 H182       -1.0562  -11.9414  -46.1943 H         1 UNK         0.0600 
    183 H183        0.1052  -12.2038  -47.4838 H         1 UNK         0.0600 
    184 H184        2.4755  -13.8110  -46.3556 H         1 UNK         0.3000 
    185 H185        4.7988  -11.3759  -47.3212 H         1 UNK         0.0600 
    186 H186        5.6418  -11.7424  -44.9907 H         1 UNK         0.0600 
    187 H187        5.2723  -13.4582  -45.1150 H         1 UNK         0.0600 
    188 H188        6.5121  -12.7399  -46.1443 H         1 UNK         0.0600 
    189 H189        4.8464  -14.2371  -47.4028 H         1 UNK         0.3000 
    190 H190       -2.0955  -21.3736  -45.0945 H         1 UNK         0.3000 
    191 H191       -4.5287  -22.3187  -46.0715 H         1 UNK         0.0600 
    192 H192       -3.2315  -22.8818  -43.3631 H         1 UNK         0.0600 
    193 H193       -4.9430  -23.0242  -43.7358 H         1 UNK         0.0600 
    194 H194       -4.1710  -21.4470  -43.7748 H         1 UNK         0.0600 
    195 H195       -1.5410  -24.1145  -45.6380 H         1 UNK         0.3000 
    196 H196       -2.8881  -26.7031  -46.2941 H         1 UNK         0.0600 
    197 H197       -0.7314  -27.7145  -45.5778 H         1 UNK         0.0600 
    198 H198       -1.4561  -26.7790  -44.2790 H         1 UNK         0.0600 
    199 H199       -0.0919  -26.1239  -45.1792 H         1 UNK         0.0600 
    200 H200       -0.0446  -24.6427  -47.1363 H         1 UNK         0.3000 
    201 H201        0.8183  -26.2381  -49.2718 H         1 UNK         0.0600 
    202 H202        2.2711  -24.6845  -47.9984 H         1 UNK         0.0600 
    203 H203        1.4282  -23.2956  -48.6787 H         1 UNK         0.0600 
    204 H204        2.3742  -24.3497  -49.7198 H         1 UNK         0.0600 
    205 H205       -1.4027  -23.4532  -49.3435 H         1 UNK         0.3000 
    206 H206       -1.7687  -23.7968  -52.3018 H         1 UNK         0.0600 
    207 H207       -0.8812  -21.5446  -51.6500 H         1 UNK         0.0600 
    208 H208       -2.5113  -21.4424  -52.2887 H         1 UNK         0.0600 
    209 H209       -2.2441  -21.3177  -50.5549 H         1 UNK         0.0600 
    210 H210       -2.9875  -24.9313  -49.5624 H         1 UNK         0.3000 
    211 H211       -4.9118  -25.5166  -48.6305 H         1 UNK         0.0600 
    212 H212       -5.9149  -25.5603  -51.5190 H         1 UNK         0.0600 
    213 H213       -6.6924  -26.3652  -50.1604 H         1 UNK         0.0600 
    214 H214       -5.0938  -26.8705  -50.6801 H         1 UNK         0.0600 
    215 H215       -4.4096  -22.7917  -48.5111 H         1 UNK         0.3000 
    216 H216       -5.2277  -20.8421  -47.8870 H         1 UNK         0.0600 
    217 H217       -7.4556  -20.6013  -46.9288 H         1 UNK         0.0600 
    218 H218       -6.8411  -22.1745  -46.4496 H         1 UNK         0.0600 
    219 H219       -8.0383  -22.0484  -47.7337 H         1 UNK         0.0600 
    220 H220       -4.9222  -21.5051  -50.6156 H         1 UNK         0.3000 
    221 H221       -5.0168  -20.6373  -52.6245 H         1 UNK         0.0600 
    222 H222       -6.6491  -18.2899  -51.5134 H         1 UNK         0.0600 
    223 H223       -4.8904  -18.3734  -51.5502 H         1 UNK         0.0600 
    224 H224       -5.8021  -18.3485  -53.0521 H         1 UNK         0.0600 
    225 H225       -6.3325  -22.7055  -52.5308 H         1 UNK         0.3000 
    226 H226       -9.1733  -22.6336  -53.0311 H         1 UNK         0.0600 
    227 H227       -8.0961  -24.6305  -52.0979 H         1 UNK         0.0600 
    228 H228       -8.7959  -25.0329  -53.6576 H         1 UNK         0.0600 
    229 H229       -7.0580  -24.7938  -53.5163 H         1 UNK         0.0600 
    230 H230       -9.5687  -21.1815  -54.6387 H         1 UNK         0.3000 
    231 H231      -10.1256  -20.4232  -56.6097 H         1 UNK         0.0600 
    232 H232      -10.5394  -22.7558  -57.3958 H         1 UNK         0.0600 
    233 H233       -8.8693  -22.8714  -57.9524 H         1 UNK         0.0600 
    234 H234       -9.9650  -21.7165  -58.6904 H         1 UNK         0.0600 
    235 H235       -6.7494  -21.3717  -56.2114 H         1 UNK         0.3000 
    236 H236       -5.8188  -18.7864  -57.0894 H         1 UNK         0.0600 
    237 H237       -4.2578  -19.7200  -58.8351 H         1 UNK         0.0600 
    238 H238       -4.9819  -21.3128  -58.6456 H         1 UNK         0.0600 
    239 H239       -5.9246  -19.9805  -59.3096 H         1 UNK         0.0600 
    240 H240       -3.3767  -18.7146  -56.7678 H         1 UNK         0.3000 
    241 H241       -2.2578  -20.7608  -55.0018 H         1 UNK         0.0600 
    242 H242        0.0300  -19.1975  -57.7129 H         1 UNK         0.3800 
    243 H243       -1.6913  -19.4086  -57.8469 H         1 UNK         0.3800 
    244 H244       -3.2915  -19.3215  -53.3568 H         1 UNK         0.0800 
    245 H245       -1.5672  -19.1775  -53.2612 H         1 UNK         0.0800 
    246 H246       -2.9006  -17.0233  -51.6608 H         1 UNK         0.0800 
    247 H247       -2.3603  -15.4966  -52.3102 H         1 UNK         0.0800 
@<TRIPOS>BOND
     1    1    2 1    
     2    1  127 1    
     3    1  128 1    
     4    1  129 1    
     5    2    3 2    
     6    2    4 am   BACKBONE|DICT|INTERRES
     7    4    5 1    
     8    4  130 1    
     9    5    6 1    
    10    5   65 1    
    11    5  131 1    
    12    6    7 1    
    13    6  132 1    
    14    6  133 1    
    15    7    8 1    
    16    8    9 1    
    17    8  134 1    
    18    8  135 1    
    19    9   10 ar   
    20    9   14 ar   
    21   10   11 ar   
    22   10  136 1    
    23   11   12 ar   
    24   11  126 1    
    25   12   13 ar   
    26   12  137 1    
    27   13   14 ar   
    28   13   15 1    
    29   14  138 1    
    30   15   16 1    
    31   15  139 1    
    32   15  140 1    
    33   16   17 1    
    34   17   18 1    
    35   17  141 1    
    36   17  142 1    
    37   18   19 1    
    38   18   67 1    
    39   18  143 1    
    40   19   20 am   BACKBONE|DICT|INTERRES
    41   19  144 1    
    42   20   21 2    
    43   20   22 1    
    44   22   23 1    
    45   22   24 1    
    46   22  145 1    
    47   23  146 1    
    48   23  147 1    
    49   23  148 1    
    50   24   25 am   BACKBONE|DICT|INTERRES
    51   24  149 1    
    52   25   26 2    
    53   25   27 1    
    54   27   28 1    
    55   27   29 1    
    56   27  150 1    
    57   28  151 1    
    58   28  152 1    
    59   28  153 1    
    60   29   30 am   BACKBONE|DICT|INTERRES
    61   29  154 1    
    62   30   31 2    
    63   30   32 1    
    64   32   33 1    
    65   32   34 1    
    66   32  155 1    
    67   33  156 1    
    68   33  157 1    
    69   33  158 1    
    70   34   35 am   BACKBONE|DICT|INTERRES
    71   34  159 1    
    72   35   36 2    
    73   35   37 1    
    74   37   38 1    
    75   37   39 1    
    76   37  160 1    
    77   38  161 1    
    78   38  162 1    
    79   38  163 1    
    80   39   40 am   BACKBONE|DICT|INTERRES
    81   39  164 1    
    82   40   41 2    
    83   40   42 1    
    84   42   43 1    
    85   42   44 1    
    86   42  165 1    
    87   43  166 1    
    88   43  167 1    
    89   43  168 1    
    90   44   45 am   BACKBONE|DICT|INTERRES
    91   44  169 1    
    92   45   46 2    
    93   45   47 1    
    94   47   48 1    
    95   47   49 1    
    96   47  170 1    
    97   48  171 1    
    98   48  172 1    
    99   48  173 1    
   100   49   50 am   BACKBONE|DICT|INTERRES
   101   49  174 1    
   102   50   51 2    
   103   50   52 1    
   104   52   53 1    
   105   52   54 1    
   106   52  175 1    
   107   53  176 1    
   108   53  177 1    
   109   53  178 1    
   110   54   55 am   BACKBONE|DICT|INTERRES
   111   54  179 1    
   112   55   56 2    
   113   55   57 1    
   114   57   58 1    
   115   57   59 1    
   116   57  180 1    
   117   58  181 1    
   118   58  182 1    
   119   58  183 1    
   120   59   60 am   BACKBONE|DICT|INTERRES
   121   59  184 1    
   122   60   61 2    
   123   60   62 1    
   124   62   63 1    
   125   62   64 1    
   126   62  185 1    
   127   63  186 1    
   128   63  187 1    
   129   63  188 1    
   130   64   65 am   BACKBONE|DICT|INTERRES
   131   64  189 1    
   132   65   66 2    
   133   67   68 2    
   134   67   69 am   BACKBONE|DICT|INTERRES
   135   69   70 1    
   136   69  190 1    
   137   70   71 1    
   138   70   72 1    
   139   70  191 1    
   140   71  192 1    
   141   71  193 1    
   142   71  194 1    
   143   72   73 2    
   144   72   74 am   BACKBONE|DICT|INTERRES
   145   74   75 1    
   146   74  195 1    
   147   75   76 1    
   148   75   77 1    
   149   75  196 1    
   150   76  197 1    
   151   76  198 1    
   152   76  199 1    
   153   77   78 2    
   154   77   79 am   BACKBONE|DICT|INTERRES
   155   79   80 1    
   156   79  200 1    
   157   80   81 1    
   158   80   82 1    
   159   80  201 1    
   160   81  202 1    
   161   81  203 1    
   162   81  204 1    
   163   82   83 2    
   164   82   84 am   BACKBONE|DICT|INTERRES
   165   84   85 1    
   166   84  205 1    
   167   85   86 1    
   168   85   87 1    
   169   85  206 1    
   170   86  207 1    
   171   86  208 1    
   172   86  209 1    
   173   87   88 2    
   174   87   89 am   BACKBONE|DICT|INTERRES
   175   89   90 1    
   176   89  210 1    
   177   90   91 1    
   178   90   92 1    
   179   90  211 1    
   180   91  212 1    
   181   91  213 1    
   182   91  214 1    
   183   92   93 2    
   184   92   94 am   BACKBONE|DICT|INTERRES
   185   94   95 1    
   186   94  215 1    
   187   95   96 1    
   188   95   97 1    
   189   95  216 1    
   190   96  217 1    
   191   96  218 1    
   192   96  219 1    
   193   97   98 2    
   194   97   99 am   BACKBONE|DICT|INTERRES
   195   99  100 1    
   196   99  220 1    
   197  100  101 1    
   198  100  102 1    
   199  100  221 1    
   200  101  222 1    
   201  101  223 1    
   202  101  224 1    
   203  102  103 2    
   204  102  104 am   BACKBONE|DICT|INTERRES
   205  104  105 1    
   206  104  225 1    
   207  105  106 1    
   208  105  107 1    
   209  105  226 1    
   210  106  227 1    
   211  106  228 1    
   212  106  229 1    
   213  107  108 2    
   214  107  109 am   BACKBONE|DICT|INTERRES
   215  109  110 1    
   216  109  230 1    
   217  110  111 1    
   218  110  112 1    
   219  110  231 1    
   220  111  232 1    
   221  111  233 1    
   222  111  234 1    
   223  112  113 2    
   224  112  114 am   BACKBONE|DICT|INTERRES
   225  114  115 1    
   226  114  235 1    
   227  115  116 1    
   228  115  117 1    
   229  115  236 1    
   230  116  237 1    
   231  116  238 1    
   232  116  239 1    
   233  117  118 2    
   234  117  119 am   BACKBONE|DICT|INTERRES
   235  119  120 1    
   236  119  240 1    
   237  120  121 1    
   238  120  124 1    
   239  120  241 1    
   240  121  122 am   BACKBONE|DICT|INTERRES
   241  121  123 2    
   242  122  242 1    
   243  122  243 1    
   244  124  125 1    
   245  124  244 1    
   246  124  245 1    
   247  125  126 1    
   248  126  246 1    
   249  126  247 1    
@<TRIPOS>SUBSTRUCTURE
     1 UNK         1 GROUP             0       ****    0 ROOT    
