@<TRIPOS>MOLECULE
3R540
247   249    1
SMALL
USER_CHARGES


@<TRIPOS>ATOM
      1 CA          5.0156  -10.8070  -52.7068 C.3       0 UNK        -0.1800 
      2 C           4.3936  -10.7115  -51.3206 C.2       0 UNK         0.5000 
      3 O           3.8147   -9.6798  -50.9779 O.2       0 UNK        -0.5000 
      4 N           4.5196  -11.7769  -50.5213 N.am      1 UNK        -0.5000 
      5 CA          3.9233  -11.9095  -49.1889 C.3       1 UNK         0.1400 
      6 C6          4.5990  -13.0344  -48.3614 C.3       23 UNK        -0.0398 
      7 S7          4.7122  -14.6468  -49.2127 S.3       23 UNK        -0.2404 
      8 C8          3.3741  -15.5680  -48.4002 C.3       23 UNK        -0.0205 
      9 C9          3.0720  -16.8501  -49.1545 C.ar      23 UNK        -0.0193 
     10 C10         2.2103  -16.8210  -50.2541 C.ar      23 UNK        -0.1150 
     11 C11         1.9048  -17.9937  -50.9485 C.ar      23 UNK        -0.0193 
     12 C12         2.4749  -19.2026  -50.5400 C.ar      23 UNK        -0.1150 
     13 C13         3.3497  -19.2421  -49.4487 C.ar      23 UNK        -0.0193 
     14 C14         3.6440  -18.0622  -48.7586 C.ar      23 UNK        -0.1150 
     15 C15         3.9887  -20.5570  -49.0241 C.3       23 UNK        -0.0205 
     16 S16         3.2685  -21.2063  -47.4842 S.3       23 UNK        -0.2404 
     17 C17         1.5206  -21.3961  -47.9627 C.3       23 UNK        -0.0398 
     18 CA          0.8069  -22.5423  -47.2116 C.3       11 UNK         0.1400 
     19 N           0.8768  -22.3953  -45.7545 N.am      11 UNK        -0.5000 
     20 C           0.4840  -23.3090  -44.8575 C.2       10 UNK         0.5000 
     21 O           0.0284  -24.4086  -45.1757 O.2       10 UNK        -0.5000 
     22 CA          0.5336  -22.9042  -43.3693 C.3       10 UNK         0.1400 
     23 CB          0.9095  -24.0811  -42.4464 C.3       10 UNK        -0.1800 
     24 N           1.3564  -21.7187  -43.1002 N.am      10 UNK        -0.5000 
     25 C           2.6895  -21.5942  -43.1956 C.2       9 UNK         0.5000 
     26 O           3.4429  -22.5203  -43.4969 O.2       9 UNK        -0.5000 
     27 CA          3.2932  -20.1979  -42.9267 C.3       9 UNK         0.1400 
     28 CB          3.9208  -19.6251  -44.2075 C.3       9 UNK        -0.1800 
     29 N           2.3270  -19.2257  -42.4115 N.am      9 UNK        -0.5000 
     30 C           1.8606  -19.1824  -41.1569 C.2       8 UNK         0.5000 
     31 O           2.2433  -19.9325  -40.2586 O.2       8 UNK        -0.5000 
     32 CA          0.7464  -18.1551  -40.8712 C.3       8 UNK         0.1400 
     33 CB          1.3459  -16.7859  -40.5182 C.3       8 UNK        -0.1800 
     34 N          -0.1996  -18.0057  -41.9824 N.am      8 UNK        -0.5000 
     35 C          -0.9993  -18.9828  -42.4351 C.2       7 UNK         0.5000 
     36 O          -1.0391  -20.1126  -41.9484 O.2       7 UNK        -0.5000 
     37 CA         -1.8587  -18.6719  -43.6720 C.3       7 UNK         0.1400 
     38 CB         -3.1132  -17.8707  -43.2965 C.3       7 UNK        -0.1800 
     39 N          -1.1120  -17.9689  -44.7131 N.am      7 UNK        -0.5000 
     40 C          -0.0866  -18.4925  -45.3986 C.2       6 UNK         0.5000 
     41 O           0.2899  -19.6569  -45.2740 O.2       6 UNK        -0.5000 
     42 CA          0.6626  -17.5494  -46.3575 C.3       6 UNK         0.1400 
     43 CB         -0.1089  -17.4076  -47.6763 C.3       6 UNK        -0.1800 
     44 N           0.8799  -16.2238  -45.7751 N.am      6 UNK        -0.5000 
     45 C           1.5929  -15.9847  -44.6650 C.2       5 UNK         0.5000 
     46 O           2.2101  -16.8506  -44.0484 O.2       5 UNK        -0.5000 
     47 CA          1.5595  -14.5493  -44.1153 C.3       5 UNK         0.1400 
     48 CB          2.6086  -13.6653  -44.8047 C.3       5 UNK        -0.1800 
     49 N           0.2322  -13.9509  -44.2558 N.am      5 UNK        -0.5000 
     50 C          -0.8347  -14.3102  -43.5274 C.2       4 UNK         0.5000 
     51 O          -0.7927  -15.1449  -42.6236 O.2       4 UNK        -0.5000 
     52 CA         -2.1803  -13.6605  -43.9032 C.3       4 UNK         0.1400 
     53 CB         -2.3210  -12.2833  -43.2382 C.3       4 UNK        -0.1800 
     54 N          -2.3488  -13.5192  -45.3508 N.am      4 UNK        -0.5000 
     55 C          -2.4771  -14.5482  -46.2012 C.2       3 UNK         0.5000 
     56 O          -2.5440  -15.7209  -45.8381 O.2       3 UNK        -0.5000 
     57 CA         -2.4775  -14.2186  -47.7084 C.3       3 UNK         0.1400 
     58 CB         -3.9137  -14.0395  -48.2215 C.3       3 UNK        -0.1800 
     59 N          -1.6881  -13.0298  -48.0487 N.am      3 UNK        -0.5000 
     60 C          -0.3716  -12.9007  -47.8351 C.2       2 UNK         0.5000 
     61 O           0.3243  -13.7853  -47.3325 O.2       2 UNK        -0.5000 
     62 CA          0.2317  -11.5195  -48.1500 C.3       2 UNK         0.1400 
     63 CB         -0.1584  -10.5147  -47.0528 C.3       2 UNK        -0.1800 
     64 N           1.6915  -11.5385  -48.2515 N.am      2 UNK        -0.5000 
     65 C           2.3862  -12.0649  -49.2677 C.2       1 UNK         0.5000 
     66 O           1.8653  -12.6292  -50.2339 O.2       1 UNK        -0.5000 
     67 C          -0.6542  -22.6403  -47.6876 C.2       11 UNK         0.5000 
     68 O          -0.9454  -23.3953  -48.6138 O.2       11 UNK        -0.5000 
     69 N          -1.5474  -21.9083  -47.0049 N.am      12 UNK        -0.5000 
     70 CA         -2.9959  -21.9224  -47.2048 C.3       12 UNK         0.1400 
     71 CB         -3.6322  -20.9344  -46.2158 C.3       12 UNK        -0.1800 
     72 C          -3.6163  -23.3194  -47.0189 C.2       12 UNK         0.5000 
     73 O          -4.4788  -23.7157  -47.8062 O.2       12 UNK        -0.5000 
     74 N          -3.1423  -24.0301  -45.9864 N.am      13 UNK        -0.5000 
     75 CA         -3.5525  -25.3868  -45.6363 C.3       13 UNK         0.1400 
     76 CB         -3.2499  -25.6398  -44.1515 C.3       13 UNK        -0.1800 
     77 C          -2.8666  -26.4421  -46.5182 C.2       13 UNK         0.5000 
     78 O          -3.5127  -27.4212  -46.8890 O.2       13 UNK        -0.5000 
     79 N          -1.5889  -26.2172  -46.8609 N.am      14 UNK        -0.5000 
     80 CA         -0.8014  -27.0788  -47.7469 C.3       14 UNK         0.1400 
     81 CB          0.6690  -26.6364  -47.7281 C.3       14 UNK        -0.1800 
     82 C          -1.3462  -27.1017  -49.1870 C.2       14 UNK         0.5000 
     83 O          -1.4386  -28.1743  -49.7852 O.2       14 UNK        -0.5000 
     84 N          -1.7330  -25.9252  -49.7008 N.am      15 UNK        -0.5000 
     85 CA         -2.4305  -25.7697  -50.9788 C.3       15 UNK         0.1400 
     86 CB         -2.3634  -24.2956  -51.4114 C.3       15 UNK        -0.1800 
     87 C          -3.8990  -26.2310  -50.9102 C.2       15 UNK         0.5000 
     88 O          -4.4661  -26.5903  -51.9423 O.2       15 UNK        -0.5000 
     89 N          -4.4809  -26.1880  -49.7006 N.am      16 UNK        -0.5000 
     90 CA         -5.8812  -26.4641  -49.3606 C.3       16 UNK         0.1400 
     91 CB         -6.2115  -27.9564  -49.5667 C.3       16 UNK        -0.1800 
     92 C          -6.8483  -25.5145  -50.0974 C.2       16 UNK         0.5000 
     93 O          -7.9056  -25.9394  -50.5676 O.2       16 UNK        -0.5000 
     94 N          -6.4347  -24.2463  -50.2106 N.am      17 UNK        -0.5000 
     95 CA         -7.0644  -23.2317  -51.0560 C.3       17 UNK         0.1400 
     96 CB         -6.2250  -23.0709  -52.3362 C.3       17 UNK        -0.1800 
     97 C          -7.2409  -21.8869  -50.3330 C.2       17 UNK         0.5000 
     98 O          -7.5394  -20.8911  -50.9923 O.2       17 UNK        -0.5000 
     99 N          -7.0161  -21.8516  -49.0091 N.am      18 UNK        -0.5000 
    100 CA        -7.1717  -20.6840  -48.1246 C.3       18 UNK         0.1400 
    101 CB        -8.6625  -20.3048  -48.0020 C.3       18 UNK        -0.1800 
    102 C         -6.2918  -19.4708  -48.5151 C.2       18 UNK         0.5000 
    103 O         -6.6295  -18.3353  -48.1796 O.2       18 UNK        -0.5000 
    104 N         -5.1960  -19.7418  -49.2431 N.am      19 UNK        -0.5000 
    105 CA        -4.2794  -18.7877  -49.8805 C.3       19 UNK         0.1400 
    106 CB        -3.5319  -17.9380  -48.8342 C.3       19 UNK        -0.1800 
    107 C         -4.9286  -17.9338  -50.9941 C.2       19 UNK         0.5000 
    108 O         -4.3611  -16.9138  -51.3854 O.2       19 UNK        -0.5000 
    109 N         -6.0820  -18.3720  -51.5204 N.am      20 UNK        -0.5000 
    110 CA        -6.7739  -17.7208  -52.6343 C.3       20 UNK         0.1400 
    111 CB        -8.2753  -18.0363  -52.5482 C.3       20 UNK        -0.1800 
    112 C         -6.2115  -18.1455  -54.0044 C.2       20 UNK         0.5000 
    113 O         -6.4288  -17.4338  -54.9855 O.2       20 UNK        -0.5000 
    114 N         -5.5205  -19.2956  -54.0521 N.am      21 UNK        -0.5000 
    115 CA        -4.9180  -19.8745  -55.2548 C.3       21 UNK         0.1400 
    116 CB        -4.4137  -21.3018  -54.9802 C.3       21 UNK        -0.1800 
    117 C         -3.8647  -18.9746  -55.9441 C.2       21 UNK         0.5000 
    118 O         -4.0391  -18.6842  -57.1268 O.2       21 UNK        -0.5000 
    119 N         -2.8208  -18.4685  -55.2707 N.am      22 UNK        -0.5000 
    120 CA        -2.2321  -18.8939  -53.9917 C.3       22 UNK         0.1400 
    121 C         -1.2440  -20.0741  -54.2265 C.2       22 UNK         0.5000 
    122 N         -1.1856  -21.0400  -53.3197 N.am      22 UNK        -0.7600 
    123 O         -0.5124  -20.1092  -55.2135 O.2       22 UNK        -0.5000 
    124 C124       -1.5357  -17.6779  -53.3250 C.3       23 UNK        -0.0398 
    125 S125       -0.7709  -17.9983  -51.6936 S.3       23 UNK        -0.2404 
    126 C126        0.9888  -17.9405  -52.1596 C.3       23 UNK        -0.0205 
    127 H127        5.5021  -11.7696  -52.8672 H         1 UNK         0.0600 
    128 H128        4.2487  -10.6824  -53.4712 H         1 UNK         0.0600 
    129 H129        5.7614  -10.0231  -52.8388 H         1 UNK         0.0600 
    130 H130        4.9731  -12.6104  -50.8682 H         1 UNK         0.3000 
    131 H131        4.1189  -10.9724  -48.6625 H         1 UNK         0.0600 
    132 H132        4.1118  -13.1561  -47.3942 H         1 UNK         0.0800 
    133 H133        5.6197  -12.7297  -48.1266 H         1 UNK         0.0800 
    134 H134        2.4742  -14.9538  -48.3585 H         1 UNK         0.0800 
    135 H135        3.6496  -15.7851  -47.3669 H         1 UNK         0.0800 
    136 H136        1.7731  -15.8821  -50.5657 H         1 UNK         0.1150 
    137 H137        2.2448  -20.1104  -51.0797 H         1 UNK         0.1150 
    138 H138        4.3157  -18.0901  -47.9120 H         1 UNK         0.1150 
    139 H139        3.8931  -21.3069  -49.8109 H         1 UNK         0.0800 
    140 H140        5.0589  -20.4060  -48.8764 H         1 UNK         0.0800 
    141 H141        1.4716  -21.5763  -49.0382 H         1 UNK         0.0800 
    142 H142        1.0209  -20.4425  -47.7891 H         1 UNK         0.0800 
    143 H143        1.3051  -23.4776  -47.4702 H         1 UNK         0.0600 
    144 H144        1.1490  -21.4785  -45.4165 H         1 UNK         0.3000 
    145 H145       -0.4859  -22.6117  -43.1154 H         1 UNK         0.0600 
    146 H146        0.9343  -23.7708  -41.4018 H         1 UNK         0.0600 
    147 H147        0.1800  -24.8879  -42.5266 H         1 UNK         0.0600 
    148 H148        1.8838  -24.5008  -42.6972 H         1 UNK         0.0600 
    149 H149        0.8315  -20.8904  -42.8479 H         1 UNK         0.3000 
    150 H150        4.0859  -20.3254  -42.1869 H         1 UNK         0.0600 
    151 H151        4.6586  -20.3091  -44.6286 H         1 UNK         0.0600 
    152 H152        4.4293  -18.6815  -44.0095 H         1 UNK         0.0600 
    153 H153        3.1666  -19.4420  -44.9737 H         1 UNK         0.0600 
    154 H154        2.0155  -18.5148  -43.0678 H         1 UNK         0.3000 
    155 H155        0.1843  -18.5113  -40.0055 H         1 UNK         0.0600 
    156 H156        1.9197  -16.3721  -41.3472 H         1 UNK         0.0600 
    157 H157        2.0166  -16.8630  -39.6616 H         1 UNK         0.0600 
    158 H158        0.5671  -16.0687  -40.2585 H         1 UNK         0.0600 
    159 H159       -0.2573  -17.0875  -42.4112 H         1 UNK         0.3000 
    160 H160       -2.1827  -19.6274  -44.0841 H         1 UNK         0.0600 
    161 H161       -3.7608  -17.7284  -44.1619 H         1 UNK         0.0600 
    162 H162       -2.8618  -16.8860  -42.9027 H         1 UNK         0.0600 
    163 H163       -3.6959  -18.3909  -42.5354 H         1 UNK         0.0600 
    164 H164       -1.4191  -17.0269  -44.9370 H         1 UNK         0.3000 
    165 H165        1.6412  -17.9836  -46.5706 H         1 UNK         0.0600 
    166 H166        0.3041  -16.6176  -48.3010 H         1 UNK         0.0600 
    167 H167       -0.0798  -18.3326  -48.2525 H         1 UNK         0.0600 
    168 H168       -1.1540  -17.1651  -47.5010 H         1 UNK         0.0600 
    169 H169        0.4525  -15.4354  -46.2507 H         1 UNK         0.3000 
    170 H170        1.8053  -14.5926  -43.0524 H         1 UNK         0.0600 
    171 H171        3.6083  -14.0864  -44.6904 H         1 UNK         0.0600 
    172 H172        2.4152  -13.5677  -45.8712 H         1 UNK         0.0600 
    173 H173        2.6252  -12.6642  -44.3739 H         1 UNK         0.0600 
    174 H174        0.1041  -13.3150  -45.0290 H         1 UNK         0.3000 
    175 H175       -2.9780  -14.3052  -43.5281 H         1 UNK         0.0600 
    176 H176       -3.3007  -11.8483  -43.4365 H         1 UNK         0.0600 
    177 H177       -2.2142  -12.3608  -42.1554 H         1 UNK         0.0600 
    178 H178       -1.5640  -11.5830  -43.5938 H         1 UNK         0.0600 
    179 H179       -2.3160  -12.5839  -45.7273 H         1 UNK         0.3000 
    180 H180       -2.0346  -15.0683  -48.2304 H         1 UNK         0.0600 
    181 H181       -4.3929  -13.1639  -47.7822 H         1 UNK         0.0600 
    182 H182       -4.5289  -14.9063  -47.9767 H         1 UNK         0.0600 
    183 H183       -3.9333  -13.9275  -49.3058 H         1 UNK         0.0600 
    184 H184       -2.1965  -12.2566  -48.4531 H         1 UNK         0.3000 
    185 H185       -0.1753  -11.1768  -49.1037 H         1 UNK         0.0600 
    186 H186        0.2210  -10.8169  -46.0756 H         1 UNK         0.0600 
    187 H187        0.2344   -9.5214  -47.2711 H         1 UNK         0.0600 
    188 H188       -1.2414  -10.4174  -46.9687 H         1 UNK         0.0600 
    189 H189        2.1913  -11.1101  -47.4867 H         1 UNK         0.3000 
    190 H190       -1.1951  -21.3119  -46.2684 H         1 UNK         0.3000 
    191 H191       -3.1977  -21.5907  -48.2245 H         1 UNK         0.0600 
    192 H192       -3.4726  -21.2441  -45.1825 H         1 UNK         0.0600 
    193 H193       -4.7075  -20.8657  -46.3632 H         1 UNK         0.0600 
    194 H194       -3.2238  -19.9311  -46.3291 H         1 UNK         0.0600 
    195 H195       -2.4053  -23.6284  -45.4269 H         1 UNK         0.3000 
    196 H196       -4.6312  -25.4750  -45.7838 H         1 UNK         0.0600 
    197 H197       -3.5705  -26.6389  -43.8535 H         1 UNK         0.0600 
    198 H198       -3.7754  -24.9274  -43.5154 H         1 UNK         0.0600 
    199 H199       -2.1839  -25.5597  -43.9352 H         1 UNK         0.0600 
    200 H200       -1.1055  -25.4237  -46.4525 H         1 UNK         0.3000 
    201 H201       -0.8538  -28.0959  -47.3529 H         1 UNK         0.0600 
    202 H202        1.0670  -26.6241  -46.7131 H         1 UNK         0.0600 
    203 H203        0.7935  -25.6401  -48.1508 H         1 UNK         0.0600 
    204 H204        1.2872  -27.3184  -48.3129 H         1 UNK         0.0600 
    205 H205       -1.5556  -25.0724  -49.1745 H         1 UNK         0.3000 
    206 H206       -1.9215  -26.3745  -51.7321 H         1 UNK         0.0600 
    207 H207       -1.3307  -23.9599  -51.5072 H         1 UNK         0.0600 
    208 H208       -2.8451  -24.1481  -52.3790 H         1 UNK         0.0600 
    209 H209       -2.8614  -23.6430  -50.6931 H         1 UNK         0.0600 
    210 H210       -3.9125  -25.8650  -48.9308 H         1 UNK         0.3000 
    211 H211       -5.9873  -26.2455  -48.2971 H         1 UNK         0.0600 
    212 H212       -6.1778  -28.2390  -50.6192 H         1 UNK         0.0600 
    213 H213       -7.2103  -28.1901  -49.1966 H         1 UNK         0.0600 
    214 H214       -5.5088  -28.5907  -49.0260 H         1 UNK         0.0600 
    215 H215       -5.5663  -23.9922  -49.7550 H         1 UNK         0.3000 
    216 H216       -8.0687  -23.5487  -51.3431 H         1 UNK         0.0600 
    217 H217       -6.6947  -22.3709  -53.0281 H         1 UNK         0.0600 
    218 H218       -6.1214  -24.0209  -52.8610 H         1 UNK         0.0600 
    219 H219       -5.2230  -22.7008  -52.1167 H         1 UNK         0.0600 
    220 H220       -6.7535  -22.7149  -48.5524 H         1 UNK         0.3000 
    221 H221       -6.8398  -21.0030  -47.1370 H         1 UNK         0.0600 
    222 H222       -9.0570  -19.9057  -48.9372 H         1 UNK         0.0600 
    223 H223       -9.2676  -21.1678  -47.7242 H         1 UNK         0.0600 
    224 H224       -8.8135  -19.5455  -47.2338 H         1 UNK         0.0600 
    225 H225       -5.0400  -20.7115  -49.4739 H         1 UNK         0.3000 
    226 H226       -3.5284  -19.3933  -50.3896 H         1 UNK         0.0600 
    227 H227       -2.9820  -18.5715  -48.1413 H         1 UNK         0.0600 
    228 H228       -2.8033  -17.2811  -49.3103 H         1 UNK         0.0600 
    229 H229       -4.2061  -17.3092  -48.2540 H         1 UNK         0.0600 
    230 H230       -6.5159  -19.2154  -51.1563 H         1 UNK         0.3000 
    231 H231       -6.6544  -16.6388  -52.5467 H         1 UNK         0.0600 
    232 H232       -8.6829  -17.7591  -51.5758 H         1 UNK         0.0600 
    233 H233       -8.4757  -19.0962  -52.7068 H         1 UNK         0.0600 
    234 H234       -8.8327  -17.4830  -53.3050 H         1 UNK         0.0600 
    235 H235       -5.4233  -19.8178  -53.1956 H         1 UNK         0.3000 
    236 H236       -5.7300  -19.9769  -55.9783 H         1 UNK         0.0600 
    237 H237       -3.7424  -21.6462  -55.7681 H         1 UNK         0.0600 
    238 H238       -3.8830  -21.3815  -54.0332 H         1 UNK         0.0600 
    239 H239       -5.2465  -22.0035  -54.9457 H         1 UNK         0.0600 
    240 H240       -2.2105  -17.8665  -55.8021 H         1 UNK         0.3000 
    241 H241       -3.0172  -19.2305  -53.3169 H         1 UNK         0.0600 
    242 H242       -1.7277  -21.0105  -52.4725 H         1 UNK         0.3800 
    243 H243       -0.5402  -21.7997  -53.4666 H         1 UNK         0.3800 
    244 H244       -2.2700  -16.8847  -53.1779 H         1 UNK         0.0800 
    245 H245       -0.7888  -17.2569  -54.0000 H         1 UNK         0.0800 
    246 H246        1.1889  -17.0237  -52.7163 H         1 UNK         0.0800 
    247 H247        1.2106  -18.7663  -52.8374 H         1 UNK         0.0800 
@<TRIPOS>BOND
     1    1    2 1    
     2    1  127 1    
     3    1  128 1    
     4    1  129 1    
     5    2    3 2    
     6    2    4 am   BACKBONE|DICT|INTERRES
     7    4    5 1    
     8    4  130 1    
     9    5    6 1    
    10    5   65 1    
    11    5  131 1    
    12    6    7 1    
    13    6  132 1    
    14    6  133 1    
    15    7    8 1    
    16    8    9 1    
    17    8  134 1    
    18    8  135 1    
    19    9   10 ar   
    20    9   14 ar   
    21   10   11 ar   
    22   10  136 1    
    23   11   12 ar   
    24   11  126 1    
    25   12   13 ar   
    26   12  137 1    
    27   13   14 ar   
    28   13   15 1    
    29   14  138 1    
    30   15   16 1    
    31   15  139 1    
    32   15  140 1    
    33   16   17 1    
    34   17   18 1    
    35   17  141 1    
    36   17  142 1    
    37   18   19 1    
    38   18   67 1    
    39   18  143 1    
    40   19   20 am   BACKBONE|DICT|INTERRES
    41   19  144 1    
    42   20   21 2    
    43   20   22 1    
    44   22   23 1    
    45   22   24 1    
    46   22  145 1    
    47   23  146 1    
    48   23  147 1    
    49   23  148 1    
    50   24   25 am   BACKBONE|DICT|INTERRES
    51   24  149 1    
    52   25   26 2    
    53   25   27 1    
    54   27   28 1    
    55   27   29 1    
    56   27  150 1    
    57   28  151 1    
    58   28  152 1    
    59   28  153 1    
    60   29   30 am   BACKBONE|DICT|INTERRES
    61   29  154 1    
    62   30   31 2    
    63   30   32 1    
    64   32   33 1    
    65   32   34 1    
    66   32  155 1    
    67   33  156 1    
    68   33  157 1    
    69   33  158 1    
    70   34   35 am   BACKBONE|DICT|INTERRES
    71   34  159 1    
    72   35   36 2    
    73   35   37 1    
    74   37   38 1    
    75   37   39 1    
    76   37  160 1    
    77   38  161 1    
    78   38  162 1    
    79   38  163 1    
    80   39   40 am   BACKBONE|DICT|INTERRES
    81   39  164 1    
    82   40   41 2    
    83   40   42 1    
    84   42   43 1    
    85   42   44 1    
    86   42  165 1    
    87   43  166 1    
    88   43  167 1    
    89   43  168 1    
    90   44   45 am   BACKBONE|DICT|INTERRES
    91   44  169 1    
    92   45   46 2    
    93   45   47 1    
    94   47   48 1    
    95   47   49 1    
    96   47  170 1    
    97   48  171 1    
    98   48  172 1    
    99   48  173 1    
   100   49   50 am   BACKBONE|DICT|INTERRES
   101   49  174 1    
   102   50   51 2    
   103   50   52 1    
   104   52   53 1    
   105   52   54 1    
   106   52  175 1    
   107   53  176 1    
   108   53  177 1    
   109   53  178 1    
   110   54   55 am   BACKBONE|DICT|INTERRES
   111   54  179 1    
   112   55   56 2    
   113   55   57 1    
   114   57   58 1    
   115   57   59 1    
   116   57  180 1    
   117   58  181 1    
   118   58  182 1    
   119   58  183 1    
   120   59   60 am   BACKBONE|DICT|INTERRES
   121   59  184 1    
   122   60   61 2    
   123   60   62 1    
   124   62   63 1    
   125   62   64 1    
   126   62  185 1    
   127   63  186 1    
   128   63  187 1    
   129   63  188 1    
   130   64   65 am   BACKBONE|DICT|INTERRES
   131   64  189 1    
   132   65   66 2    
   133   67   68 2    
   134   67   69 am   BACKBONE|DICT|INTERRES
   135   69   70 1    
   136   69  190 1    
   137   70   71 1    
   138   70   72 1    
   139   70  191 1    
   140   71  192 1    
   141   71  193 1    
   142   71  194 1    
   143   72   73 2    
   144   72   74 am   BACKBONE|DICT|INTERRES
   145   74   75 1    
   146   74  195 1    
   147   75   76 1    
   148   75   77 1    
   149   75  196 1    
   150   76  197 1    
   151   76  198 1    
   152   76  199 1    
   153   77   78 2    
   154   77   79 am   BACKBONE|DICT|INTERRES
   155   79   80 1    
   156   79  200 1    
   157   80   81 1    
   158   80   82 1    
   159   80  201 1    
   160   81  202 1    
   161   81  203 1    
   162   81  204 1    
   163   82   83 2    
   164   82   84 am   BACKBONE|DICT|INTERRES
   165   84   85 1    
   166   84  205 1    
   167   85   86 1    
   168   85   87 1    
   169   85  206 1    
   170   86  207 1    
   171   86  208 1    
   172   86  209 1    
   173   87   88 2    
   174   87   89 am   BACKBONE|DICT|INTERRES
   175   89   90 1    
   176   89  210 1    
   177   90   91 1    
   178   90   92 1    
   179   90  211 1    
   180   91  212 1    
   181   91  213 1    
   182   91  214 1    
   183   92   93 2    
   184   92   94 am   BACKBONE|DICT|INTERRES
   185   94   95 1    
   186   94  215 1    
   187   95   96 1    
   188   95   97 1    
   189   95  216 1    
   190   96  217 1    
   191   96  218 1    
   192   96  219 1    
   193   97   98 2    
   194   97   99 am   BACKBONE|DICT|INTERRES
   195   99  100 1    
   196   99  220 1    
   197  100  101 1    
   198  100  102 1    
   199  100  221 1    
   200  101  222 1    
   201  101  223 1    
   202  101  224 1    
   203  102  103 2    
   204  102  104 am   BACKBONE|DICT|INTERRES
   205  104  105 1    
   206  104  225 1    
   207  105  106 1    
   208  105  107 1    
   209  105  226 1    
   210  106  227 1    
   211  106  228 1    
   212  106  229 1    
   213  107  108 2    
   214  107  109 am   BACKBONE|DICT|INTERRES
   215  109  110 1    
   216  109  230 1    
   217  110  111 1    
   218  110  112 1    
   219  110  231 1    
   220  111  232 1    
   221  111  233 1    
   222  111  234 1    
   223  112  113 2    
   224  112  114 am   BACKBONE|DICT|INTERRES
   225  114  115 1    
   226  114  235 1    
   227  115  116 1    
   228  115  117 1    
   229  115  236 1    
   230  116  237 1    
   231  116  238 1    
   232  116  239 1    
   233  117  118 2    
   234  117  119 am   BACKBONE|DICT|INTERRES
   235  119  120 1    
   236  119  240 1    
   237  120  121 1    
   238  120  124 1    
   239  120  241 1    
   240  121  122 am   BACKBONE|DICT|INTERRES
   241  121  123 2    
   242  122  242 1    
   243  122  243 1    
   244  124  125 1    
   245  124  244 1    
   246  124  245 1    
   247  125  126 1    
   248  126  246 1    
   249  126  247 1    
@<TRIPOS>SUBSTRUCTURE
     1 UNK         1 GROUP             0       ****    0 ROOT    
