@<TRIPOS>MOLECULE
3R540
247   249    1
SMALL
USER_CHARGES


@<TRIPOS>ATOM
      1 CA         -6.8859  -14.2684  -47.3185 C.3       0 UNK        -0.1800 
      2 C          -5.3675  -14.2468  -47.2270 C.2       0 UNK         0.5000 
      3 O          -4.7920  -13.2685  -46.7494 O.2       0 UNK        -0.5000 
      4 N          -4.7133  -15.3325  -47.6580 N.am      1 UNK        -0.5000 
      5 CA         -3.2551  -15.5184  -47.6531 C.3       1 UNK         0.1400 
      6 C6         -2.7986  -16.5277  -48.7364 C.3       23 UNK        -0.0398 
      7 S7         -3.0923  -15.9140  -50.4293 S.3       23 UNK        -0.2404 
      8 C8         -1.4903  -15.1616  -50.8799 C.3       23 UNK        -0.0205 
      9 C9         -0.3796  -16.1904  -51.0519 C.ar      23 UNK        -0.0193 
     10 C10        -0.2258  -16.8819  -52.2593 C.ar      23 UNK        -0.1150 
     11 C11         0.7800  -17.8444  -52.4032 C.ar      23 UNK        -0.0193 
     12 C12         1.6351  -18.1090  -51.3303 C.ar      23 UNK        -0.1150 
     13 C13         1.4857  -17.4318  -50.1193 C.ar      23 UNK        -0.0193 
     14 C14         0.4976  -16.4526  -49.9960 C.ar      23 UNK        -0.1150 
     15 C15         2.3384  -17.8119  -48.9192 C.3       23 UNK        -0.0205 
     16 S16         1.8145  -19.4056  -48.2008 S.3       23 UNK        -0.2404 
     17 C17         0.0139  -19.1655  -48.0153 C.3       23 UNK        -0.0398 
     18 CA         -0.6993  -20.4157  -47.4603 C.3       11 UNK         0.1400 
     19 N          -0.2157  -20.7679  -46.1226 N.am      11 UNK        -0.5000 
     20 C          -0.5342  -21.8789  -45.4455 C.2       10 UNK         0.5000 
     21 O          -1.2809  -22.7516  -45.8849 O.2       10 UNK        -0.5000 
     22 CA          0.0393  -22.0148  -44.0230 C.3       10 UNK         0.1400 
     23 CB          1.3080  -22.8790  -44.0382 C.3       10 UNK        -0.1800 
     24 N           0.3341  -20.7249  -43.3908 N.am      10 UNK        -0.5000 
     25 C          -0.5932  -19.8121  -43.0574 C.2       9 UNK         0.5000 
     26 O          -1.7930  -19.9615  -43.2908 O.2       9 UNK        -0.5000 
     27 CA         -0.1084  -18.4955  -42.4140 C.3       9 UNK         0.1400 
     28 CB         -1.0965  -17.9333  -41.3711 C.3       9 UNK        -0.1800 
     29 N           1.2549  -18.5519  -41.8785 N.am      9 UNK        -0.5000 
     30 C           1.7184  -19.3066  -40.8700 C.2       8 UNK         0.5000 
     31 O           1.0080  -20.0339  -40.1750 O.2       8 UNK        -0.5000 
     32 CA          3.2443  -19.2488  -40.6208 C.3       8 UNK         0.1400 
     33 CB          3.7917  -20.5633  -40.0264 C.3       8 UNK        -0.1800 
     34 N           4.0262  -18.8598  -41.8065 N.am      8 UNK        -0.5000 
     35 C           4.0438  -19.4878  -42.9935 C.2       7 UNK         0.5000 
     36 O           3.3664  -20.4873  -43.2357 O.2       7 UNK        -0.5000 
     37 CA          4.9216  -18.8870  -44.1045 C.3       7 UNK         0.1400 
     38 CB          4.2597  -19.0124  -45.4903 C.3       7 UNK        -0.1800 
     39 N           5.2459  -17.4794  -43.8612 N.am      7 UNK        -0.5000 
     40 C           6.4241  -16.9200  -44.1642 C.2       6 UNK         0.5000 
     41 O           7.4062  -17.5601  -44.5431 O.2       6 UNK        -0.5000 
     42 CA          6.5315  -15.3905  -44.0630 C.3       6 UNK         0.1400 
     43 CB          6.0618  -14.7384  -45.3726 C.3       6 UNK        -0.1800 
     44 N           5.7652  -14.8268  -42.9508 N.am      6 UNK        -0.5000 
     45 C           6.3036  -14.4840  -41.7728 C.2       5 UNK         0.5000 
     46 O           7.4662  -14.7345  -41.4519 O.2       5 UNK        -0.5000 
     47 CA          5.4117  -13.6924  -40.7987 C.3       5 UNK         0.1400 
     48 CB          5.6125  -12.1825  -41.0022 C.3       5 UNK        -0.1800 
     49 N           3.9890  -14.0029  -40.9374 N.am      5 UNK        -0.5000 
     50 C           3.4091  -15.0842  -40.4041 C.2       4 UNK         0.5000 
     51 O           4.0167  -15.9438  -39.7666 O.2       4 UNK        -0.5000 
     52 CA          1.8965  -15.2396  -40.6361 C.3       4 UNK         0.1400 
     53 CB          1.1012  -14.4264  -39.6047 C.3       4 UNK        -0.1800 
     54 N           1.4539  -14.8704  -41.9828 N.am      4 UNK        -0.5000 
     55 C           1.8673  -15.4239  -43.1286 C.2       3 UNK         0.5000 
     56 O           2.7445  -16.2887  -43.1842 O.2       3 UNK        -0.5000 
     57 CA          1.1364  -14.9744  -44.4112 C.3       3 UNK         0.1400 
     58 CB          1.7183  -15.6260  -45.6781 C.3       3 UNK        -0.1800 
     59 N          -0.2920  -15.2848  -44.3706 N.am      3 UNK        -0.5000 
     60 C          -1.2378  -14.6743  -43.6481 C.2       2 UNK         0.5000 
     61 O          -1.0090  -13.7337  -42.8850 O.2       2 UNK        -0.5000 
     62 CA         -2.6745  -15.2039  -43.8425 C.3       2 UNK         0.1400 
     63 CB         -3.7014  -14.4871  -42.9492 C.3       2 UNK        -0.1800 
     64 N          -3.1017  -15.0908  -45.2370 N.am      2 UNK        -0.5000 
     65 C          -2.7297  -15.8878  -46.2456 C.2       1 UNK         0.5000 
     66 O          -1.9902  -16.8617  -46.0870 O.2       1 UNK        -0.5000 
     67 C          -2.2316  -20.2304  -47.5297 C.2       11 UNK         0.5000 
     68 O          -2.8108  -20.4100  -48.6018 O.2       11 UNK        -0.5000 
     69 N          -2.8750  -19.9109  -46.3962 N.am      12 UNK        -0.5000 
     70 CA         -4.3284  -19.7919  -46.2813 C.3       12 UNK         0.1400 
     71 CB         -4.6872  -19.1827  -44.9186 C.3       12 UNK        -0.1800 
     72 C          -5.0596  -21.1328  -46.4895 C.2       12 UNK         0.5000 
     73 O          -6.1933  -21.1276  -46.9719 O.2       12 UNK        -0.5000 
     74 N          -4.3862  -22.2523  -46.1752 N.am      13 UNK        -0.5000 
     75 CA         -4.8983  -23.6185  -46.3199 C.3       13 UNK         0.1400 
     76 CB         -3.9781  -24.5962  -45.5739 C.3       13 UNK        -0.1800 
     77 C          -5.0887  -24.0623  -47.7839 C.2       13 UNK         0.5000 
     78 O          -5.8207  -25.0211  -48.0273 O.2       13 UNK        -0.5000 
     79 N          -4.4950  -23.3313  -48.7393 N.am      14 UNK        -0.5000 
     80 CA         -4.7250  -23.4670  -50.1812 C.3       14 UNK         0.1400 
     81 CB         -3.4791  -22.9601  -50.9321 C.3       14 UNK        -0.1800 
     82 C          -6.0121  -22.7397  -50.6386 C.2       14 UNK         0.5000 
     83 O          -6.0719  -22.2595  -51.7716 O.2       14 UNK        -0.5000 
     84 N          -7.0036  -22.6283  -49.7406 N.am      15 UNK        -0.5000 
     85 CA         -8.2764  -21.9172  -49.8884 C.3       15 UNK         0.1400 
     86 CB         -9.1914  -22.6613  -50.8827 C.3       15 UNK        -0.1800 
     87 C          -8.0654  -20.4299  -50.2356 C.2       15 UNK         0.5000 
     88 O          -8.6841  -19.9170  -51.1674 O.2       15 UNK        -0.5000 
     89 N          -7.1376  -19.7878  -49.5075 N.am      16 UNK        -0.5000 
     90 CA         -6.6261  -18.4308  -49.7419 C.3       16 UNK         0.1400 
     91 CB         -7.7012  -17.3756  -49.4113 C.3       16 UNK        -0.1800 
     92 C          -6.0191  -18.2615  -51.1534 C.2       16 UNK         0.5000 
     93 O          -6.2890  -17.2706  -51.8336 O.2       16 UNK        -0.5000 
     94 N          -5.2270  -19.2641  -51.5608 N.am      17 UNK        -0.5000 
     95 CA         -4.5549  -19.4059  -52.8570 C.3       17 UNK         0.1400 
     96 CB         -3.5013  -18.2999  -53.0597 C.3       17 UNK        -0.1800 
     97 C          -5.5128  -19.5532  -54.0590 C.2       17 UNK         0.5000 
     98 O          -5.1234  -19.2564  -55.1903 O.2       17 UNK        -0.5000 
     99 N          -6.7385  -20.0391  -53.8138 N.am      18 UNK        -0.5000 
    100 CA        -7.6615  -20.4700  -54.8649 C.3       18 UNK         0.1400 
    101 CB        -9.0994  -20.4934  -54.3289 C.3       18 UNK        -0.1800 
    102 C         -7.2612  -21.8448  -55.4322 C.2       18 UNK         0.5000 
    103 O         -7.4781  -22.0938  -56.6192 O.2       18 UNK        -0.5000 
    104 N         -6.6589  -22.6979  -54.5913 N.am      19 UNK        -0.5000 
    105 CA        -5.9890  -23.9257  -55.0080 C.3       19 UNK         0.1400 
    106 CB        -5.9720  -24.9193  -53.8362 C.3       19 UNK        -0.1800 
    107 C         -4.5561  -23.6060  -55.4697 C.2       19 UNK         0.5000 
    108 O         -3.9398  -22.6598  -54.9715 O.2       19 UNK        -0.5000 
    109 N         -4.0497  -24.4124  -56.4079 N.am      20 UNK        -0.5000 
    110 CA        -2.6957  -24.3077  -56.9501 C.3       20 UNK         0.1400 
    111 CB        -2.6144  -25.1654  -58.2238 C.3       20 UNK        -0.1800 
    112 C         -1.6156  -24.7408  -55.9387 C.2       20 UNK         0.5000 
    113 O         -1.9095  -25.4755  -54.9922 O.2       20 UNK        -0.5000 
    114 N         -0.3746  -24.3094  -56.2042 N.am      21 UNK        -0.5000 
    115 CA         0.8528  -24.6404  -55.4708 C.3       21 UNK         0.1400 
    116 CB         1.1786  -26.1451  -55.5908 C.3       21 UNK        -0.1800 
    117 C          0.8621  -24.1283  -54.0145 C.2       21 UNK         0.5000 
    118 O          1.3214  -24.8322  -53.1123 O.2       21 UNK        -0.5000 
    119 N          0.3747  -22.8968  -53.8156 N.am      22 UNK        -0.5000 
    120 CA         0.5210  -22.1347  -52.5657 C.3       22 UNK         0.1400 
    121 C          2.0019  -21.7894  -52.2312 C.2       22 UNK         0.5000 
    122 N          2.3404  -21.6550  -50.9564 N.am      22 UNK        -0.7600 
    123 O          2.8426  -21.6201  -53.1122 O.2       22 UNK        -0.5000 
    124 C124       -0.3885  -20.8757  -52.5330 C.3       23 UNK        -0.0398 
    125 S125       -0.3537  -19.8300  -54.0370 S.3       23 UNK        -0.2404 
    126 C126        0.9577  -18.6026  -53.7117 C.3       23 UNK        -0.0205 
    127 H127       -7.2127  -13.8323  -48.2625 H         1 UNK         0.0600 
    128 H128       -7.2735  -15.2848  -47.2511 H         1 UNK         0.0600 
    129 H129       -7.3237  -13.6903  -46.5044 H         1 UNK         0.0600 
    130 H130       -5.2466  -16.1034  -48.0277 H         1 UNK         0.3000 
    131 H131       -2.7896  -14.5602  -47.8943 H         1 UNK         0.0600 
    132 H132       -3.3234  -17.4767  -48.6198 H         1 UNK         0.0800 
    133 H133       -1.7436  -16.7654  -48.6295 H         1 UNK         0.0800 
    134 H134       -1.2137  -14.4216  -50.1274 H         1 UNK         0.0800 
    135 H135       -1.6162  -14.6098  -51.8125 H         1 UNK         0.0800 
    136 H136       -0.8972  -16.6820  -53.0826 H         1 UNK         0.1150 
    137 H137        2.4013  -18.8652  -51.4243 H         1 UNK         0.1150 
    138 H138        0.3837  -15.9251  -49.0595 H         1 UNK         0.1150 
    139 H139        3.3846  -17.8826  -49.2196 H         1 UNK         0.0800 
    140 H140        2.2916  -17.0393  -48.1516 H         1 UNK         0.0800 
    141 H141       -0.1595  -18.2993  -47.3754 H         1 UNK         0.0800 
    142 H142       -0.4001  -18.9233  -48.9954 H         1 UNK         0.0800 
    143 H143       -0.4637  -21.2559  -48.1170 H         1 UNK         0.0600 
    144 H144        0.4224  -20.1157  -45.6921 H         1 UNK         0.3000 
    145 H145       -0.7116  -22.5214  -43.4133 H         1 UNK         0.0600 
    146 H146        1.7107  -23.0082  -43.0333 H         1 UNK         0.0600 
    147 H147        1.0987  -23.8728  -44.4362 H         1 UNK         0.0600 
    148 H148        2.0885  -22.4354  -44.6577 H         1 UNK         0.0600 
    149 H149        1.3114  -20.5373  -43.1897 H         1 UNK         0.3000 
    150 H150       -0.0708  -17.7845  -43.2379 H         1 UNK         0.0600 
    151 H151       -2.0898  -17.7980  -41.7992 H         1 UNK         0.0600 
    152 H152       -0.7700  -16.9607  -41.0035 H         1 UNK         0.0600 
    153 H153       -1.2048  -18.5981  -40.5143 H         1 UNK         0.0600 
    154 H154        1.9366  -17.9893  -42.3768 H         1 UNK         0.3000 
    155 H155        3.3971  -18.4682  -39.8765 H         1 UNK         0.0600 
    156 H156        3.3227  -20.7861  -39.0674 H         1 UNK         0.0600 
    157 H157        4.8657  -20.4996  -39.8521 H         1 UNK         0.0600 
    158 H158        3.6082  -21.4130  -40.6848 H         1 UNK         0.0600 
    159 H159        4.5966  -18.0322  -41.7017 H         1 UNK         0.3000 
    160 H160        5.8348  -19.4852  -44.1065 H         1 UNK         0.0600 
    161 H161        3.3151  -18.4695  -45.5291 H         1 UNK         0.0600 
    162 H162        4.0516  -20.0533  -45.7411 H         1 UNK         0.0600 
    163 H163        4.9037  -18.6170  -46.2758 H         1 UNK         0.0600 
    164 H164        4.4658  -16.8948  -43.5704 H         1 UNK         0.3000 
    165 H165        7.5898  -15.1472  -43.9443 H         1 UNK         0.0600 
    166 H166        6.6258  -15.1209  -46.2243 H         1 UNK         0.0600 
    167 H167        5.0077  -14.9321  -45.5648 H         1 UNK         0.0600 
    168 H168        6.2053  -13.6580  -45.3479 H         1 UNK         0.0600 
    169 H169        4.7923  -14.6193  -43.1181 H         1 UNK         0.3000 
    170 H170        5.7305  -13.9392  -39.7835 H         1 UNK         0.0600 
    171 H171        6.6611  -11.9078  -40.8804 H         1 UNK         0.0600 
    172 H172        5.3036  -11.8647  -41.9988 H         1 UNK         0.0600 
    173 H173        5.0410  -11.6071  -40.2736 H         1 UNK         0.0600 
    174 H174        3.4171  -13.3430  -41.4441 H         1 UNK         0.3000 
    175 H175        1.6534  -16.2902  -40.4822 H         1 UNK         0.0600 
    176 H176        1.2637  -13.3546  -39.7246 H         1 UNK         0.0600 
    177 H177        0.0312  -14.6150  -39.6957 H         1 UNK         0.0600 
    178 H178        1.3919  -14.6922  -38.5874 H         1 UNK         0.0600 
    179 H179        0.6826  -14.2116  -42.0429 H         1 UNK         0.3000 
    180 H180        1.2590  -13.8930  -44.4964 H         1 UNK         0.0600 
    181 H181        1.5892  -16.7090  -45.6686 H         1 UNK         0.0600 
    182 H182        1.2336  -15.2410  -46.5755 H         1 UNK         0.0600 
    183 H183        2.7836  -15.4227  -45.7756 H         1 UNK         0.0600 
    184 H184       -0.6068  -16.0250  -44.9902 H         1 UNK         0.3000 
    185 H185       -2.6725  -16.2595  -43.5647 H         1 UNK         0.0600 
    186 H186       -3.4343  -14.5773  -41.8954 H         1 UNK         0.0600 
    187 H187       -3.7670  -13.4239  -43.1840 H         1 UNK         0.0600 
    188 H188       -4.6955  -14.9183  -43.0691 H         1 UNK         0.0600 
    189 H189       -3.6855  -14.2933  -45.4705 H         1 UNK         0.3000 
    190 H190       -2.3422  -19.7802  -45.5455 H         1 UNK         0.3000 
    191 H191       -4.6691  -19.1046  -47.0571 H         1 UNK         0.0600 
    192 H192       -5.7617  -19.0144  -44.8375 H         1 UNK         0.0600 
    193 H193       -4.1953  -18.2213  -44.7713 H         1 UNK         0.0600 
    194 H194       -4.3948  -19.8371  -44.0967 H         1 UNK         0.0600 
    195 H195       -3.4330  -22.1695  -45.8432 H         1 UNK         0.3000 
    196 H196       -5.8800  -23.6511  -45.8429 H         1 UNK         0.0600 
    197 H197       -4.4191  -25.5932  -45.5392 H         1 UNK         0.0600 
    198 H198       -3.8096  -24.2795  -44.5444 H         1 UNK         0.0600 
    199 H199       -3.0083  -24.6895  -46.0626 H         1 UNK         0.0600 
    200 H200       -3.9303  -22.5423  -48.4534 H         1 UNK         0.3000 
    201 H201       -4.8531  -24.5239  -50.4228 H         1 UNK         0.0600 
    202 H202       -3.3243  -21.8922  -50.7783 H         1 UNK         0.0600 
    203 H203       -3.5683  -23.1250  -52.0069 H         1 UNK         0.0600 
    204 H204       -2.5795  -23.4796  -50.6018 H         1 UNK         0.0600 
    205 H205       -6.8496  -23.0486  -48.8349 H         1 UNK         0.3000 
    206 H206       -8.7630  -21.9348  -48.9122 H         1 UNK         0.0600 
    207 H207       -9.4014  -23.6729  -50.5358 H         1 UNK         0.0600 
    208 H208      -10.1497  -22.1531  -50.9960 H         1 UNK         0.0600 
    209 H209       -8.7387  -22.7402  -51.8706 H         1 UNK         0.0600 
    210 H210       -6.7154  -20.2985  -48.7378 H         1 UNK         0.3000 
    211 H211       -5.8012  -18.2879  -49.0438 H         1 UNK         0.0600 
    212 H212       -8.5590  -17.4473  -50.0805 H         1 UNK         0.0600 
    213 H213       -7.3008  -16.3660  -49.5075 H         1 UNK         0.0600 
    214 H214       -8.0635  -17.4888  -48.3897 H         1 UNK         0.0600 
    215 H215       -5.1170  -20.0521  -50.9393 H         1 UNK         0.3000 
    216 H216       -4.0168  -20.3538  -52.8087 H         1 UNK         0.0600 
    217 H217       -3.9504  -17.3080  -53.1023 H         1 UNK         0.0600 
    218 H218       -2.9504  -18.4427  -53.9889 H         1 UNK         0.0600 
    219 H219       -2.7721  -18.3091  -52.2502 H         1 UNK         0.0600 
    220 H220       -6.9935  -20.2602  -52.8596 H         1 UNK         0.3000 
    221 H221       -7.6254  -19.7470  -55.6826 H         1 UNK         0.0600 
    222 H222       -9.2226  -21.2273  -53.5343 H         1 UNK         0.0600 
    223 H223       -9.3892  -19.5196  -53.9339 H         1 UNK         0.0600 
    224 H224       -9.8050  -20.7479  -55.1205 H         1 UNK         0.0600 
    225 H225       -6.4723  -22.3982  -53.6378 H         1 UNK         0.3000 
    226 H226       -6.5426  -24.3769  -55.8343 H         1 UNK         0.0600 
    227 H227       -6.9741  -25.0839  -53.4397 H         1 UNK         0.0600 
    228 H228       -5.5822  -25.8869  -54.1539 H         1 UNK         0.0600 
    229 H229       -5.3403  -24.5693  -53.0206 H         1 UNK         0.0600 
    230 H230       -4.6019  -25.1915  -56.7349 H         1 UNK         0.3000 
    231 H231       -2.5158  -23.2646  -57.2196 H         1 UNK         0.0600 
    232 H232       -2.7898  -26.2205  -58.0095 H         1 UNK         0.0600 
    233 H233       -3.3494  -24.8459  -58.9629 H         1 UNK         0.0600 
    234 H234       -1.6324  -25.0859  -58.6918 H         1 UNK         0.0600 
    235 H235       -0.2436  -23.7094  -57.0069 H         1 UNK         0.3000 
    236 H236        1.6557  -24.1000  -55.9744 H         1 UNK         0.0600 
    237 H237        1.1884  -26.4648  -56.6328 H         1 UNK         0.0600 
    238 H238        2.1630  -26.3656  -55.1765 H         1 UNK         0.0600 
    239 H239        0.4554  -26.7623  -55.0571 H         1 UNK         0.0600 
    240 H240        0.0228  -22.3764  -54.6057 H         1 UNK         0.3000 
    241 H241        0.1735  -22.7929  -51.7665 H         1 UNK         0.0600 
    242 H242        3.2956  -21.4282  -50.7299 H         1 UNK         0.3800 
    243 H243        1.6772  -21.7802  -50.2091 H         1 UNK         0.3800 
    244 H244       -0.1981  -20.2724  -51.6447 H         1 UNK         0.0800 
    245 H245       -1.4219  -21.2064  -52.4232 H         1 UNK         0.0800 
    246 H246        1.9259  -19.1040  -53.7364 H         1 UNK         0.0800 
    247 H247        0.9731  -17.8869  -54.5346 H         1 UNK         0.0800 
@<TRIPOS>BOND
     1    1    2 1    
     2    1  127 1    
     3    1  128 1    
     4    1  129 1    
     5    2    3 2    
     6    2    4 am   BACKBONE|DICT|INTERRES
     7    4    5 1    
     8    4  130 1    
     9    5    6 1    
    10    5   65 1    
    11    5  131 1    
    12    6    7 1    
    13    6  132 1    
    14    6  133 1    
    15    7    8 1    
    16    8    9 1    
    17    8  134 1    
    18    8  135 1    
    19    9   10 ar   
    20    9   14 ar   
    21   10   11 ar   
    22   10  136 1    
    23   11   12 ar   
    24   11  126 1    
    25   12   13 ar   
    26   12  137 1    
    27   13   14 ar   
    28   13   15 1    
    29   14  138 1    
    30   15   16 1    
    31   15  139 1    
    32   15  140 1    
    33   16   17 1    
    34   17   18 1    
    35   17  141 1    
    36   17  142 1    
    37   18   19 1    
    38   18   67 1    
    39   18  143 1    
    40   19   20 am   BACKBONE|DICT|INTERRES
    41   19  144 1    
    42   20   21 2    
    43   20   22 1    
    44   22   23 1    
    45   22   24 1    
    46   22  145 1    
    47   23  146 1    
    48   23  147 1    
    49   23  148 1    
    50   24   25 am   BACKBONE|DICT|INTERRES
    51   24  149 1    
    52   25   26 2    
    53   25   27 1    
    54   27   28 1    
    55   27   29 1    
    56   27  150 1    
    57   28  151 1    
    58   28  152 1    
    59   28  153 1    
    60   29   30 am   BACKBONE|DICT|INTERRES
    61   29  154 1    
    62   30   31 2    
    63   30   32 1    
    64   32   33 1    
    65   32   34 1    
    66   32  155 1    
    67   33  156 1    
    68   33  157 1    
    69   33  158 1    
    70   34   35 am   BACKBONE|DICT|INTERRES
    71   34  159 1    
    72   35   36 2    
    73   35   37 1    
    74   37   38 1    
    75   37   39 1    
    76   37  160 1    
    77   38  161 1    
    78   38  162 1    
    79   38  163 1    
    80   39   40 am   BACKBONE|DICT|INTERRES
    81   39  164 1    
    82   40   41 2    
    83   40   42 1    
    84   42   43 1    
    85   42   44 1    
    86   42  165 1    
    87   43  166 1    
    88   43  167 1    
    89   43  168 1    
    90   44   45 am   BACKBONE|DICT|INTERRES
    91   44  169 1    
    92   45   46 2    
    93   45   47 1    
    94   47   48 1    
    95   47   49 1    
    96   47  170 1    
    97   48  171 1    
    98   48  172 1    
    99   48  173 1    
   100   49   50 am   BACKBONE|DICT|INTERRES
   101   49  174 1    
   102   50   51 2    
   103   50   52 1    
   104   52   53 1    
   105   52   54 1    
   106   52  175 1    
   107   53  176 1    
   108   53  177 1    
   109   53  178 1    
   110   54   55 am   BACKBONE|DICT|INTERRES
   111   54  179 1    
   112   55   56 2    
   113   55   57 1    
   114   57   58 1    
   115   57   59 1    
   116   57  180 1    
   117   58  181 1    
   118   58  182 1    
   119   58  183 1    
   120   59   60 am   BACKBONE|DICT|INTERRES
   121   59  184 1    
   122   60   61 2    
   123   60   62 1    
   124   62   63 1    
   125   62   64 1    
   126   62  185 1    
   127   63  186 1    
   128   63  187 1    
   129   63  188 1    
   130   64   65 am   BACKBONE|DICT|INTERRES
   131   64  189 1    
   132   65   66 2    
   133   67   68 2    
   134   67   69 am   BACKBONE|DICT|INTERRES
   135   69   70 1    
   136   69  190 1    
   137   70   71 1    
   138   70   72 1    
   139   70  191 1    
   140   71  192 1    
   141   71  193 1    
   142   71  194 1    
   143   72   73 2    
   144   72   74 am   BACKBONE|DICT|INTERRES
   145   74   75 1    
   146   74  195 1    
   147   75   76 1    
   148   75   77 1    
   149   75  196 1    
   150   76  197 1    
   151   76  198 1    
   152   76  199 1    
   153   77   78 2    
   154   77   79 am   BACKBONE|DICT|INTERRES
   155   79   80 1    
   156   79  200 1    
   157   80   81 1    
   158   80   82 1    
   159   80  201 1    
   160   81  202 1    
   161   81  203 1    
   162   81  204 1    
   163   82   83 2    
   164   82   84 am   BACKBONE|DICT|INTERRES
   165   84   85 1    
   166   84  205 1    
   167   85   86 1    
   168   85   87 1    
   169   85  206 1    
   170   86  207 1    
   171   86  208 1    
   172   86  209 1    
   173   87   88 2    
   174   87   89 am   BACKBONE|DICT|INTERRES
   175   89   90 1    
   176   89  210 1    
   177   90   91 1    
   178   90   92 1    
   179   90  211 1    
   180   91  212 1    
   181   91  213 1    
   182   91  214 1    
   183   92   93 2    
   184   92   94 am   BACKBONE|DICT|INTERRES
   185   94   95 1    
   186   94  215 1    
   187   95   96 1    
   188   95   97 1    
   189   95  216 1    
   190   96  217 1    
   191   96  218 1    
   192   96  219 1    
   193   97   98 2    
   194   97   99 am   BACKBONE|DICT|INTERRES
   195   99  100 1    
   196   99  220 1    
   197  100  101 1    
   198  100  102 1    
   199  100  221 1    
   200  101  222 1    
   201  101  223 1    
   202  101  224 1    
   203  102  103 2    
   204  102  104 am   BACKBONE|DICT|INTERRES
   205  104  105 1    
   206  104  225 1    
   207  105  106 1    
   208  105  107 1    
   209  105  226 1    
   210  106  227 1    
   211  106  228 1    
   212  106  229 1    
   213  107  108 2    
   214  107  109 am   BACKBONE|DICT|INTERRES
   215  109  110 1    
   216  109  230 1    
   217  110  111 1    
   218  110  112 1    
   219  110  231 1    
   220  111  232 1    
   221  111  233 1    
   222  111  234 1    
   223  112  113 2    
   224  112  114 am   BACKBONE|DICT|INTERRES
   225  114  115 1    
   226  114  235 1    
   227  115  116 1    
   228  115  117 1    
   229  115  236 1    
   230  116  237 1    
   231  116  238 1    
   232  116  239 1    
   233  117  118 2    
   234  117  119 am   BACKBONE|DICT|INTERRES
   235  119  120 1    
   236  119  240 1    
   237  120  121 1    
   238  120  124 1    
   239  120  241 1    
   240  121  122 am   BACKBONE|DICT|INTERRES
   241  121  123 2    
   242  122  242 1    
   243  122  243 1    
   244  124  125 1    
   245  124  244 1    
   246  124  245 1    
   247  125  126 1    
   248  126  246 1    
   249  126  247 1    
@<TRIPOS>SUBSTRUCTURE
     1 UNK         1 GROUP             0       ****    0 ROOT    
