@<TRIPOS>MOLECULE
3R540
247   249    1
SMALL
USER_CHARGES


@<TRIPOS>ATOM
      1 CA         -3.2007  -11.0120  -48.1083 C.3       0 UNK        -0.1800 
      2 C          -2.5346  -12.3114  -47.6800 C.2       0 UNK         0.5000 
      3 O          -1.6753  -12.3009  -46.7960 O.2       0 UNK        -0.5000 
      4 N          -2.9330  -13.4376  -48.2872 N.am      1 UNK        -0.5000 
      5 CA         -2.4138  -14.7840  -48.0174 C.3       1 UNK         0.1400 
      6 C6         -2.5966  -15.7161  -49.2421 C.3       23 UNK        -0.0398 
      7 S7         -1.4535  -17.1382  -49.2132 S.3       23 UNK        -0.2404 
      8 C8         -0.0909  -16.5273  -50.2568 C.3       23 UNK        -0.0205 
      9 C9          0.9771  -17.5974  -50.4137 C.ar      23 UNK        -0.0193 
     10 C10         1.0151  -18.4018  -51.5563 C.ar      23 UNK        -0.1150 
     11 C11         1.9342  -19.4497  -51.6559 C.ar      23 UNK        -0.0193 
     12 C12         2.8447  -19.6690  -50.6174 C.ar      23 UNK        -0.1150 
     13 C13         2.8100  -18.8754  -49.4663 C.ar      23 UNK        -0.0193 
     14 C14         1.8908  -17.8259  -49.3823 C.ar      23 UNK        -0.1150 
     15 C15         3.6814  -19.2208  -48.2647 C.3       23 UNK        -0.0205 
     16 S16         3.1553  -20.7659  -47.4315 S.3       23 UNK        -0.2404 
     17 C17         1.3482  -20.7681  -47.6976 C.3       23 UNK        -0.0398 
     18 CA          0.5812  -21.8358  -46.8909 C.3       11 UNK         0.1400 
     19 N           0.6810  -21.6320  -45.4398 N.am      11 UNK        -0.5000 
     20 C           0.1965  -22.4728  -44.5128 C.2       10 UNK         0.5000 
     21 O          -0.3688  -23.5337  -44.7778 O.2       10 UNK        -0.5000 
     22 CA          0.3208  -22.0321  -43.0452 C.3       10 UNK         0.1400 
     23 CB          1.7208  -22.3372  -42.4893 C.3       10 UNK        -0.1800 
     24 N           0.0227  -20.6075  -42.8991 N.am      10 UNK        -0.5000 
     25 C          -1.2201  -20.1046  -42.8423 C.2       9 UNK         0.5000 
     26 O          -2.2359  -20.7992  -42.8219 O.2       9 UNK        -0.5000 
     27 CA         -1.3591  -18.5683  -42.8189 C.3       9 UNK         0.1400 
     28 CB         -1.3800  -18.0629  -41.3689 C.3       9 UNK        -0.1800 
     29 N          -0.2956  -17.8812  -43.5546 N.am      9 UNK        -0.5000 
     30 C          -0.0925  -17.9888  -44.8756 C.2       8 UNK         0.5000 
     31 O          -0.8316  -18.6155  -45.6299 O.2       8 UNK        -0.5000 
     32 CA          1.1950  -17.3604  -45.4339 C.3       8 UNK         0.1400 
     33 CB          0.9382  -15.9616  -46.0051 C.3       8 UNK        -0.1800 
     34 N           2.2714  -17.3012  -44.4472 N.am      8 UNK        -0.5000 
     35 C           2.9064  -18.3746  -43.9556 C.2       7 UNK         0.5000 
     36 O           2.5726  -19.5269  -44.2341 O.2       7 UNK        -0.5000 
     37 CA          4.0553  -18.1348  -42.9530 C.3       7 UNK         0.1400 
     38 CB          5.2455  -19.0848  -43.1947 C.3       7 UNK        -0.1800 
     39 N           4.4906  -16.7347  -42.8718 N.am      7 UNK        -0.5000 
     40 C           5.0878  -15.9930  -43.8199 C.2       6 UNK         0.5000 
     41 O           5.4533  -16.4389  -44.9076 O.2       6 UNK        -0.5000 
     42 CA          5.2649  -14.4877  -43.5293 C.3       6 UNK         0.1400 
     43 CB          4.5885  -13.6438  -44.6237 C.3       6 UNK        -0.1800 
     44 N           4.6896  -14.1065  -42.2380 N.am      6 UNK        -0.5000 
     45 C           5.3756  -13.9626  -41.0960 C.2       5 UNK         0.5000 
     46 O           6.5991  -14.0739  -41.0139 O.2       5 UNK        -0.5000 
     47 CA          4.5553  -13.6646  -39.8229 C.3       5 UNK         0.1400 
     48 CB          4.5387  -12.1550  -39.5388 C.3       5 UNK        -0.1800 
     49 N           3.1733  -14.1504  -39.8865 N.am      5 UNK        -0.5000 
     50 C           2.8116  -15.4397  -39.9528 C.2       4 UNK         0.5000 
     51 O           3.6117  -16.3744  -39.9368 O.2       4 UNK        -0.5000 
     52 CA          1.3116  -15.7336  -40.1447 C.3       4 UNK         0.1400 
     53 CB          0.6169  -15.9299  -38.7897 C.3       4 UNK        -0.1800 
     54 N           0.6017  -14.7035  -40.9100 N.am      4 UNK        -0.5000 
     55 C           0.8767  -14.3651  -42.1756 C.2       3 UNK         0.5000 
     56 O           1.7639  -14.9014  -42.8436 O.2       3 UNK        -0.5000 
     57 CA          0.0200  -13.2480  -42.7959 C.3       3 UNK         0.1400 
     58 CB          0.8772  -12.2951  -43.6460 C.3       3 UNK        -0.1800 
     59 N          -1.0365  -13.8060  -43.6354 N.am      3 UNK        -0.5000 
     60 C          -2.1343  -14.4323  -43.1854 C.2       2 UNK         0.5000 
     61 O          -2.3903  -14.5615  -41.9879 O.2       2 UNK        -0.5000 
     62 CA         -3.1158  -14.9983  -44.2314 C.3       2 UNK         0.1400 
     63 CB         -4.5571  -14.5188  -43.9782 C.3       2 UNK        -0.1800 
     64 N          -2.7159  -14.6558  -45.5956 N.am      2 UNK        -0.5000 
     65 C          -2.9883  -15.3594  -46.6986 C.2       1 UNK         0.5000 
     66 O          -3.6772  -16.3799  -46.7012 O.2       1 UNK        -0.5000 
     67 C          -0.8752  -21.8771  -47.4016 C.2       11 UNK         0.5000 
     68 O          -1.1389  -22.5487  -48.3968 O.2       11 UNK        -0.5000 
     69 N          -1.7819  -21.1501  -46.7326 N.am      12 UNK        -0.5000 
     70 CA         -3.1977  -21.0324  -47.0791 C.3       12 UNK         0.1400 
     71 CB         -3.8604  -20.0090  -46.1449 C.3       12 UNK        -0.1800 
     72 C          -3.9799  -22.3581  -47.0486 C.2       12 UNK         0.5000 
     73 O          -4.9698  -22.4789  -47.7738 O.2       12 UNK        -0.5000 
     74 N          -3.5324  -23.3176  -46.2263 N.am      13 UNK        -0.5000 
     75 CA         -4.0796  -24.6708  -46.1496 C.3       13 UNK         0.1400 
     76 CB         -3.4796  -25.3892  -44.9321 C.3       13 UNK        -0.1800 
     77 C          -3.7916  -25.4544  -47.4428 C.2       13 UNK         0.5000 
     78 O          -2.6781  -25.3800  -47.9641 O.2       13 UNK        -0.5000 
     79 N          -4.8062  -26.1667  -47.9511 N.am      14 UNK        -0.5000 
     80 CA         -4.8452  -26.9423  -49.2033 C.3       14 UNK         0.1400 
     81 CB         -3.7759  -28.0518  -49.2241 C.3       14 UNK        -0.1800 
     82 C          -4.7949  -26.0900  -50.4908 C.2       14 UNK         0.5000 
     83 O          -5.4664  -26.4361  -51.4632 O.2       14 UNK        -0.5000 
     84 N          -4.0501  -24.9762  -50.4730 N.am      15 UNK        -0.5000 
     85 CA         -3.9906  -23.9762  -51.5427 C.3       15 UNK         0.1400 
     86 CB         -2.7325  -23.1158  -51.3539 C.3       15 UNK        -0.1800 
     87 C          -5.2422  -23.0760  -51.6061 C.2       15 UNK         0.5000 
     88 O          -5.3970  -22.3372  -52.5809 O.2       15 UNK        -0.5000 
     89 N          -6.0847  -23.1337  -50.5620 N.am      16 UNK        -0.5000 
     90 CA         -7.3412  -22.4044  -50.3720 C.3       16 UNK         0.1400 
     91 CB         -8.3926  -22.8621  -51.4045 C.3       16 UNK        -0.1800 
     92 C          -7.1194  -20.8814  -50.3589 C.2       16 UNK         0.5000 
     93 O          -7.7117  -20.1604  -51.1614 O.2       16 UNK        -0.5000 
     94 N          -6.2071  -20.4321  -49.4828 N.am      17 UNK        -0.5000 
     95 CA         -5.7220  -19.0467  -49.3652 C.3       17 UNK         0.1400 
     96 CB         -6.8266  -18.1182  -48.8206 C.3       17 UNK        -0.1800 
     97 C          -5.0861  -18.5329  -50.6760 C.2       17 UNK         0.5000 
     98 O          -5.2524  -17.3681  -51.0409 O.2       17 UNK        -0.5000 
     99 N          -4.3895  -19.4484  -51.3643 N.am      18 UNK        -0.5000 
    100 CA        -3.7340  -19.2922  -52.6627 C.3       18 UNK         0.1400 
    101 CB        -2.6081  -18.2431  -52.6033 C.3       18 UNK        -0.1800 
    102 C         -4.6990  -19.0759  -53.8455 C.2       18 UNK         0.5000 
    103 O         -4.2537  -18.6366  -54.9063 O.2       18 UNK        -0.5000 
    104 N         -5.9772  -19.4595  -53.7008 N.am      19 UNK        -0.5000 
    105 CA        -6.9420  -19.5089  -54.8056 C.3       19 UNK         0.1400 
    106 CB        -8.3556  -19.7499  -54.2590 C.3       19 UNK        -0.1800 
    107 C         -6.5782  -20.5754  -55.8586 C.2       19 UNK         0.5000 
    108 O         -6.8547  -20.3779  -57.0420 O.2       19 UNK        -0.5000 
    109 N         -5.9198  -21.6580  -55.4186 N.am      20 UNK        -0.5000 
    110 CA        -5.3330  -22.6889  -56.2783 C.3       20 UNK         0.1400 
    111 CB        -5.3647  -24.0300  -55.5270 C.3       20 UNK        -0.1800 
    112 C         -3.8925  -22.3465  -56.7218 C.2       20 UNK         0.5000 
    113 O         -3.2532  -23.1751  -57.3722 O.2       20 UNK        -0.5000 
    114 N         -3.3822  -21.1659  -56.3304 N.am      21 UNK        -0.5000 
    115 CA        -2.0460  -20.6206  -56.6149 C.3       21 UNK         0.1400 
    116 CB        -1.9246  -20.2676  -58.1114 C.3       21 UNK        -0.1800 
    117 C         -0.8815  -21.5083  -56.1201 C.2       21 UNK         0.5000 
    118 O          0.2161  -21.4461  -56.6764 O.2       21 UNK        -0.5000 
    119 N         -1.1535  -22.3319  -55.0979 N.am      22 UNK        -0.5000 
    120 CA        -0.2766  -23.3957  -54.5767 C.3       22 UNK         0.1400 
    121 C         -0.0288  -24.5691  -55.5779 C.2       22 UNK         0.5000 
    122 N         -0.8354  -24.7393  -56.6203 N.am      22 UNK        -0.7600 
    123 O          0.8890  -25.3643  -55.3943 O.2       22 UNK        -0.5000 
    124 C124        1.0359  -22.8606  -53.9343 C.3       23 UNK        -0.0398 
    125 S125        0.7168  -21.7482  -52.5237 S.3       23 UNK        -0.2404 
    126 C126        1.8890  -20.3936  -52.8465 C.3       23 UNK        -0.0205 
    127 H127       -2.4527  -10.3142  -48.4848 H         1 UNK         0.0600 
    128 H128       -3.7019  -10.5501  -47.2576 H         1 UNK         0.0600 
    129 H129       -3.9403  -11.1746  -48.8927 H         1 UNK         0.0600 
    130 H130       -3.6699  -13.3854  -48.9765 H         1 UNK         0.3000 
    131 H131       -1.3387  -14.6727  -47.8659 H         1 UNK         0.0600 
    132 H132       -3.6220  -16.0820  -49.3082 H         1 UNK         0.0800 
    133 H133       -2.4250  -15.1634  -50.1670 H         1 UNK         0.0800 
    134 H134        0.3426  -15.6323  -49.8081 H         1 UNK         0.0800 
    135 H135       -0.4793  -16.2336  -51.2332 H         1 UNK         0.0800 
    136 H136        0.3029  -18.2428  -52.3526 H         1 UNK         0.1150 
    137 H137        3.5328  -20.5010  -50.6721 H         1 UNK         0.1150 
    138 H138        1.8433  -17.2202  -48.4895 H         1 UNK         0.1150 
    139 H139        4.7193  -19.3236  -48.5842 H         1 UNK         0.0800 
    140 H140        3.6674  -18.4093  -47.5351 H         1 UNK         0.0800 
    141 H141        1.1860  -20.9370  -48.7643 H         1 UNK         0.0800 
    142 H142        0.9471  -19.7778  -47.4843 H         1 UNK         0.0800 
    143 H143        1.0229  -22.8100  -47.1111 H         1 UNK         0.0600 
    144 H144        1.1900  -20.8102  -45.1332 H         1 UNK         0.3000 
    145 H145       -0.3998  -22.6068  -42.4588 H         1 UNK         0.0600 
    146 H146        2.5067  -21.8401  -43.0575 H         1 UNK         0.0600 
    147 H147        1.8092  -22.0238  -41.4490 H         1 UNK         0.0600 
    148 H148        1.9245  -23.4081  -42.5244 H         1 UNK         0.0600 
    149 H149        0.8085  -19.9757  -42.9719 H         1 UNK         0.3000 
    150 H150       -2.3113  -18.3131  -43.2888 H         1 UNK         0.0600 
    151 H151       -2.2264  -18.4831  -40.8242 H         1 UNK         0.0600 
    152 H152       -1.4739  -16.9788  -41.3239 H         1 UNK         0.0600 
    153 H153       -0.4749  -18.3458  -40.8307 H         1 UNK         0.0600 
    154 H154        0.3701  -17.3481  -43.0152 H         1 UNK         0.3000 
    155 H155        1.5397  -17.9936  -46.2503 H         1 UNK         0.0600 
    156 H156        0.1937  -16.0063  -46.7983 H         1 UNK         0.0600 
    157 H157        1.8459  -15.5366  -46.4341 H         1 UNK         0.0600 
    158 H158        0.5748  -15.2749  -45.2443 H         1 UNK         0.0600 
    159 H159        2.5181  -16.3830  -44.0962 H         1 UNK         0.3000 
    160 H160        3.6441  -18.3732  -41.9714 H         1 UNK         0.0600 
    161 H161        6.0488  -18.9012  -42.4813 H         1 UNK         0.0600 
    162 H162        5.6548  -18.9779  -44.1995 H         1 UNK         0.0600 
    163 H163        4.9421  -20.1261  -43.0796 H         1 UNK         0.0600 
    164 H164        4.2523  -16.2730  -42.0029 H         1 UNK         0.3000 
    165 H165        6.3355  -14.2736  -43.5452 H         1 UNK         0.0600 
    166 H166        3.5253  -13.8710  -44.7076 H         1 UNK         0.0600 
    167 H167        4.6888  -12.5776  -44.4199 H         1 UNK         0.0600 
    168 H168        5.0401  -13.8302  -45.5989 H         1 UNK         0.0600 
    169 H169        3.6802  -14.0349  -42.2138 H         1 UNK         0.3000 
    170 H170        5.0504  -14.1661  -38.9886 H         1 UNK         0.0600 
    171 H171        4.0352  -11.6015  -40.3325 H         1 UNK         0.0600 
    172 H172        4.0300  -11.9353  -38.5999 H         1 UNK         0.0600 
    173 H173        5.5529  -11.7615  -39.4566 H         1 UNK         0.0600 
    174 H174        2.4474  -13.4493  -39.9090 H         1 UNK         0.3000 
    175 H175        1.2403  -16.6678  -40.7040 H         1 UNK         0.0600 
    176 H176        0.6348  -15.0175  -38.1923 H         1 UNK         0.0600 
    177 H177       -0.4243  -16.2262  -38.9192 H         1 UNK         0.0600 
    178 H178        1.1064  -16.7131  -38.2091 H         1 UNK         0.0600 
    179 H179       -0.1750  -14.2523  -40.4466 H         1 UNK         0.3000 
    180 H180       -0.4355  -12.6650  -41.9923 H         1 UNK         0.0600 
    181 H181        1.3065  -12.7986  -44.5132 H         1 UNK         0.0600 
    182 H182        1.7021  -11.8828  -43.0633 H         1 UNK         0.0600 
    183 H183        0.2852  -11.4554  -44.0108 H         1 UNK         0.0600 
    184 H184       -0.8765  -13.7512  -44.6291 H         1 UNK         0.3000 
    185 H185       -3.0854  -16.0840  -44.1208 H         1 UNK         0.0600 
    186 H186       -5.2558  -14.9776  -44.6780 H         1 UNK         0.0600 
    187 H187       -4.8906  -14.7816  -42.9735 H         1 UNK         0.0600 
    188 H188       -4.6410  -13.4364  -44.0819 H         1 UNK         0.0600 
    189 H189       -2.2445  -13.7649  -45.7267 H         1 UNK         0.3000 
    190 H190       -1.4507  -20.5348  -45.9977 H         1 UNK         0.3000 
    191 H191       -3.2463  -20.6528  -48.1010 H         1 UNK         0.0600 
    192 H192       -3.7563  -20.2954  -45.0980 H         1 UNK         0.0600 
    193 H193       -3.4169  -19.0214  -46.2673 H         1 UNK         0.0600 
    194 H194       -4.9269  -19.9118  -46.3516 H         1 UNK         0.0600 
    195 H195       -2.6742  -23.1500  -45.7188 H         1 UNK         0.3000 
    196 H196       -5.1597  -24.5926  -46.0092 H         1 UNK         0.0600 
    197 H197       -3.6917  -24.8483  -44.0097 H         1 UNK         0.0600 
    198 H198       -2.3970  -25.4906  -45.0194 H         1 UNK         0.0600 
    199 H199       -3.8959  -26.3917  -44.8258 H         1 UNK         0.0600 
    200 H200       -5.6838  -26.1459  -47.4499 H         1 UNK         0.3000 
    201 H201       -5.8183  -27.4360  -49.2039 H         1 UNK         0.0600 
    202 H202       -3.9113  -28.7023  -50.0891 H         1 UNK         0.0600 
    203 H203       -3.8389  -28.6778  -48.3339 H         1 UNK         0.0600 
    204 H204       -2.7651  -27.6476  -49.2807 H         1 UNK         0.0600 
    205 H205       -3.4839  -24.8045  -49.6468 H         1 UNK         0.3000 
    206 H206       -3.9066  -24.5011  -52.4960 H         1 UNK         0.0600 
    207 H207       -2.5780  -22.4525  -52.2050 H         1 UNK         0.0600 
    208 H208       -1.8376  -23.7318  -51.2603 H         1 UNK         0.0600 
    209 H209       -2.8039  -22.4936  -50.4608 H         1 UNK         0.0600 
    210 H210       -5.8050  -23.7149  -49.7843 H         1 UNK         0.3000 
    211 H211       -7.7129  -22.6703  -49.3812 H         1 UNK         0.0600 
    212 H212       -8.5741  -23.9341  -51.3288 H         1 UNK         0.0600 
    213 H213       -9.3462  -22.3585  -51.2423 H         1 UNK         0.0600 
    214 H214       -8.0797  -22.6506  -52.4269 H         1 UNK         0.0600 
    215 H215       -5.7727  -21.1179  -48.8697 H         1 UNK         0.3000 
    216 H216       -4.9169  -19.0524  -48.6318 H         1 UNK         0.0600 
    217 H217       -6.4289  -17.1254  -48.6063 H         1 UNK         0.0600 
    218 H218       -7.6440  -17.9972  -49.5323 H         1 UNK         0.0600 
    219 H219       -7.2436  -18.5061  -47.8911 H         1 UNK         0.0600 
    220 H220       -4.3687  -20.3841  -50.9866 H         1 UNK         0.3000 
    221 H221       -3.2572  -20.2524  -52.8626 H         1 UNK         0.0600 
    222 H222       -2.9930  -17.2341  -52.4519 H         1 UNK         0.0600 
    223 H223       -1.9251  -18.4704  -51.7870 H         1 UNK         0.0600 
    224 H224       -2.0217  -18.2374  -53.5228 H         1 UNK         0.0600 
    225 H225       -6.2912  -19.8199  -52.8070 H         1 UNK         0.3000 
    226 H226       -6.9342  -18.5365  -55.3024 H         1 UNK         0.0600 
    227 H227       -8.6388  -18.9785  -53.5427 H         1 UNK         0.0600 
    228 H228       -9.0928  -19.7343  -55.0627 H         1 UNK         0.0600 
    229 H229       -8.4343  -20.7161  -53.7613 H         1 UNK         0.0600 
    230 H230       -5.7575  -21.7602  -54.4196 H         1 UNK         0.3000 
    231 H231       -5.9361  -22.7946  -57.1823 H         1 UNK         0.0600 
    232 H232       -5.0534  -24.8501  -56.1751 H         1 UNK         0.0600 
    233 H233       -6.3685  -24.2619  -55.1701 H         1 UNK         0.0600 
    234 H234       -4.6958  -24.0225  -54.6674 H         1 UNK         0.0600 
    235 H235       -3.9902  -20.5375  -55.8199 H         1 UNK         0.3000 
    236 H236       -1.9694  -19.6902  -56.0509 H         1 UNK         0.0600 
    237 H237       -2.7455  -19.6260  -58.4318 H         1 UNK         0.0600 
    238 H238       -0.9978  -19.7302  -58.3156 H         1 UNK         0.0600 
    239 H239       -1.9312  -21.1596  -58.7384 H         1 UNK         0.0600 
    240 H240       -2.0869  -22.3111  -54.7183 H         1 UNK         0.3000 
    241 H241       -0.8481  -23.8627  -53.7739 H         1 UNK         0.0600 
    242 H242       -0.6669  -25.5082  -57.2492 H         1 UNK         0.3800 
    243 H243       -1.6114  -24.1103  -56.8025 H         1 UNK         0.3800 
    244 H244        1.6404  -23.6843  -53.5518 H         1 UNK         0.0800 
    245 H245        1.6530  -22.3572  -54.6791 H         1 UNK         0.0800 
    246 H246        2.8822  -20.8033  -53.0374 H         1 UNK         0.0800 
    247 H247        1.5901  -19.8575  -53.7489 H         1 UNK         0.0800 
@<TRIPOS>BOND
     1    1    2 1    
     2    1  127 1    
     3    1  128 1    
     4    1  129 1    
     5    2    3 2    
     6    2    4 am   BACKBONE|DICT|INTERRES
     7    4    5 1    
     8    4  130 1    
     9    5    6 1    
    10    5   65 1    
    11    5  131 1    
    12    6    7 1    
    13    6  132 1    
    14    6  133 1    
    15    7    8 1    
    16    8    9 1    
    17    8  134 1    
    18    8  135 1    
    19    9   10 ar   
    20    9   14 ar   
    21   10   11 ar   
    22   10  136 1    
    23   11   12 ar   
    24   11  126 1    
    25   12   13 ar   
    26   12  137 1    
    27   13   14 ar   
    28   13   15 1    
    29   14  138 1    
    30   15   16 1    
    31   15  139 1    
    32   15  140 1    
    33   16   17 1    
    34   17   18 1    
    35   17  141 1    
    36   17  142 1    
    37   18   19 1    
    38   18   67 1    
    39   18  143 1    
    40   19   20 am   BACKBONE|DICT|INTERRES
    41   19  144 1    
    42   20   21 2    
    43   20   22 1    
    44   22   23 1    
    45   22   24 1    
    46   22  145 1    
    47   23  146 1    
    48   23  147 1    
    49   23  148 1    
    50   24   25 am   BACKBONE|DICT|INTERRES
    51   24  149 1    
    52   25   26 2    
    53   25   27 1    
    54   27   28 1    
    55   27   29 1    
    56   27  150 1    
    57   28  151 1    
    58   28  152 1    
    59   28  153 1    
    60   29   30 am   BACKBONE|DICT|INTERRES
    61   29  154 1    
    62   30   31 2    
    63   30   32 1    
    64   32   33 1    
    65   32   34 1    
    66   32  155 1    
    67   33  156 1    
    68   33  157 1    
    69   33  158 1    
    70   34   35 am   BACKBONE|DICT|INTERRES
    71   34  159 1    
    72   35   36 2    
    73   35   37 1    
    74   37   38 1    
    75   37   39 1    
    76   37  160 1    
    77   38  161 1    
    78   38  162 1    
    79   38  163 1    
    80   39   40 am   BACKBONE|DICT|INTERRES
    81   39  164 1    
    82   40   41 2    
    83   40   42 1    
    84   42   43 1    
    85   42   44 1    
    86   42  165 1    
    87   43  166 1    
    88   43  167 1    
    89   43  168 1    
    90   44   45 am   BACKBONE|DICT|INTERRES
    91   44  169 1    
    92   45   46 2    
    93   45   47 1    
    94   47   48 1    
    95   47   49 1    
    96   47  170 1    
    97   48  171 1    
    98   48  172 1    
    99   48  173 1    
   100   49   50 am   BACKBONE|DICT|INTERRES
   101   49  174 1    
   102   50   51 2    
   103   50   52 1    
   104   52   53 1    
   105   52   54 1    
   106   52  175 1    
   107   53  176 1    
   108   53  177 1    
   109   53  178 1    
   110   54   55 am   BACKBONE|DICT|INTERRES
   111   54  179 1    
   112   55   56 2    
   113   55   57 1    
   114   57   58 1    
   115   57   59 1    
   116   57  180 1    
   117   58  181 1    
   118   58  182 1    
   119   58  183 1    
   120   59   60 am   BACKBONE|DICT|INTERRES
   121   59  184 1    
   122   60   61 2    
   123   60   62 1    
   124   62   63 1    
   125   62   64 1    
   126   62  185 1    
   127   63  186 1    
   128   63  187 1    
   129   63  188 1    
   130   64   65 am   BACKBONE|DICT|INTERRES
   131   64  189 1    
   132   65   66 2    
   133   67   68 2    
   134   67   69 am   BACKBONE|DICT|INTERRES
   135   69   70 1    
   136   69  190 1    
   137   70   71 1    
   138   70   72 1    
   139   70  191 1    
   140   71  192 1    
   141   71  193 1    
   142   71  194 1    
   143   72   73 2    
   144   72   74 am   BACKBONE|DICT|INTERRES
   145   74   75 1    
   146   74  195 1    
   147   75   76 1    
   148   75   77 1    
   149   75  196 1    
   150   76  197 1    
   151   76  198 1    
   152   76  199 1    
   153   77   78 2    
   154   77   79 am   BACKBONE|DICT|INTERRES
   155   79   80 1    
   156   79  200 1    
   157   80   81 1    
   158   80   82 1    
   159   80  201 1    
   160   81  202 1    
   161   81  203 1    
   162   81  204 1    
   163   82   83 2    
   164   82   84 am   BACKBONE|DICT|INTERRES
   165   84   85 1    
   166   84  205 1    
   167   85   86 1    
   168   85   87 1    
   169   85  206 1    
   170   86  207 1    
   171   86  208 1    
   172   86  209 1    
   173   87   88 2    
   174   87   89 am   BACKBONE|DICT|INTERRES
   175   89   90 1    
   176   89  210 1    
   177   90   91 1    
   178   90   92 1    
   179   90  211 1    
   180   91  212 1    
   181   91  213 1    
   182   91  214 1    
   183   92   93 2    
   184   92   94 am   BACKBONE|DICT|INTERRES
   185   94   95 1    
   186   94  215 1    
   187   95   96 1    
   188   95   97 1    
   189   95  216 1    
   190   96  217 1    
   191   96  218 1    
   192   96  219 1    
   193   97   98 2    
   194   97   99 am   BACKBONE|DICT|INTERRES
   195   99  100 1    
   196   99  220 1    
   197  100  101 1    
   198  100  102 1    
   199  100  221 1    
   200  101  222 1    
   201  101  223 1    
   202  101  224 1    
   203  102  103 2    
   204  102  104 am   BACKBONE|DICT|INTERRES
   205  104  105 1    
   206  104  225 1    
   207  105  106 1    
   208  105  107 1    
   209  105  226 1    
   210  106  227 1    
   211  106  228 1    
   212  106  229 1    
   213  107  108 2    
   214  107  109 am   BACKBONE|DICT|INTERRES
   215  109  110 1    
   216  109  230 1    
   217  110  111 1    
   218  110  112 1    
   219  110  231 1    
   220  111  232 1    
   221  111  233 1    
   222  111  234 1    
   223  112  113 2    
   224  112  114 am   BACKBONE|DICT|INTERRES
   225  114  115 1    
   226  114  235 1    
   227  115  116 1    
   228  115  117 1    
   229  115  236 1    
   230  116  237 1    
   231  116  238 1    
   232  116  239 1    
   233  117  118 2    
   234  117  119 am   BACKBONE|DICT|INTERRES
   235  119  120 1    
   236  119  240 1    
   237  120  121 1    
   238  120  124 1    
   239  120  241 1    
   240  121  122 am   BACKBONE|DICT|INTERRES
   241  121  123 2    
   242  122  242 1    
   243  122  243 1    
   244  124  125 1    
   245  124  244 1    
   246  124  245 1    
   247  125  126 1    
   248  126  246 1    
   249  126  247 1    
@<TRIPOS>SUBSTRUCTURE
     1 UNK         1 GROUP             0       ****    0 ROOT    
