@<TRIPOS>MOLECULE
3R540
247   249    1
SMALL
USER_CHARGES


@<TRIPOS>ATOM
      1 CA          0.7357  -10.2521  -48.4765 C.3       0 UNK        -0.1800 
      2 C           0.4968  -11.7284  -48.7604 C.2       0 UNK         0.5000 
      3 O           0.9112  -12.2236  -49.8082 O.2       0 UNK        -0.5000 
      4 N          -0.1718  -12.4255  -47.8326 N.am      1 UNK        -0.5000 
      5 CA         -0.4895  -13.8579  -47.9061 C.3       1 UNK         0.1400 
      6 C6         -1.4671  -14.2745  -46.7792 C.3       23 UNK        -0.0398 
      7 S7         -3.1681  -13.7145  -47.1343 S.3       23 UNK        -0.2404 
      8 C8         -4.0366  -15.2739  -47.5151 C.3       23 UNK        -0.0205 
      9 C9         -3.4967  -15.9671  -48.7585 C.ar      23 UNK        -0.0193 
     10 C10        -4.0220  -15.6746  -50.0198 C.ar      23 UNK        -0.1150 
     11 C11        -3.5379  -16.3314  -51.1546 C.ar      23 UNK        -0.0193 
     12 C12        -2.5079  -17.2656  -51.0223 C.ar      23 UNK        -0.1150 
     13 C13        -1.9648  -17.5677  -49.7720 C.ar      23 UNK        -0.0193 
     14 C14        -2.4847  -16.9236  -48.6424 C.ar      23 UNK        -0.1150 
     15 C15        -0.8088  -18.5698  -49.7100 C.3       23 UNK        -0.0205 
     16 S16        -0.1904  -18.9816  -48.0408 S.3       23 UNK        -0.2404 
     17 C17        -1.5425  -20.0265  -47.4065 C.3       23 UNK        -0.0398 
     18 CA         -0.9901  -21.2120  -46.5845 C.3       11 UNK         0.1400 
     19 N          -0.2975  -20.7497  -45.3786 N.am      11 UNK        -0.5000 
     20 C           0.6874  -21.3980  -44.7448 C.2       10 UNK         0.5000 
     21 O           1.1135  -22.5014  -45.0849 O.2       10 UNK        -0.5000 
     22 CA          1.2615  -20.7001  -43.4967 C.3       10 UNK         0.1400 
     23 CB          2.3886  -19.7333  -43.8945 C.3       10 UNK        -0.1800 
     24 N           0.2189  -19.9778  -42.7596 N.am      10 UNK        -0.5000 
     25 C          -0.7348  -20.5932  -42.0412 C.2       9 UNK         0.5000 
     26 O          -0.7435  -21.8065  -41.8368 O.2       9 UNK        -0.5000 
     27 CA         -1.9017  -19.7440  -41.4998 C.3       9 UNK         0.1400 
     28 CB         -1.7737  -19.5143  -39.9867 C.3       9 UNK        -0.1800 
     29 N          -2.0554  -18.4623  -42.1904 N.am      9 UNK        -0.5000 
     30 C          -2.5469  -18.3407  -43.4331 C.2       8 UNK         0.5000 
     31 O          -2.9161  -19.2991  -44.1114 O.2       8 UNK        -0.5000 
     32 CA         -2.6059  -16.9275  -44.0450 C.3       8 UNK         0.1400 
     33 CB         -3.9914  -16.3056  -43.8176 C.3       8 UNK        -0.1800 
     34 N          -1.5869  -16.0078  -43.5378 N.am      8 UNK        -0.5000 
     35 C          -0.2632  -16.1883  -43.6315 C.2       7 UNK         0.5000 
     36 O           0.2485  -17.1688  -44.1716 O.2       7 UNK        -0.5000 
     37 CA          0.6437  -15.1278  -42.9717 C.3       7 UNK         0.1400 
     38 CB         -0.0990  -13.8488  -42.5259 C.3       7 UNK        -0.1800 
     39 N           1.4006  -15.6836  -41.8469 N.am      7 UNK        -0.5000 
     40 C           0.9080  -16.3434  -40.7846 C.2       6 UNK         0.5000 
     41 O          -0.2895  -16.5833  -40.6243 O.2       6 UNK        -0.5000 
     42 CA          1.9128  -16.8158  -39.7125 C.3       6 UNK         0.1400 
     43 CB          2.2859  -18.2901  -39.9340 C.3       6 UNK        -0.1800 
     44 N           3.1452  -16.0294  -39.6803 N.am      6 UNK        -0.5000 
     45 C           3.2392  -14.7410  -39.3241 C.2       5 UNK         0.5000 
     46 O           2.3031  -14.0891  -38.8604 O.2       5 UNK        -0.5000 
     47 CA          4.6053  -14.0582  -39.5489 C.3       5 UNK         0.1400 
     48 CB          5.3722  -13.9423  -38.2225 C.3       5 UNK        -0.1800 
     49 N           5.4629  -14.7270  -40.5372 N.am      5 UNK        -0.5000 
     50 C           5.1682  -14.8907  -41.8340 C.2       4 UNK         0.5000 
     51 O           4.1000  -14.5443  -42.3439 O.2       4 UNK        -0.5000 
     52 CA          6.2118  -15.6361  -42.6836 C.3       4 UNK         0.1400 
     53 CB          5.9050  -17.1426  -42.6910 C.3       4 UNK        -0.1800 
     54 N           6.2185  -15.1531  -44.0620 N.am      4 UNK        -0.5000 
     55 C           6.6602  -13.9509  -44.4572 C.2       3 UNK         0.5000 
     56 O           7.2142  -13.1452  -43.7079 O.2       3 UNK        -0.5000 
     57 CA          6.4516  -13.5892  -45.9418 C.3       3 UNK         0.1400 
     58 CB          7.7368  -13.8464  -46.7440 C.3       3 UNK        -0.1800 
     59 N           5.3489  -14.3352  -46.5553 N.am      3 UNK        -0.5000 
     60 C           4.0534  -14.0710  -46.3464 C.2       2 UNK         0.5000 
     61 O           3.6403  -13.1198  -45.6770 O.2       2 UNK        -0.5000 
     62 CA          3.0558  -15.0503  -46.9758 C.3       2 UNK         0.1400 
     63 CB          2.9612  -16.3499  -46.1519 C.3       2 UNK        -0.1800 
     64 N           1.7530  -14.3990  -47.0542 N.am      2 UNK        -0.5000 
     65 C           0.7764  -14.7409  -47.9014 C.2       1 UNK         0.5000 
     66 O           0.8589  -15.6853  -48.6853 O.2       1 UNK        -0.5000 
     67 C          -2.1079  -22.2277  -46.2779 C.2       11 UNK         0.5000 
     68 O          -2.6640  -22.7959  -47.2175 O.2       11 UNK        -0.5000 
     69 N          -2.4201  -22.4629  -44.9940 N.am      12 UNK        -0.5000 
     70 CA         -3.3853  -23.4720  -44.5493 C.3       12 UNK         0.1400 
     71 CB         -3.5897  -23.3562  -43.0324 C.3       12 UNK        -0.1800 
     72 C          -2.9659  -24.9028  -44.9395 C.2       12 UNK         0.5000 
     73 O          -3.8279  -25.7264  -45.2496 O.2       12 UNK        -0.5000 
     74 N          -1.6481  -25.1494  -44.9823 N.am      13 UNK        -0.5000 
     75 CA         -1.0337  -26.3427  -45.5572 C.3       13 UNK         0.1400 
     76 CB          0.4777  -26.3136  -45.2805 C.3       13 UNK        -0.1800 
     77 C          -1.3280  -26.4162  -47.0675 C.2       13 UNK         0.5000 
     78 O          -0.8568  -25.5646  -47.8230 O.2       13 UNK        -0.5000 
     79 N          -2.1458  -27.4037  -47.4550 N.am      14 UNK        -0.5000 
     80 CA         -2.6866  -27.6391  -48.7996 C.3       14 UNK         0.1400 
     81 CB         -1.5618  -27.8786  -49.8299 C.3       14 UNK        -0.1800 
     82 C          -3.7019  -26.5752  -49.2741 C.2       14 UNK         0.5000 
     83 O          -4.0107  -26.5432  -50.4651 O.2       14 UNK        -0.5000 
     84 N          -4.2259  -25.7526  -48.3499 N.am      15 UNK        -0.5000 
     85 CA         -5.2914  -24.7579  -48.5381 C.3       15 UNK         0.1400 
     86 CB         -6.6537  -25.4750  -48.6299 C.3       15 UNK        -0.1800 
     87 C          -5.0480  -23.8024  -49.7271 C.2       15 UNK         0.5000 
     88 O          -5.8553  -23.7506  -50.6568 O.2       15 UNK        -0.5000 
     89 N          -3.9090  -23.0971  -49.6923 N.am      16 UNK        -0.5000 
     90 CA         -3.4155  -22.1663  -50.7155 C.3       16 UNK         0.1400 
     91 CB         -4.2850  -20.8921  -50.7450 C.3       16 UNK        -0.1800 
     92 C          -3.2576  -22.8356  -52.0994 C.2       16 UNK         0.5000 
     93 O          -3.6519  -22.2657  -53.1200 O.2       16 UNK        -0.5000 
     94 N          -2.7087  -24.0607  -52.0825 N.am      17 UNK        -0.5000 
     95 CA         -2.5309  -24.9760  -53.2148 C.3       17 UNK         0.1400 
     96 CB         -1.5066  -24.4063  -54.2197 C.3       17 UNK        -0.1800 
     97 C          -3.8780  -25.3461  -53.8678 C.2       17 UNK         0.5000 
     98 O          -4.0381  -25.2033  -55.0789 O.2       17 UNK        -0.5000 
     99 N          -4.8425  -25.7639  -53.0356 N.am      18 UNK        -0.5000 
    100 CA        -6.2481  -26.0268  -53.3697 C.3       18 UNK         0.1400 
    101 CB        -6.3724  -27.2987  -54.2336 C.3       18 UNK        -0.1800 
    102 C         -6.9421  -24.7959  -53.9954 C.2       18 UNK         0.5000 
    103 O         -7.6865  -24.9232  -54.9694 O.2       18 UNK        -0.5000 
    104 N         -6.6433  -23.6200  -53.4262 N.am      19 UNK        -0.5000 
    105 CA        -7.0576  -22.2775  -53.8398 C.3       19 UNK         0.1400 
    106 CB        -8.5791  -22.1002  -53.6558 C.3       19 UNK        -0.1800 
    107 C         -6.5723  -21.8551  -55.2461 C.2       19 UNK         0.5000 
    108 O         -7.1561  -20.9420  -55.8330 O.2       19 UNK        -0.5000 
    109 N         -5.5168  -22.4980  -55.7692 N.am      20 UNK        -0.5000 
    110 CA        -4.9083  -22.1534  -57.0574 C.3       20 UNK         0.1400 
    111 CB        -4.1483  -23.3648  -57.6164 C.3       20 UNK        -0.1800 
    112 C         -3.9721  -20.9343  -56.9694 C.2       20 UNK         0.5000 
    113 O         -3.7241  -20.2949  -57.9940 O.2       20 UNK        -0.5000 
    114 N         -3.4584  -20.6315  -55.7678 N.am      21 UNK        -0.5000 
    115 CA        -2.6207  -19.4613  -55.5049 C.3       21 UNK         0.1400 
    116 CB        -2.0256  -19.5763  -54.0957 C.3       21 UNK        -0.1800 
    117 C         -3.3986  -18.1391  -55.6670 C.2       21 UNK         0.5000 
    118 O         -4.6180  -18.1107  -55.4860 O.2       21 UNK        -0.5000 
    119 N         -2.6645  -17.0709  -56.0001 N.am      22 UNK        -0.5000 
    120 CA        -3.1678  -15.7144  -56.2987 C.3       22 UNK         0.1400 
    121 C         -3.9339  -15.5862  -57.6531 C.2       22 UNK         0.5000 
    122 N         -3.9690  -16.6044  -58.5048 N.am      22 UNK        -0.7600 
    123 O         -4.4803  -14.5294  -57.9585 O.2       22 UNK        -0.5000 
    124 C124       -3.9506  -15.0467  -55.1291 C.3       23 UNK        -0.0398 
    125 S125       -3.0382  -15.0294  -53.5468 S.3       23 UNK        -0.2404 
    126 C126       -4.1359  -16.0579  -52.5239 C.3       23 UNK        -0.0205 
    127 H127        0.2882   -9.6417  -49.2610 H         1 UNK         0.0600 
    128 H128        1.8054  -10.0441  -48.4494 H         1 UNK         0.0600 
    129 H129        0.3060   -9.9470  -47.5220 H         1 UNK         0.0600 
    130 H130       -0.5074  -11.9458  -47.0098 H         1 UNK         0.3000 
    131 H131       -0.9792  -14.0359  -48.8667 H         1 UNK         0.0600 
    132 H132       -1.4658  -15.3506  -46.6186 H         1 UNK         0.0800 
    133 H133       -1.1553  -13.8473  -45.8253 H         1 UNK         0.0800 
    134 H134       -3.9792  -15.9456  -46.6598 H         1 UNK         0.0800 
    135 H135       -5.0971  -15.0560  -47.6503 H         1 UNK         0.0800 
    136 H136       -4.8133  -14.9443  -50.1152 H         1 UNK         0.1150 
    137 H137       -2.1204  -17.7537  -51.9034 H         1 UNK         0.1150 
    138 H138       -2.0965  -17.1499  -47.6632 H         1 UNK         0.1150 
    139 H139       -1.0933  -19.4884  -50.2251 H         1 UNK         0.0800 
    140 H140        0.0262  -18.1497  -50.2724 H         1 UNK         0.0800 
    141 H141       -2.1327  -20.3835  -48.2522 H         1 UNK         0.0800 
    142 H142       -2.2146  -19.4151  -46.8025 H         1 UNK         0.0800 
    143 H143       -0.2693  -21.7435  -47.2100 H         1 UNK         0.0600 
    144 H144       -0.5881  -19.8507  -45.0210 H         1 UNK         0.3000 
    145 H145        1.6855  -21.4648  -42.8423 H         1 UNK         0.0600 
    146 H146        3.2192  -20.2750  -44.3482 H         1 UNK         0.0600 
    147 H147        2.0522  -18.9932  -44.6207 H         1 UNK         0.0600 
    148 H148        2.7829  -19.1999  -43.0313 H         1 UNK         0.0600 
    149 H149        0.1536  -18.9802  -42.9233 H         1 UNK         0.3000 
    150 H150       -2.8140  -20.3220  -41.6618 H         1 UNK         0.0600 
    151 H151       -1.7281  -20.4638  -39.4518 H         1 UNK         0.0600 
    152 H152       -2.6312  -18.9647  -39.5984 H         1 UNK         0.0600 
    153 H153       -0.8762  -18.9549  -39.7314 H         1 UNK         0.0600 
    154 H154       -1.7112  -17.6398  -41.7051 H         1 UNK         0.3000 
    155 H155       -2.4455  -17.0367  -45.1187 H         1 UNK         0.0600 
    156 H156       -4.7759  -16.9331  -44.2428 H         1 UNK         0.0600 
    157 H157       -4.0692  -15.3247  -44.2871 H         1 UNK         0.0600 
    158 H158       -4.2073  -16.1849  -42.7552 H         1 UNK         0.0600 
    159 H159       -1.9229  -15.2002  -43.0336 H         1 UNK         0.3000 
    160 H160        1.3746  -14.8339  -43.7256 H         1 UNK         0.0600 
    161 H161       -0.8222  -14.0447  -41.7334 H         1 UNK         0.0600 
    162 H162       -0.6283  -13.3850  -43.3590 H         1 UNK         0.0600 
    163 H163        0.6061  -13.1088  -42.1464 H         1 UNK         0.0600 
    164 H164        2.3999  -15.5115  -41.8865 H         1 UNK         0.3000 
    165 H165        1.4217  -16.7250  -38.7415 H         1 UNK         0.0600 
    166 H166        2.8807  -18.6729  -39.1045 H         1 UNK         0.0600 
    167 H167        1.4014  -18.9211  -40.0138 H         1 UNK         0.0600 
    168 H168        2.8647  -18.4229  -40.8475 H         1 UNK         0.0600 
    169 H169        3.9766  -16.4808  -40.0301 H         1 UNK         0.3000 
    170 H170        4.4031  -13.0501  -39.9166 H         1 UNK         0.0600 
    171 H171        4.7776  -13.4218  -37.4704 H         1 UNK         0.0600 
    172 H172        5.6269  -14.9228  -37.8184 H         1 UNK         0.0600 
    173 H173        6.2971  -13.3790  -38.3485 H         1 UNK         0.0600 
    174 H174        6.3528  -15.0613  -40.1954 H         1 UNK         0.3000 
    175 H175        7.2035  -15.4771  -42.2548 H         1 UNK         0.0600 
    176 H176        4.9210  -17.3524  -43.1136 H         1 UNK         0.0600 
    177 H177        6.6438  -17.6928  -43.2741 H         1 UNK         0.0600 
    178 H178        5.9219  -17.5521  -41.6802 H         1 UNK         0.0600 
    179 H179        5.7517  -15.7322  -44.7421 H         1 UNK         0.3000 
    180 H180        6.2255  -12.5219  -45.9936 H         1 UNK         0.0600 
    181 H181        8.0142  -14.9012  -46.7347 H         1 UNK         0.0600 
    182 H182        8.5745  -13.2832  -46.3302 H         1 UNK         0.0600 
    183 H183        7.6216  -13.5377  -47.7832 H         1 UNK         0.0600 
    184 H184        5.6057  -15.1229  -47.1333 H         1 UNK         0.3000 
    185 H185        3.3971  -15.2830  -47.9869 H         1 UNK         0.0600 
    186 H186        3.9038  -16.8972  -46.1738 H         1 UNK         0.0600 
    187 H187        2.7270  -16.1508  -45.1065 H         1 UNK         0.0600 
    188 H188        2.1934  -17.0187  -46.5423 H         1 UNK         0.0600 
    189 H189        1.6705  -13.5648  -46.4864 H         1 UNK         0.3000 
    190 H190       -1.9403  -21.9377  -44.2779 H         1 UNK         0.3000 
    191 H191       -4.3376  -23.2602  -45.0399 H         1 UNK         0.0600 
    192 H192       -3.9166  -22.3545  -42.7531 H         1 UNK         0.0600 
    193 H193       -4.3533  -24.0551  -42.6888 H         1 UNK         0.0600 
    194 H194       -2.6735  -23.5781  -42.4845 H         1 UNK         0.0600 
    195 H195       -1.0190  -24.3927  -44.7552 H         1 UNK         0.3000 
    196 H196       -1.4551  -27.2196  -45.0612 H         1 UNK         0.0600 
    197 H197        0.9680  -27.1920  -45.7018 H         1 UNK         0.0600 
    198 H198        0.6825  -26.3082  -44.2098 H         1 UNK         0.0600 
    199 H199        0.9512  -25.4320  -45.7155 H         1 UNK         0.0600 
    200 H200       -2.5012  -28.0257  -46.7414 H         1 UNK         0.3000 
    201 H201       -3.2552  -28.5671  -48.7259 H         1 UNK         0.0600 
    202 H202       -0.8536  -28.6274  -49.4753 H         1 UNK         0.0600 
    203 H203       -1.0065  -26.9662  -50.0479 H         1 UNK         0.0600 
    204 H204       -1.9682  -28.2418  -50.7746 H         1 UNK         0.0600 
    205 H205       -3.8978  -25.8514  -47.3963 H         1 UNK         0.3000 
    206 H206       -5.3013  -24.1384  -47.6400 H         1 UNK         0.0600 
    207 H207       -6.8350  -26.0893  -47.7480 H         1 UNK         0.0600 
    208 H208       -7.4711  -24.7561  -48.6979 H         1 UNK         0.0600 
    209 H209       -6.7112  -26.1217  -49.5064 H         1 UNK         0.0600 
    210 H210       -3.3327  -23.1765  -48.8549 H         1 UNK         0.3000 
    211 H211       -2.4123  -21.8721  -50.4047 H         1 UNK         0.0600 
    212 H212       -5.2978  -21.0995  -51.0901 H         1 UNK         0.0600 
    213 H213       -3.8605  -20.1395  -51.4076 H         1 UNK         0.0600 
    214 H214       -4.3551  -20.4415  -49.7550 H         1 UNK         0.0600 
    215 H215       -2.4794  -24.4480  -51.1781 H         1 UNK         0.3000 
    216 H216       -2.1200  -25.9010  -52.8076 H         1 UNK         0.0600 
    217 H217       -1.2957  -25.1269  -55.0107 H         1 UNK         0.0600 
    218 H218       -0.5607  -24.1760  -53.7298 H         1 UNK         0.0600 
    219 H219       -1.8664  -23.4946  -54.6979 H         1 UNK         0.0600 
    220 H220       -4.6013  -25.8783  -52.0519 H         1 UNK         0.3000 
    221 H221       -6.7559  -26.2162  -52.4229 H         1 UNK         0.0600 
    222 H222       -5.9233  -27.1655  -55.2183 H         1 UNK         0.0600 
    223 H223       -5.8855  -28.1482  -53.7548 H         1 UNK         0.0600 
    224 H224       -7.4185  -27.5673  -54.3845 H         1 UNK         0.0600 
    225 H225       -6.0660  -23.6479  -52.5894 H         1 UNK         0.3000 
    226 H226       -6.5649  -21.5952  -53.1464 H         1 UNK         0.0600 
    227 H227       -8.8894  -22.3837  -52.6500 H         1 UNK         0.0600 
    228 H228       -8.8745  -21.0607  -53.8024 H         1 UNK         0.0600 
    229 H229       -9.1453  -22.7040  -54.3654 H         1 UNK         0.0600 
    230 H230       -5.0822  -23.2476  -55.2436 H         1 UNK         0.3000 
    231 H231       -5.7041  -21.9084  -57.7639 H         1 UNK         0.0600 
    232 H232       -3.2741  -23.6051  -57.0105 H         1 UNK         0.0600 
    233 H233       -3.7960  -23.1681  -58.6296 H         1 UNK         0.0600 
    234 H234       -4.7851  -24.2487  -57.6588 H         1 UNK         0.0600 
    235 H235       -3.7127  -21.1985  -54.9662 H         1 UNK         0.3000 
    236 H236       -1.8003  -19.4716  -56.2256 H         1 UNK         0.0600 
    237 H237       -1.4777  -20.5106  -53.9705 H         1 UNK         0.0600 
    238 H238       -1.3287  -18.7613  -53.8978 H         1 UNK         0.0600 
    239 H239       -2.8056  -19.5401  -53.3367 H         1 UNK         0.0600 
    240 H240       -1.6685  -17.1891  -56.1196 H         1 UNK         0.3000 
    241 H241       -2.2677  -15.1172  -56.4484 H         1 UNK         0.0600 
    242 H242       -4.4575  -16.4997  -59.3803 H         1 UNK         0.3800 
    243 H243       -3.5432  -17.4887  -58.2734 H         1 UNK         0.3800 
    244 H244       -4.1728  -14.0068  -55.3736 H         1 UNK         0.0800 
    245 H245       -4.9200  -15.5284  -54.9955 H         1 UNK         0.0800 
    246 H246       -4.3228  -17.0084  -53.0244 H         1 UNK         0.0800 
    247 H247       -5.1045  -15.5649  -52.4274 H         1 UNK         0.0800 
@<TRIPOS>BOND
     1    1    2 1    
     2    1  127 1    
     3    1  128 1    
     4    1  129 1    
     5    2    3 2    
     6    2    4 am   BACKBONE|DICT|INTERRES
     7    4    5 1    
     8    4  130 1    
     9    5    6 1    
    10    5   65 1    
    11    5  131 1    
    12    6    7 1    
    13    6  132 1    
    14    6  133 1    
    15    7    8 1    
    16    8    9 1    
    17    8  134 1    
    18    8  135 1    
    19    9   10 ar   
    20    9   14 ar   
    21   10   11 ar   
    22   10  136 1    
    23   11   12 ar   
    24   11  126 1    
    25   12   13 ar   
    26   12  137 1    
    27   13   14 ar   
    28   13   15 1    
    29   14  138 1    
    30   15   16 1    
    31   15  139 1    
    32   15  140 1    
    33   16   17 1    
    34   17   18 1    
    35   17  141 1    
    36   17  142 1    
    37   18   19 1    
    38   18   67 1    
    39   18  143 1    
    40   19   20 am   BACKBONE|DICT|INTERRES
    41   19  144 1    
    42   20   21 2    
    43   20   22 1    
    44   22   23 1    
    45   22   24 1    
    46   22  145 1    
    47   23  146 1    
    48   23  147 1    
    49   23  148 1    
    50   24   25 am   BACKBONE|DICT|INTERRES
    51   24  149 1    
    52   25   26 2    
    53   25   27 1    
    54   27   28 1    
    55   27   29 1    
    56   27  150 1    
    57   28  151 1    
    58   28  152 1    
    59   28  153 1    
    60   29   30 am   BACKBONE|DICT|INTERRES
    61   29  154 1    
    62   30   31 2    
    63   30   32 1    
    64   32   33 1    
    65   32   34 1    
    66   32  155 1    
    67   33  156 1    
    68   33  157 1    
    69   33  158 1    
    70   34   35 am   BACKBONE|DICT|INTERRES
    71   34  159 1    
    72   35   36 2    
    73   35   37 1    
    74   37   38 1    
    75   37   39 1    
    76   37  160 1    
    77   38  161 1    
    78   38  162 1    
    79   38  163 1    
    80   39   40 am   BACKBONE|DICT|INTERRES
    81   39  164 1    
    82   40   41 2    
    83   40   42 1    
    84   42   43 1    
    85   42   44 1    
    86   42  165 1    
    87   43  166 1    
    88   43  167 1    
    89   43  168 1    
    90   44   45 am   BACKBONE|DICT|INTERRES
    91   44  169 1    
    92   45   46 2    
    93   45   47 1    
    94   47   48 1    
    95   47   49 1    
    96   47  170 1    
    97   48  171 1    
    98   48  172 1    
    99   48  173 1    
   100   49   50 am   BACKBONE|DICT|INTERRES
   101   49  174 1    
   102   50   51 2    
   103   50   52 1    
   104   52   53 1    
   105   52   54 1    
   106   52  175 1    
   107   53  176 1    
   108   53  177 1    
   109   53  178 1    
   110   54   55 am   BACKBONE|DICT|INTERRES
   111   54  179 1    
   112   55   56 2    
   113   55   57 1    
   114   57   58 1    
   115   57   59 1    
   116   57  180 1    
   117   58  181 1    
   118   58  182 1    
   119   58  183 1    
   120   59   60 am   BACKBONE|DICT|INTERRES
   121   59  184 1    
   122   60   61 2    
   123   60   62 1    
   124   62   63 1    
   125   62   64 1    
   126   62  185 1    
   127   63  186 1    
   128   63  187 1    
   129   63  188 1    
   130   64   65 am   BACKBONE|DICT|INTERRES
   131   64  189 1    
   132   65   66 2    
   133   67   68 2    
   134   67   69 am   BACKBONE|DICT|INTERRES
   135   69   70 1    
   136   69  190 1    
   137   70   71 1    
   138   70   72 1    
   139   70  191 1    
   140   71  192 1    
   141   71  193 1    
   142   71  194 1    
   143   72   73 2    
   144   72   74 am   BACKBONE|DICT|INTERRES
   145   74   75 1    
   146   74  195 1    
   147   75   76 1    
   148   75   77 1    
   149   75  196 1    
   150   76  197 1    
   151   76  198 1    
   152   76  199 1    
   153   77   78 2    
   154   77   79 am   BACKBONE|DICT|INTERRES
   155   79   80 1    
   156   79  200 1    
   157   80   81 1    
   158   80   82 1    
   159   80  201 1    
   160   81  202 1    
   161   81  203 1    
   162   81  204 1    
   163   82   83 2    
   164   82   84 am   BACKBONE|DICT|INTERRES
   165   84   85 1    
   166   84  205 1    
   167   85   86 1    
   168   85   87 1    
   169   85  206 1    
   170   86  207 1    
   171   86  208 1    
   172   86  209 1    
   173   87   88 2    
   174   87   89 am   BACKBONE|DICT|INTERRES
   175   89   90 1    
   176   89  210 1    
   177   90   91 1    
   178   90   92 1    
   179   90  211 1    
   180   91  212 1    
   181   91  213 1    
   182   91  214 1    
   183   92   93 2    
   184   92   94 am   BACKBONE|DICT|INTERRES
   185   94   95 1    
   186   94  215 1    
   187   95   96 1    
   188   95   97 1    
   189   95  216 1    
   190   96  217 1    
   191   96  218 1    
   192   96  219 1    
   193   97   98 2    
   194   97   99 am   BACKBONE|DICT|INTERRES
   195   99  100 1    
   196   99  220 1    
   197  100  101 1    
   198  100  102 1    
   199  100  221 1    
   200  101  222 1    
   201  101  223 1    
   202  101  224 1    
   203  102  103 2    
   204  102  104 am   BACKBONE|DICT|INTERRES
   205  104  105 1    
   206  104  225 1    
   207  105  106 1    
   208  105  107 1    
   209  105  226 1    
   210  106  227 1    
   211  106  228 1    
   212  106  229 1    
   213  107  108 2    
   214  107  109 am   BACKBONE|DICT|INTERRES
   215  109  110 1    
   216  109  230 1    
   217  110  111 1    
   218  110  112 1    
   219  110  231 1    
   220  111  232 1    
   221  111  233 1    
   222  111  234 1    
   223  112  113 2    
   224  112  114 am   BACKBONE|DICT|INTERRES
   225  114  115 1    
   226  114  235 1    
   227  115  116 1    
   228  115  117 1    
   229  115  236 1    
   230  116  237 1    
   231  116  238 1    
   232  116  239 1    
   233  117  118 2    
   234  117  119 am   BACKBONE|DICT|INTERRES
   235  119  120 1    
   236  119  240 1    
   237  120  121 1    
   238  120  124 1    
   239  120  241 1    
   240  121  122 am   BACKBONE|DICT|INTERRES
   241  121  123 2    
   242  122  242 1    
   243  122  243 1    
   244  124  125 1    
   245  124  244 1    
   246  124  245 1    
   247  125  126 1    
   248  126  246 1    
   249  126  247 1    
@<TRIPOS>SUBSTRUCTURE
     1 UNK         1 GROUP             0       ****    0 ROOT    
