@<TRIPOS>MOLECULE
3R540
247   249    1
SMALL
USER_CHARGES


@<TRIPOS>ATOM
      1 CA         -1.9709  -12.8292  -52.7243 C.3       0 UNK        -0.1800 
      2 C          -0.8691  -12.9302  -51.6787 C.2       0 UNK         0.5000 
      3 O          -1.1430  -13.2728  -50.5287 O.2       0 UNK        -0.5000 
      4 N           0.3675  -12.5741  -52.0598 N.am      1 UNK        -0.5000 
      5 CA          1.6027  -12.6126  -51.2508 C.3       1 UNK         0.1400 
      6 C6          1.9908  -14.0456  -50.7818 C.3       23 UNK        -0.0398 
      7 S7          2.0522  -15.2780  -52.1256 S.3       23 UNK        -0.2404 
      8 C8          3.1977  -16.5249  -51.4395 C.3       23 UNK        -0.0205 
      9 C9          2.8414  -17.9420  -51.8783 C.ar      23 UNK        -0.0193 
     10 C10         2.6136  -18.2334  -53.2268 C.ar      23 UNK        -0.1150 
     11 C11         2.2255  -19.5146  -53.6238 C.ar      23 UNK        -0.0193 
     12 C12         2.0899  -20.5195  -52.6626 C.ar      23 UNK        -0.1150 
     13 C13         2.3399  -20.2576  -51.3117 C.ar      23 UNK        -0.0193 
     14 C14         2.7272  -18.9659  -50.9307 C.ar      23 UNK        -0.1150 
     15 C15         2.2017  -21.3927  -50.2979 C.3       23 UNK        -0.0205 
     16 S16         1.4658  -20.8879  -48.7039 S.3       23 UNK        -0.2404 
     17 C17         2.9446  -20.7976  -47.6262 C.3       23 UNK        -0.0398 
     18 CA          3.1565  -21.9516  -46.5982 C.3       11 UNK         0.1400 
     19 N           2.5952  -21.6455  -45.2787 N.am      11 UNK        -0.5000 
     20 C           3.0228  -22.1956  -44.1310 C.2       10 UNK         0.5000 
     21 O           3.9439  -23.0107  -44.0663 O.2       10 UNK        -0.5000 
     22 CA          2.2996  -21.7799  -42.8359 C.3       10 UNK         0.1400 
     23 CB          2.8927  -20.4877  -42.2534 C.3       10 UNK        -0.1800 
     24 N           0.8609  -21.6263  -43.0457 N.am      10 UNK        -0.5000 
     25 C           0.0253  -22.6631  -43.1885 C.2       9 UNK         0.5000 
     26 O           0.3737  -23.8312  -43.0309 O.2       9 UNK        -0.5000 
     27 CA         -1.4295  -22.3656  -43.5961 C.3       9 UNK         0.1400 
     28 CB         -2.3487  -22.3321  -42.3673 C.3       9 UNK        -0.1800 
     29 N          -1.5782  -21.1225  -44.3548 N.am      9 UNK        -0.5000 
     30 C          -1.1156  -20.9369  -45.5983 C.2       8 UNK         0.5000 
     31 O          -0.5915  -21.8297  -46.2602 O.2       8 UNK        -0.5000 
     32 CA         -1.1923  -19.5075  -46.1720 C.3       8 UNK         0.1400 
     33 CB         -2.5645  -19.2264  -46.7934 C.3       8 UNK        -0.1800 
     34 N          -0.8907  -18.4888  -45.1674 N.am      8 UNK        -0.5000 
     35 C           0.3068  -18.3483  -44.5838 C.2       7 UNK         0.5000 
     36 O           1.2928  -19.0142  -44.8963 O.2       7 UNK        -0.5000 
     37 CA          0.4035  -17.3511  -43.4170 C.3       7 UNK         0.1400 
     38 CB          0.6944  -15.9297  -43.9184 C.3       7 UNK        -0.1800 
     39 N          -0.8144  -17.3510  -42.6053 N.am      7 UNK        -0.5000 
     40 C          -1.1240  -18.3038  -41.7148 C.2       6 UNK         0.5000 
     41 O          -0.3894  -19.2558  -41.4551 O.2       6 UNK        -0.5000 
     42 CA         -2.4947  -18.1912  -41.0188 C.3       6 UNK         0.1400 
     43 CB         -2.3951  -17.2949  -39.7756 C.3       6 UNK        -0.1800 
     44 N          -3.5450  -17.6773  -41.9003 N.am      6 UNK        -0.5000 
     45 C          -4.0228  -18.3282  -42.9707 C.2       5 UNK         0.5000 
     46 O          -3.6509  -19.4520  -43.3018 O.2       5 UNK        -0.5000 
     47 CA         -5.0376  -17.5716  -43.8526 C.3       5 UNK         0.1400 
     48 CB         -6.4703  -17.8207  -43.3597 C.3       5 UNK        -0.1800 
     49 N          -4.7898  -16.1257  -43.9269 N.am      5 UNK        -0.5000 
     50 C          -3.6504  -15.5761  -44.3675 C.2       4 UNK         0.5000 
     51 O          -2.6888  -16.2444  -44.7586 O.2       4 UNK        -0.5000 
     52 CA         -3.5428  -14.0408  -44.2976 C.3       4 UNK         0.1400 
     53 CB         -3.5076  -13.5692  -42.8339 C.3       4 UNK        -0.1800 
     54 N          -2.3034  -13.6185  -44.9450 N.am      4 UNK        -0.5000 
     55 C          -2.1922  -13.2477  -46.2231 C.2       3 UNK         0.5000 
     56 O          -3.1466  -12.9718  -46.9540 O.2       3 UNK        -0.5000 
     57 CA         -0.7631  -13.2685  -46.7845 C.3       3 UNK         0.1400 
     58 CB         -0.4741  -14.6336  -47.4294 C.3       3 UNK        -0.1800 
     59 N          -0.5543  -12.2287  -47.7849 N.am      3 UNK        -0.5000 
     60 C          -0.1678  -10.9733  -47.5173 C.2       2 UNK         0.5000 
     61 O          -0.0202  -10.5417  -46.3722 O.2       2 UNK        -0.5000 
     62 CA          0.1258  -10.0588  -48.7326 C.3       2 UNK         0.1400 
     63 CB          1.1319   -8.9336  -48.4121 C.3       2 UNK        -0.1800 
     64 N           0.5390  -10.8133  -49.9234 N.am      2 UNK        -0.5000 
     65 C           1.5936  -11.6373  -50.0443 C.2       1 UNK         0.5000 
     66 O           2.5169  -11.6801  -49.2300 O.2       1 UNK        -0.5000 
     67 C           2.7430  -23.3581  -47.0952 C.2       11 UNK         0.5000 
     68 O           3.5839  -24.0691  -47.6486 O.2       11 UNK        -0.5000 
     69 N           1.4771  -23.7433  -46.8780 N.am      12 UNK        -0.5000 
     70 CA          0.9039  -25.0131  -47.3117 C.3       12 UNK         0.1400 
     71 CB          0.5147  -24.9337  -48.7997 C.3       12 UNK        -0.1800 
     72 C          -0.2989  -25.3562  -46.4219 C.2       12 UNK         0.5000 
     73 O          -1.4325  -24.9949  -46.7469 O.2       12 UNK        -0.5000 
     74 N          -0.0351  -26.0591  -45.3129 N.am      13 UNK        -0.5000 
     75 CA         -1.0204  -26.4590  -44.2989 C.3       13 UNK         0.1400 
     76 CB         -0.2944  -27.1791  -43.1517 C.3       13 UNK        -0.1800 
     77 C          -2.1690  -27.3374  -44.8287 C.2       13 UNK         0.5000 
     78 O          -3.2761  -27.2748  -44.2937 O.2       13 UNK        -0.5000 
     79 N          -1.8902  -28.1266  -45.8747 N.am      14 UNK        -0.5000 
     80 CA         -2.8673  -28.9720  -46.5615 C.3       14 UNK         0.1400 
     81 CB         -2.1168  -29.9733  -47.4530 C.3       14 UNK        -0.1800 
     82 C          -3.8874  -28.1707  -47.3948 C.2       14 UNK         0.5000 
     83 O          -4.9919  -28.6643  -47.6264 O.2       14 UNK        -0.5000 
     84 N          -3.5020  -26.9656  -47.8355 N.am      15 UNK        -0.5000 
     85 CA         -4.3397  -26.0641  -48.6214 C.3       15 UNK         0.1400 
     86 CB         -3.4805  -25.3927  -49.7048 C.3       15 UNK        -0.1800 
     87 C          -4.9986  -25.0072  -47.7237 C.2       15 UNK         0.5000 
     88 O          -6.2085  -24.8031  -47.8168 O.2       15 UNK        -0.5000 
     89 N          -4.1809  -24.3388  -46.8945 N.am      16 UNK        -0.5000 
     90 CA         -4.5305  -23.2525  -45.9680 C.3       16 UNK         0.1400 
     91 CB         -5.4614  -23.7600  -44.8494 C.3       16 UNK        -0.1800 
     92 C          -5.0562  -21.9640  -46.6419 C.2       16 UNK         0.5000 
     93 O          -5.5618  -21.0782  -45.9523 O.2       16 UNK        -0.5000 
     94 N          -4.9042  -21.8651  -47.9680 N.am      17 UNK        -0.5000 
     95 CA         -5.3238  -20.7321  -48.7939 C.3       17 UNK         0.1400 
     96 CB         -6.8133  -20.8796  -49.1563 C.3       17 UNK        -0.1800 
     97 C          -4.4442  -20.5818  -50.0503 C.2       17 UNK         0.5000 
     98 O          -4.7879  -19.7936  -50.9310 O.2       17 UNK        -0.5000 
     99 N          -3.3302  -21.3292  -50.1285 N.am      18 UNK        -0.5000 
    100 CA        -2.4474  -21.3882  -51.2979 C.3       18 UNK         0.1400 
    101 CB        -1.3592  -22.4448  -51.0735 C.3       18 UNK        -0.1800 
    102 C         -1.8163  -20.0357  -51.6634 C.2       18 UNK         0.5000 
    103 O         -1.8125  -19.6743  -52.8376 O.2       18 UNK        -0.5000 
    104 N         -1.3471  -19.2933  -50.6507 N.am      19 UNK        -0.5000 
    105 CA        -0.7643  -17.9612  -50.8215 C.3       19 UNK         0.1400 
    106 CB        -0.2019  -17.4652  -49.4817 C.3       19 UNK        -0.1800 
    107 C         -1.7646  -16.9470  -51.4013 C.2       19 UNK         0.5000 
    108 O         -1.4062  -16.1860  -52.2970 O.2       19 UNK        -0.5000 
    109 N         -3.0139  -17.0008  -50.9166 N.am      20 UNK        -0.5000 
    110 CA        -4.1240  -16.1878  -51.4080 C.3       20 UNK         0.1400 
    111 CB        -5.3148  -16.3032  -50.4439 C.3       20 UNK        -0.1800 
    112 C         -4.5279  -16.5674  -52.8446 C.2       20 UNK         0.5000 
    113 O         -4.7231  -15.6770  -53.6729 O.2       20 UNK        -0.5000 
    114 N         -4.6013  -17.8768  -53.1279 N.am      21 UNK        -0.5000 
    115 CA        -4.8934  -18.4353  -54.4518 C.3       21 UNK         0.1400 
    116 CB        -5.0499  -19.9596  -54.3433 C.3       21 UNK        -0.1800 
    117 C         -3.8432  -18.0634  -55.5183 C.2       21 UNK         0.5000 
    118 O         -4.2081  -17.8349  -56.6724 O.2       21 UNK        -0.5000 
    119 N         -2.5738  -17.9661  -55.1058 N.am      22 UNK        -0.5000 
    120 CA        -1.4585  -17.4329  -55.9044 C.3       22 UNK         0.1400 
    121 C         -1.4959  -15.8892  -56.1299 C.2       22 UNK         0.5000 
    122 N         -2.4190  -15.1329  -55.5473 N.am      22 UNK        -0.7600 
    123 O         -0.6764  -15.3630  -56.8783 O.2       22 UNK        -0.5000 
    124 C124       -0.0869  -17.8812  -55.3360 C.3       23 UNK        -0.0398 
    125 S125        0.1863  -19.6785  -55.5022 S.3       23 UNK        -0.2404 
    126 C126        1.9552  -19.8128  -55.0913 C.3       23 UNK        -0.0205 
    127 H127       -2.7596  -12.1627  -52.3761 H         1 UNK         0.0600 
    128 H128       -1.5951  -12.4468  -53.6734 H         1 UNK         0.0600 
    129 H129       -2.4098  -13.8089  -52.9061 H         1 UNK         0.0600 
    130 H130        0.5069  -12.2859  -53.0181 H         1 UNK         0.3000 
    131 H131        2.3969  -12.2573  -51.9088 H         1 UNK         0.0600 
    132 H132        1.2860  -14.4031  -50.0313 H         1 UNK         0.0800 
    133 H133        2.9691  -14.0280  -50.2981 H         1 UNK         0.0800 
    134 H134        3.1862  -16.4612  -50.3503 H         1 UNK         0.0800 
    135 H135        4.2151  -16.2928  -51.7561 H         1 UNK         0.0800 
    136 H136        2.7124  -17.4519  -53.9668 H         1 UNK         0.1150 
    137 H137        1.7884  -21.5104  -52.9722 H         1 UNK         0.1150 
    138 H138        2.9214  -18.7504  -49.8900 H         1 UNK         0.1150 
    139 H139        1.5709  -22.1801  -50.7106 H         1 UNK         0.0800 
    140 H140        3.1774  -21.8536  -50.1424 H         1 UNK         0.0800 
    141 H141        2.9147  -19.8387  -47.1066 H         1 UNK         0.0800 
    142 H142        3.8265  -20.7304  -48.2642 H         1 UNK         0.0800 
    143 H143        4.2377  -22.0043  -46.4498 H         1 UNK         0.0600 
    144 H144        1.8688  -20.9384  -45.2439 H         1 UNK         0.3000 
    145 H145        2.4564  -22.5706  -42.0989 H         1 UNK         0.0600 
    146 H146        2.3679  -20.1856  -41.3469 H         1 UNK         0.0600 
    147 H147        3.9413  -20.6302  -41.9901 H         1 UNK         0.0600 
    148 H148        2.8477  -19.6595  -42.9588 H         1 UNK         0.0600 
    149 H149        0.5024  -20.6858  -43.1369 H         1 UNK         0.3000 
    150 H150       -1.7479  -23.1910  -44.2339 H         1 UNK         0.0600 
    151 H151       -2.2760  -23.2600  -41.7987 H         1 UNK         0.0600 
    152 H152       -3.3919  -22.2107  -42.6596 H         1 UNK         0.0600 
    153 H153       -2.0908  -21.5125  -41.6961 H         1 UNK         0.0600 
    154 H154       -2.0849  -20.3683  -43.8989 H         1 UNK         0.3000 
    155 H155       -0.4431  -19.4238  -46.9608 H         1 UNK         0.0600 
    156 H156       -3.3680  -19.3577  -46.0693 H         1 UNK         0.0600 
    157 H157       -2.7489  -19.9069  -47.6221 H         1 UNK         0.0600 
    158 H158       -2.6288  -18.2095  -47.1803 H         1 UNK         0.0600 
    159 H159       -1.6424  -17.8597  -44.9004 H         1 UNK         0.3000 
    160 H160        1.2422  -17.6593  -42.7891 H         1 UNK         0.0600 
    161 H161        0.8694  -15.2483  -43.0858 H         1 UNK         0.0600 
    162 H162       -0.1311  -15.5340  -44.5055 H         1 UNK         0.0600 
    163 H163        1.5852  -15.9110  -44.5478 H         1 UNK         0.0600 
    164 H164       -1.5025  -16.6441  -42.8200 H         1 UNK         0.3000 
    165 H165       -2.7849  -19.1929  -40.6950 H         1 UNK         0.0600 
    166 H166       -3.3382  -17.2723  -39.2293 H         1 UNK         0.0600 
    167 H167       -1.6320  -17.6639  -39.0889 H         1 UNK         0.0600 
    168 H168       -2.1332  -16.2689  -40.0373 H         1 UNK         0.0600 
    169 H169       -3.9057  -16.7575  -41.6954 H         1 UNK         0.3000 
    170 H170       -4.9539  -17.9729  -44.8645 H         1 UNK         0.0600 
    171 H171       -6.6880  -18.8892  -43.3229 H         1 UNK         0.0600 
    172 H172       -6.6290  -17.4173  -42.3589 H         1 UNK         0.0600 
    173 H173       -7.2021  -17.3653  -44.0270 H         1 UNK         0.0600 
    174 H174       -5.5372  -15.5240  -43.6118 H         1 UNK         0.3000 
    175 H175       -4.4089  -13.6030  -44.7980 H         1 UNK         0.0600 
    176 H176       -2.6883  -14.0286  -42.2791 H         1 UNK         0.0600 
    177 H177       -3.3839  -12.4876  -42.7745 H         1 UNK         0.0600 
    178 H178       -4.4349  -13.8139  -42.3148 H         1 UNK         0.0600 
    179 H179       -1.4595  -13.8549  -44.4457 H         1 UNK         0.3000 
    180 H180       -0.0567  -13.1240  -45.9638 H         1 UNK         0.0600 
    181 H181        0.5700  -14.7122  -47.7314 H         1 UNK         0.0600 
    182 H182       -1.0954  -14.7966  -48.3107 H         1 UNK         0.0600 
    183 H183       -0.6758  -15.4555  -46.7422 H         1 UNK         0.0600 
    184 H184       -0.7235  -12.5019  -48.7488 H         1 UNK         0.3000 
    185 H185       -0.8239   -9.5868  -48.9878 H         1 UNK         0.0600 
    186 H186        0.7469   -8.2764  -47.6316 H         1 UNK         0.0600 
    187 H187        2.0863   -9.3281  -48.0629 H         1 UNK         0.0600 
    188 H188        1.3245   -8.3153  -49.2888 H         1 UNK         0.0600 
    189 H189       -0.1517  -10.8639  -50.6587 H         1 UNK         0.3000 
    190 H190        0.8185  -23.0802  -46.4725 H         1 UNK         0.3000 
    191 H191        1.6454  -25.8058  -47.1930 H         1 UNK         0.0600 
    192 H192       -0.1928  -24.1254  -48.9775 H         1 UNK         0.0600 
    193 H193        0.0476  -25.8607  -49.1341 H         1 UNK         0.0600 
    194 H194        1.3854  -24.7597  -49.4318 H         1 UNK         0.0600 
    195 H195        0.9259  -26.2900  -45.1067 H         1 UNK         0.3000 
    196 H196       -1.4753  -25.5512  -43.9010 H         1 UNK         0.0600 
    197 H197       -0.9924  -27.4587  -42.3614 H         1 UNK         0.0600 
    198 H198        0.4644  -26.5405  -42.6994 H         1 UNK         0.0600 
    199 H199        0.1959  -28.0907  -43.4953 H         1 UNK         0.0600 
    200 H200       -0.9496  -28.1252  -46.2404 H         1 UNK         0.3000 
    201 H201       -3.4243  -29.5345  -45.8091 H         1 UNK         0.0600 
    202 H202       -1.4414  -30.5959  -46.8659 H         1 UNK         0.0600 
    203 H203       -1.5282  -29.4676  -48.2197 H         1 UNK         0.0600 
    204 H204       -2.8129  -30.6417  -47.9615 H         1 UNK         0.0600 
    205 H205       -2.6014  -26.6072  -47.5448 H         1 UNK         0.3000 
    206 H206       -5.1322  -26.6230  -49.1238 H         1 UNK         0.0600 
    207 H207       -3.0647  -26.1326  -50.3889 H         1 UNK         0.0600 
    208 H208       -4.0717  -24.6960  -50.3007 H         1 UNK         0.0600 
    209 H209       -2.6481  -24.8371  -49.2727 H         1 UNK         0.0600 
    210 H210       -3.1917  -24.5851  -46.8988 H         1 UNK         0.3000 
    211 H211       -3.5928  -22.9610  -45.5002 H         1 UNK         0.0600 
    212 H212       -6.4495  -24.0183  -45.2306 H         1 UNK         0.0600 
    213 H213       -5.5967  -23.0014  -44.0775 H         1 UNK         0.0600 
    214 H214       -5.0459  -24.6435  -44.3641 H         1 UNK         0.0600 
    215 H215       -4.5414  -22.6682  -48.4582 H         1 UNK         0.3000 
    216 H216       -5.1992  -19.8089  -48.2245 H         1 UNK         0.0600 
    217 H217       -7.1631  -20.0330  -49.7484 H         1 UNK         0.0600 
    218 H218       -7.4353  -20.9241  -48.2622 H         1 UNK         0.0600 
    219 H219       -6.9948  -21.7858  -49.7353 H         1 UNK         0.0600 
    220 H220       -3.0682  -21.9030  -49.3429 H         1 UNK         0.3000 
    221 H221       -3.0514  -21.7055  -52.1504 H         1 UNK         0.0600 
    222 H222       -0.8005  -22.2462  -50.1599 H         1 UNK         0.0600 
    223 H223       -1.7850  -23.4441  -51.0033 H         1 UNK         0.0600 
    224 H224       -0.6482  -22.4576  -51.9007 H         1 UNK         0.0600 
    225 H225       -1.3648  -19.6739  -49.7178 H         1 UNK         0.3000 
    226 H226        0.0583  -18.0493  -51.5323 H         1 UNK         0.0600 
    227 H227       -0.9829  -17.3489  -48.7310 H         1 UNK         0.0600 
    228 H228        0.5481  -18.1459  -49.0840 H         1 UNK         0.0600 
    229 H229        0.2818  -16.4975  -49.6080 H         1 UNK         0.0600 
    230 H230       -3.2342  -17.7016  -50.2261 H         1 UNK         0.3000 
    231 H231       -3.7984  -15.1456  -51.4148 H         1 UNK         0.0600 
    232 H232       -5.0418  -15.9765  -49.4402 H         1 UNK         0.0600 
    233 H233       -5.6863  -17.3258  -50.3749 H         1 UNK         0.0600 
    234 H234       -6.1436  -15.6763  -50.7749 H         1 UNK         0.0600 
    235 H235       -4.4581  -18.5463  -52.3768 H         1 UNK         0.3000 
    236 H236       -5.8500  -18.0205  -54.7758 H         1 UNK         0.0600 
    237 H237       -5.3258  -20.3924  -55.3055 H         1 UNK         0.0600 
    238 H238       -4.1241  -20.4370  -54.0232 H         1 UNK         0.0600 
    239 H239       -5.8290  -20.2273  -53.6293 H         1 UNK         0.0600 
    240 H240       -2.3462  -18.2560  -54.1597 H         1 UNK         0.3000 
    241 H241       -1.5489  -17.8617  -56.9041 H         1 UNK         0.0600 
    242 H242       -2.4248  -14.1428  -55.7289 H         1 UNK         0.3800 
    243 H243       -3.1139  -15.5304  -54.9266 H         1 UNK         0.3800 
    244 H244        0.7320  -17.3775  -55.8525 H         1 UNK         0.0800 
    245 H245       -0.0059  -17.6023  -54.2840 H         1 UNK         0.0800 
    246 H246        2.2940  -20.8229  -55.3261 H         1 UNK         0.0800 
    247 H247        2.5325  -19.1440  -55.7317 H         1 UNK         0.0800 
@<TRIPOS>BOND
     1    1    2 1    
     2    1  127 1    
     3    1  128 1    
     4    1  129 1    
     5    2    3 2    
     6    2    4 am   BACKBONE|DICT|INTERRES
     7    4    5 1    
     8    4  130 1    
     9    5    6 1    
    10    5   65 1    
    11    5  131 1    
    12    6    7 1    
    13    6  132 1    
    14    6  133 1    
    15    7    8 1    
    16    8    9 1    
    17    8  134 1    
    18    8  135 1    
    19    9   10 ar   
    20    9   14 ar   
    21   10   11 ar   
    22   10  136 1    
    23   11   12 ar   
    24   11  126 1    
    25   12   13 ar   
    26   12  137 1    
    27   13   14 ar   
    28   13   15 1    
    29   14  138 1    
    30   15   16 1    
    31   15  139 1    
    32   15  140 1    
    33   16   17 1    
    34   17   18 1    
    35   17  141 1    
    36   17  142 1    
    37   18   19 1    
    38   18   67 1    
    39   18  143 1    
    40   19   20 am   BACKBONE|DICT|INTERRES
    41   19  144 1    
    42   20   21 2    
    43   20   22 1    
    44   22   23 1    
    45   22   24 1    
    46   22  145 1    
    47   23  146 1    
    48   23  147 1    
    49   23  148 1    
    50   24   25 am   BACKBONE|DICT|INTERRES
    51   24  149 1    
    52   25   26 2    
    53   25   27 1    
    54   27   28 1    
    55   27   29 1    
    56   27  150 1    
    57   28  151 1    
    58   28  152 1    
    59   28  153 1    
    60   29   30 am   BACKBONE|DICT|INTERRES
    61   29  154 1    
    62   30   31 2    
    63   30   32 1    
    64   32   33 1    
    65   32   34 1    
    66   32  155 1    
    67   33  156 1    
    68   33  157 1    
    69   33  158 1    
    70   34   35 am   BACKBONE|DICT|INTERRES
    71   34  159 1    
    72   35   36 2    
    73   35   37 1    
    74   37   38 1    
    75   37   39 1    
    76   37  160 1    
    77   38  161 1    
    78   38  162 1    
    79   38  163 1    
    80   39   40 am   BACKBONE|DICT|INTERRES
    81   39  164 1    
    82   40   41 2    
    83   40   42 1    
    84   42   43 1    
    85   42   44 1    
    86   42  165 1    
    87   43  166 1    
    88   43  167 1    
    89   43  168 1    
    90   44   45 am   BACKBONE|DICT|INTERRES
    91   44  169 1    
    92   45   46 2    
    93   45   47 1    
    94   47   48 1    
    95   47   49 1    
    96   47  170 1    
    97   48  171 1    
    98   48  172 1    
    99   48  173 1    
   100   49   50 am   BACKBONE|DICT|INTERRES
   101   49  174 1    
   102   50   51 2    
   103   50   52 1    
   104   52   53 1    
   105   52   54 1    
   106   52  175 1    
   107   53  176 1    
   108   53  177 1    
   109   53  178 1    
   110   54   55 am   BACKBONE|DICT|INTERRES
   111   54  179 1    
   112   55   56 2    
   113   55   57 1    
   114   57   58 1    
   115   57   59 1    
   116   57  180 1    
   117   58  181 1    
   118   58  182 1    
   119   58  183 1    
   120   59   60 am   BACKBONE|DICT|INTERRES
   121   59  184 1    
   122   60   61 2    
   123   60   62 1    
   124   62   63 1    
   125   62   64 1    
   126   62  185 1    
   127   63  186 1    
   128   63  187 1    
   129   63  188 1    
   130   64   65 am   BACKBONE|DICT|INTERRES
   131   64  189 1    
   132   65   66 2    
   133   67   68 2    
   134   67   69 am   BACKBONE|DICT|INTERRES
   135   69   70 1    
   136   69  190 1    
   137   70   71 1    
   138   70   72 1    
   139   70  191 1    
   140   71  192 1    
   141   71  193 1    
   142   71  194 1    
   143   72   73 2    
   144   72   74 am   BACKBONE|DICT|INTERRES
   145   74   75 1    
   146   74  195 1    
   147   75   76 1    
   148   75   77 1    
   149   75  196 1    
   150   76  197 1    
   151   76  198 1    
   152   76  199 1    
   153   77   78 2    
   154   77   79 am   BACKBONE|DICT|INTERRES
   155   79   80 1    
   156   79  200 1    
   157   80   81 1    
   158   80   82 1    
   159   80  201 1    
   160   81  202 1    
   161   81  203 1    
   162   81  204 1    
   163   82   83 2    
   164   82   84 am   BACKBONE|DICT|INTERRES
   165   84   85 1    
   166   84  205 1    
   167   85   86 1    
   168   85   87 1    
   169   85  206 1    
   170   86  207 1    
   171   86  208 1    
   172   86  209 1    
   173   87   88 2    
   174   87   89 am   BACKBONE|DICT|INTERRES
   175   89   90 1    
   176   89  210 1    
   177   90   91 1    
   178   90   92 1    
   179   90  211 1    
   180   91  212 1    
   181   91  213 1    
   182   91  214 1    
   183   92   93 2    
   184   92   94 am   BACKBONE|DICT|INTERRES
   185   94   95 1    
   186   94  215 1    
   187   95   96 1    
   188   95   97 1    
   189   95  216 1    
   190   96  217 1    
   191   96  218 1    
   192   96  219 1    
   193   97   98 2    
   194   97   99 am   BACKBONE|DICT|INTERRES
   195   99  100 1    
   196   99  220 1    
   197  100  101 1    
   198  100  102 1    
   199  100  221 1    
   200  101  222 1    
   201  101  223 1    
   202  101  224 1    
   203  102  103 2    
   204  102  104 am   BACKBONE|DICT|INTERRES
   205  104  105 1    
   206  104  225 1    
   207  105  106 1    
   208  105  107 1    
   209  105  226 1    
   210  106  227 1    
   211  106  228 1    
   212  106  229 1    
   213  107  108 2    
   214  107  109 am   BACKBONE|DICT|INTERRES
   215  109  110 1    
   216  109  230 1    
   217  110  111 1    
   218  110  112 1    
   219  110  231 1    
   220  111  232 1    
   221  111  233 1    
   222  111  234 1    
   223  112  113 2    
   224  112  114 am   BACKBONE|DICT|INTERRES
   225  114  115 1    
   226  114  235 1    
   227  115  116 1    
   228  115  117 1    
   229  115  236 1    
   230  116  237 1    
   231  116  238 1    
   232  116  239 1    
   233  117  118 2    
   234  117  119 am   BACKBONE|DICT|INTERRES
   235  119  120 1    
   236  119  240 1    
   237  120  121 1    
   238  120  124 1    
   239  120  241 1    
   240  121  122 am   BACKBONE|DICT|INTERRES
   241  121  123 2    
   242  122  242 1    
   243  122  243 1    
   244  124  125 1    
   245  124  244 1    
   246  124  245 1    
   247  125  126 1    
   248  126  246 1    
   249  126  247 1    
@<TRIPOS>SUBSTRUCTURE
     1 UNK         1 GROUP             0       ****    0 ROOT    
