@<TRIPOS>MOLECULE
3R540
247   249    1
SMALL
USER_CHARGES


@<TRIPOS>ATOM
      1 CA          6.9716  -19.6338  -50.0618 C.3       0 UNK        -0.1800 
      2 C           6.5984  -18.4774  -49.1453 C.2       0 UNK         0.5000 
      3 O           7.3652  -17.5228  -49.0185 O.2       0 UNK        -0.5000 
      4 N           5.4246  -18.5607  -48.5069 N.am      1 UNK        -0.5000 
      5 CA          4.8734  -17.5385  -47.6079 C.3       1 UNK         0.1400 
      6 C6          3.7399  -18.1050  -46.7150 C.3       23 UNK        -0.0398 
      7 S7          2.4348  -18.9986  -47.6344 S.3       23 UNK        -0.2404 
      8 C8          1.1322  -17.7379  -47.6551 C.3       23 UNK        -0.0205 
      9 C9         -0.0534  -18.1360  -48.5159 C.ar      23 UNK        -0.0193 
     10 C10         0.1073  -18.2973  -49.8944 C.ar      23 UNK        -0.1150 
     11 C11        -0.9823  -18.6273  -50.7054 C.ar      23 UNK        -0.0193 
     12 C12        -2.2420  -18.7918  -50.1233 C.ar      23 UNK        -0.1150 
     13 C13        -2.4152  -18.6404  -48.7451 C.ar      23 UNK        -0.0193 
     14 C14        -1.3173  -18.3071  -47.9456 C.ar      23 UNK        -0.1150 
     15 C15        -3.7928  -18.8343  -48.1301 C.3       23 UNK        -0.0205 
     16 S16        -4.1287  -20.5842  -47.7588 S.3       23 UNK        -0.2404 
     17 C17        -3.0301  -20.8836  -46.3340 C.3       23 UNK        -0.0398 
     18 CA         -1.7551  -21.6838  -46.6950 C.3       11 UNK         0.1400 
     19 N          -0.7160  -21.5048  -45.6735 N.am      11 UNK        -0.5000 
     20 C           0.5095  -22.0532  -45.6905 C.2       10 UNK         0.5000 
     21 O           0.9353  -22.7301  -46.6269 O.2       10 UNK        -0.5000 
     22 CA          1.3772  -21.8988  -44.4253 C.3       10 UNK         0.1400 
     23 CB          2.5314  -20.9187  -44.6594 C.3       10 UNK        -0.1800 
     24 N           0.6269  -21.4753  -43.2421 N.am      10 UNK        -0.5000 
     25 C          -0.2825  -22.2201  -42.5977 C.2       9 UNK         0.5000 
     26 O          -0.5948  -23.3609  -42.9389 O.2       9 UNK        -0.5000 
     27 CA         -0.9897  -21.5605  -41.3988 C.3       9 UNK         0.1400 
     28 CB         -0.2652  -21.9098  -40.0904 C.3       9 UNK        -0.1800 
     29 N          -1.0890  -20.1027  -41.5179 N.am      9 UNK        -0.5000 
     30 C          -1.8318  -19.4600  -42.4313 C.2       8 UNK         0.5000 
     31 O          -2.5089  -20.0334  -43.2834 O.2       8 UNK        -0.5000 
     32 CA         -1.7773  -17.9226  -42.4088 C.3       8 UNK         0.1400 
     33 CB         -2.8144  -17.3568  -41.4278 C.3       8 UNK        -0.1800 
     34 N          -0.4475  -17.4183  -42.0583 N.am      8 UNK        -0.5000 
     35 C           0.6000  -17.4483  -42.8902 C.2       7 UNK         0.5000 
     36 O           0.5486  -17.8934  -44.0370 O.2       7 UNK        -0.5000 
     37 CA          1.9204  -16.8801  -42.3613 C.3       7 UNK         0.1400 
     38 CB          3.0825  -17.8712  -42.5662 C.3       7 UNK        -0.1800 
     39 N           2.1866  -15.6242  -43.0517 N.am      7 UNK        -0.5000 
     40 C           3.0284  -14.6750  -42.6251 C.2       6 UNK         0.5000 
     41 O           3.7024  -14.7651  -41.5981 O.2       6 UNK        -0.5000 
     42 CA          3.1169  -13.3991  -43.4787 C.3       6 UNK         0.1400 
     43 CB          4.0233  -13.6242  -44.6976 C.3       6 UNK        -0.1800 
     44 N           1.7944  -12.9562  -43.9209 N.am      6 UNK        -0.5000 
     45 C           0.9399  -12.2675  -43.1475 C.2       5 UNK         0.5000 
     46 O           1.2059  -11.8970  -42.0033 O.2       5 UNK        -0.5000 
     47 CA         -0.4437  -11.9269  -43.7391 C.3       5 UNK         0.1400 
     48 CB         -0.4327  -10.5183  -44.3526 C.3       5 UNK        -0.1800 
     49 N          -0.8853  -12.8807  -44.7548 N.am      5 UNK        -0.5000 
     50 C          -1.2176  -14.1564  -44.5157 C.2       4 UNK         0.5000 
     51 O          -1.3020  -14.6341  -43.3860 O.2       4 UNK        -0.5000 
     52 CA         -1.4664  -15.0574  -45.7430 C.3       4 UNK         0.1400 
     53 CB         -2.9685  -15.3140  -45.9311 C.3       4 UNK        -0.1800 
     54 N          -0.9114  -14.5250  -46.9939 N.am      4 UNK        -0.5000 
     55 C           0.3946  -14.3580  -47.2376 C.2       3 UNK         0.5000 
     56 O           1.2784  -14.6074  -46.4143 O.2       3 UNK        -0.5000 
     57 CA          0.7696  -13.7769  -48.6049 C.3       3 UNK         0.1400 
     58 CB          0.9191  -12.2487  -48.5228 C.3       3 UNK        -0.1800 
     59 N           2.0248  -14.3725  -49.0478 N.am      3 UNK        -0.5000 
     60 C           2.3668  -14.6008  -50.3189 C.2       2 UNK         0.5000 
     61 O           1.6704  -14.2566  -51.2735 O.2       2 UNK        -0.5000 
     62 CA          3.6912  -15.3425  -50.6002 C.3       2 UNK         0.1400 
     63 CB          4.8441  -14.3444  -50.8194 C.3       2 UNK        -0.1800 
     64 N           4.0685  -16.3832  -49.6314 N.am      2 UNK        -0.5000 
     65 C           4.4365  -16.2537  -48.3475 C.2       1 UNK         0.5000 
     66 O           4.4442  -15.1819  -47.7442 O.2       1 UNK        -0.5000 
     67 C          -2.0853  -23.1728  -46.9489 C.2       11 UNK         0.5000 
     68 O          -2.3714  -23.5485  -48.0868 O.2       11 UNK        -0.5000 
     69 N          -1.9827  -24.0054  -45.9006 N.am      12 UNK        -0.5000 
     70 CA         -2.1533  -25.4586  -45.9540 C.3       12 UNK         0.1400 
     71 CB         -2.1309  -26.0185  -44.5249 C.3       12 UNK        -0.1800 
     72 C          -1.1146  -26.1814  -46.8342 C.2       12 UNK         0.5000 
     73 O          -1.4100  -27.2669  -47.3330 O.2       12 UNK        -0.5000 
     74 N           0.0626  -25.5722  -47.0232 N.am      13 UNK        -0.5000 
     75 CA          1.1093  -26.0569  -47.9186 C.3       13 UNK         0.1400 
     76 CB          2.4765  -25.8903  -47.2358 C.3       13 UNK        -0.1800 
     77 C           1.0765  -25.3017  -49.2570 C.2       13 UNK         0.5000 
     78 O           1.1834  -25.9306  -50.3099 O.2       13 UNK        -0.5000 
     79 N           0.9404  -23.9699  -49.1943 N.am      14 UNK        -0.5000 
     80 CA          1.0531  -23.0712  -50.3427 C.3       14 UNK         0.1400 
     81 CB          1.2533  -21.6369  -49.8360 C.3       14 UNK        -0.1800 
     82 C          -0.1305  -23.1337  -51.3239 C.2       14 UNK         0.5000 
     83 O           0.0820  -22.9394  -52.5217 O.2       14 UNK        -0.5000 
     84 N          -1.3437  -23.3861  -50.8169 N.am      15 UNK        -0.5000 
     85 CA         -2.5788  -23.3728  -51.6045 C.3       15 UNK         0.1400 
     86 CB         -3.2214  -21.9785  -51.5041 C.3       15 UNK        -0.1800 
     87 C          -3.5588  -24.4819  -51.1888 C.2       15 UNK         0.5000 
     88 O          -4.7315  -24.4116  -51.5541 O.2       15 UNK        -0.5000 
     89 N          -3.0910  -25.4721  -50.4125 N.am      16 UNK        -0.5000 
     90 CA         -3.8761  -26.5810  -49.8481 C.3       16 UNK         0.1400 
     91 CB         -4.3160  -27.5531  -50.9628 C.3       16 UNK        -0.1800 
     92 C          -5.0575  -26.1108  -48.9654 C.2       16 UNK         0.5000 
     93 O          -6.0841  -26.7879  -48.8946 O.2       16 UNK        -0.5000 
     94 N          -4.8863  -24.9431  -48.3270 N.am      17 UNK        -0.5000 
     95 CA         -5.8534  -24.2084  -47.5063 C.3       17 UNK         0.1400 
     96 CB         -6.2518  -25.0155  -46.2522 C.3       17 UNK        -0.1800 
     97 C          -7.0753  -23.6734  -48.2872 C.2       17 UNK         0.5000 
     98 O          -8.0870  -23.3406  -47.6662 O.2       17 UNK        -0.5000 
     99 N          -6.9748  -23.5739  -49.6214 N.am      18 UNK        -0.5000 
    100 CA        -7.9861  -22.9470  -50.4734 C.3       18 UNK         0.1400 
    101 CB        -7.7330  -23.3372  -51.9376 C.3       18 UNK        -0.1800 
    102 C         -7.9776  -21.4146  -50.3205 C.2       18 UNK         0.5000 
    103 O         -6.9362  -20.8278  -50.0181 O.2       18 UNK        -0.5000 
    104 N         -9.1381  -20.7916  -50.5566 N.am      19 UNK        -0.5000 
    105 CA        -9.3057  -19.3386  -50.5570 C.3       19 UNK         0.1400 
    106 CB       -10.8064  -19.0096  -50.5914 C.3       19 UNK        -0.1800 
    107 C         -8.5808  -18.6793  -51.7459 C.2       19 UNK         0.5000 
    108 O         -8.5233  -19.2681  -52.8288 O.2       19 UNK        -0.5000 
    109 N         -8.0803  -17.4565  -51.5215 N.am      20 UNK        -0.5000 
    110 CA        -7.3198  -16.6282  -52.4606 C.3       20 UNK         0.1400 
    111 CB        -8.2105  -16.1607  -53.6349 C.3       20 UNK        -0.1800 
    112 C         -6.0056  -17.3139  -52.8902 C.2       20 UNK         0.5000 
    113 O         -5.0956  -17.4201  -52.0664 O.2       20 UNK        -0.5000 
    114 N         -5.9170  -17.7307  -54.1622 N.am      21 UNK        -0.5000 
    115 CA        -4.7937  -18.3842  -54.8505 C.3       21 UNK         0.1400 
    116 CB        -4.4025  -19.7114  -54.1716 C.3       21 UNK        -0.1800 
    117 C         -3.5742  -17.4653  -55.0620 C.2       21 UNK         0.5000 
    118 O         -3.1290  -17.3031  -56.1987 O.2       21 UNK        -0.5000 
    119 N         -3.0863  -16.8573  -53.9776 N.am      22 UNK        -0.5000 
    120 CA        -2.0238  -15.8389  -53.9647 C.3       22 UNK         0.1400 
    121 C         -2.5718  -14.3801  -54.0044 C.2       22 UNK         0.5000 
    122 N         -3.8791  -14.1549  -54.0675 N.am      22 UNK        -0.7600 
    123 O         -1.7964  -13.4281  -54.0020 O.2       22 UNK        -0.5000 
    124 C124       -1.0588  -16.0565  -52.7704 C.3       23 UNK        -0.0398 
    125 S125        0.0675  -17.4691  -53.0352 S.3       23 UNK        -0.2404 
    126 C126       -0.8028  -18.8374  -52.2034 C.3       23 UNK        -0.0205 
    127 H127        7.9040  -20.0903  -49.7295 H         1 UNK         0.0600 
    128 H128        7.1108  -19.2744  -51.0814 H         1 UNK         0.0600 
    129 H129        6.2013  -20.4054  -50.0755 H         1 UNK         0.0600 
    130 H130        4.8365  -19.3713  -48.6441 H         1 UNK         0.3000 
    131 H131        5.6801  -17.2347  -46.9371 H         1 UNK         0.0600 
    132 H132        3.2949  -17.3204  -46.0988 H         1 UNK         0.0800 
    133 H133        4.1744  -18.8115  -46.0074 H         1 UNK         0.0800 
    134 H134        0.8204  -17.5231  -46.6326 H         1 UNK         0.0800 
    135 H135        1.5510  -16.8200  -48.0565 H         1 UNK         0.0800 
    136 H136        1.0853  -18.1681  -50.3359 H         1 UNK         0.1150 
    137 H137       -3.0933  -19.0473  -50.7390 H         1 UNK         0.1150 
    138 H138       -1.4450  -18.1790  -46.8803 H         1 UNK         0.1150 
    139 H139       -3.9020  -18.2376  -47.2239 H         1 UNK         0.0800 
    140 H140       -4.5546  -18.4744  -48.8241 H         1 UNK         0.0800 
    141 H141       -2.7561  -19.9167  -45.9126 H         1 UNK         0.0800 
    142 H142       -3.6002  -21.3863  -45.5504 H         1 UNK         0.0800 
    143 H143       -1.3461  -21.2810  -47.6233 H         1 UNK         0.0600 
    144 H144       -0.9865  -20.9772  -44.8543 H         1 UNK         0.3000 
    145 H145        1.8076  -22.8803  -44.2161 H         1 UNK         0.0600 
    146 H146        3.2092  -20.8928  -43.8063 H         1 UNK         0.0600 
    147 H147        3.1188  -21.2065  -45.5323 H         1 UNK         0.0600 
    148 H148        2.1615  -19.9077  -44.8266 H         1 UNK         0.0600 
    149 H149        0.7929  -20.5349  -42.9166 H         1 UNK         0.3000 
    150 H150       -2.0022  -21.9668  -41.3498 H         1 UNK         0.0600 
    151 H151       -0.1949  -22.9905  -39.9596 H         1 UNK         0.0600 
    152 H152       -0.7986  -21.5138  -39.2260 H         1 UNK         0.0600 
    153 H153        0.7496  -21.5102  -40.0720 H         1 UNK         0.0600 
    154 H154       -0.5616  -19.5548  -40.8544 H         1 UNK         0.3000 
    155 H155       -2.0307  -17.5658  -43.4098 H         1 UNK         0.0600 
    156 H156       -2.8306  -16.2671  -41.4605 H         1 UNK         0.0600 
    157 H157       -2.6086  -17.6600  -40.4006 H         1 UNK         0.0600 
    158 H158       -3.8179  -17.7031  -41.6787 H         1 UNK         0.0600 
    159 H159       -0.3465  -16.9987  -41.1455 H         1 UNK         0.3000 
    160 H160        1.8140  -16.6838  -41.2922 H         1 UNK         0.0600 
    161 H161        3.2884  -18.0357  -43.6238 H         1 UNK         0.0600 
    162 H162        2.8549  -18.8394  -42.1188 H         1 UNK         0.0600 
    163 H163        4.0002  -17.5098  -42.1024 H         1 UNK         0.0600 
    164 H164        1.6610  -15.4732  -43.9032 H         1 UNK         0.3000 
    165 H165        3.5681  -12.6126  -42.8696 H         1 UNK         0.0600 
    166 H166        3.6689  -14.4494  -45.3147 H         1 UNK         0.0600 
    167 H167        4.0756  -12.7347  -45.3255 H         1 UNK         0.0600 
    168 H168        5.0403  -13.8656  -44.3870 H         1 UNK         0.0600 
    169 H169        1.4995  -13.2672  -44.8393 H         1 UNK         0.3000 
    170 H170       -1.1666  -11.9401  -42.9207 H         1 UNK         0.0600 
    171 H171       -0.1315   -9.7734  -43.6149 H         1 UNK         0.0600 
    172 H172        0.2618  -10.4496  -45.1911 H         1 UNK         0.0600 
    173 H173       -1.4227  -10.2361  -44.7115 H         1 UNK         0.0600 
    174 H174       -0.8600  -12.5672  -45.7131 H         1 UNK         0.3000 
    175 H175       -0.9796  -16.0142  -45.5430 H         1 UNK         0.0600 
    176 H176       -3.3990  -15.7817  -45.0445 H         1 UNK         0.0600 
    177 H177       -3.5146  -14.3876  -46.1130 H         1 UNK         0.0600 
    178 H178       -3.1521  -15.9816  -46.7724 H         1 UNK         0.0600 
    179 H179       -1.5804  -14.2873  -47.7122 H         1 UNK         0.3000 
    180 H180       -0.0229  -14.0276  -49.3137 H         1 UNK         0.0600 
    181 H181        1.7054  -11.9601  -47.8237 H         1 UNK         0.0600 
    182 H182       -0.0076  -11.7798  -48.1901 H         1 UNK         0.0600 
    183 H183        1.1655  -11.8242  -49.4962 H         1 UNK         0.0600 
    184 H184        2.6648  -14.6543  -48.3089 H         1 UNK         0.3000 
    185 H185        3.5429  -15.8736  -51.5420 H         1 UNK         0.0600 
    186 H186        5.0424  -13.7486  -49.9281 H         1 UNK         0.0600 
    187 H187        5.7656  -14.8596  -51.0910 H         1 UNK         0.0600 
    188 H188        4.6088  -13.6505  -51.6273 H         1 UNK         0.0600 
    189 H189        4.0761  -17.3219  -50.0041 H         1 UNK         0.3000 
    190 H190       -1.7065  -23.6249  -45.0041 H         1 UNK         0.3000 
    191 H191       -3.1340  -25.6660  -46.3804 H         1 UNK         0.0600 
    192 H192       -2.3113  -27.0943  -44.5234 H         1 UNK         0.0600 
    193 H193       -2.9034  -25.5590  -43.9080 H         1 UNK         0.0600 
    194 H194       -1.1684  -25.8465  -44.0416 H         1 UNK         0.0600 
    195 H195        0.2152  -24.6610  -46.6082 H         1 UNK         0.3000 
    196 H196        0.9706  -27.1195  -48.1291 H         1 UNK         0.0600 
    197 H197        3.2803  -26.2479  -47.8805 H         1 UNK         0.0600 
    198 H198        2.5241  -26.4625  -46.3093 H         1 UNK         0.0600 
    199 H199        2.6880  -24.8477  -46.9951 H         1 UNK         0.0600 
    200 H200        0.8894  -23.5238  -48.2815 H         1 UNK         0.3000 
    201 H201        1.9497  -23.3541  -50.8984 H         1 UNK         0.0600 
    202 H202        2.1346  -21.5670  -49.1988 H         1 UNK         0.0600 
    203 H203        0.3962  -21.2878  -49.2598 H         1 UNK         0.0600 
    204 H204        1.3964  -20.9431  -50.6650 H         1 UNK         0.0600 
    205 H205       -1.4579  -23.4952  -49.8131 H         1 UNK         0.3000 
    206 H206       -2.3536  -23.5685  -52.6545 H         1 UNK         0.0600 
    207 H207       -2.5476  -21.2132  -51.8854 H         1 UNK         0.0600 
    208 H208       -4.1416  -21.9167  -52.0861 H         1 UNK         0.0600 
    209 H209       -3.4680  -21.7271  -50.4724 H         1 UNK         0.0600 
    210 H210       -2.1139  -25.4493  -50.1594 H         1 UNK         0.3000 
    211 H211       -3.2060  -27.1294  -49.1880 H         1 UNK         0.0600 
    212 H212       -5.0485  -27.0993  -51.6310 H         1 UNK         0.0600 
    213 H213       -4.7697  -28.4514  -50.5427 H         1 UNK         0.0600 
    214 H214       -3.4655  -27.8731  -51.5648 H         1 UNK         0.0600 
    215 H215       -3.9970  -24.4675  -48.4588 H         1 UNK         0.3000 
    216 H216       -5.3228  -23.3219  -47.1585 H         1 UNK         0.0600 
    217 H217       -5.3758  -25.3519  -45.6990 H         1 UNK         0.0600 
    218 H218       -6.8452  -24.4077  -45.5683 H         1 UNK         0.0600 
    219 H219       -6.8474  -25.8926  -46.5055 H         1 UNK         0.0600 
    220 H220       -6.1138  -23.8518  -50.0787 H         1 UNK         0.3000 
    221 H221       -8.9670  -23.3271  -50.1797 H         1 UNK         0.0600 
    222 H222       -8.5336  -22.9729  -52.5824 H         1 UNK         0.0600 
    223 H223       -6.7994  -22.9133  -52.3096 H         1 UNK         0.0600 
    224 H224       -7.6830  -24.4196  -52.0579 H         1 UNK         0.0600 
    225 H225       -9.9398  -21.3352  -50.8404 H         1 UNK         0.3000 
    226 H226       -8.8858  -18.9483  -49.6273 H         1 UNK         0.0600 
    227 H227      -11.2813  -19.3911  -51.4963 H         1 UNK         0.0600 
    228 H228      -11.3249  -19.4376  -49.7331 H         1 UNK         0.0600 
    229 H229      -10.9711  -17.9317  -50.5647 H         1 UNK         0.0600 
    230 H230       -8.1669  -17.0730  -50.5908 H         1 UNK         0.3000 
    231 H231       -7.0231  -15.7353  -51.9081 H         1 UNK         0.0600 
    232 H232       -7.6622  -15.4955  -54.3032 H         1 UNK         0.0600 
    233 H233       -9.0718  -15.6027  -53.2675 H         1 UNK         0.0600 
    234 H234       -8.5905  -16.9911  -54.2305 H         1 UNK         0.0600 
    235 H235       -6.7324  -17.5845  -54.7407 H         1 UNK         0.3000 
    236 H236       -5.1673  -18.6340  -55.8448 H         1 UNK         0.0600 
    237 H237       -5.2507  -20.3949  -54.1301 H         1 UNK         0.0600 
    238 H238       -3.6057  -20.2126  -54.7223 H         1 UNK         0.0600 
    239 H239       -4.0491  -19.5626  -53.1522 H         1 UNK         0.0600 
    240 H240       -3.5595  -17.0310  -53.0947 H         1 UNK         0.3000 
    241 H241       -1.4357  -15.9333  -54.8794 H         1 UNK         0.0600 
    242 H242       -4.2165  -13.2056  -54.1041 H         1 UNK         0.3800 
    243 H243       -4.5278  -14.9223  -54.1053 H         1 UNK         0.3800 
    244 H244       -1.6107  -16.1731  -51.8368 H         1 UNK         0.0800 
    245 H245       -0.4176  -15.1858  -52.6276 H         1 UNK         0.0800 
    246 H246       -1.7648  -18.9853  -52.6929 H         1 UNK         0.0800 
    247 H247       -0.2378  -19.7575  -52.3583 H         1 UNK         0.0800 
@<TRIPOS>BOND
     1    1    2 1    
     2    1  127 1    
     3    1  128 1    
     4    1  129 1    
     5    2    3 2    
     6    2    4 am   BACKBONE|DICT|INTERRES
     7    4    5 1    
     8    4  130 1    
     9    5    6 1    
    10    5   65 1    
    11    5  131 1    
    12    6    7 1    
    13    6  132 1    
    14    6  133 1    
    15    7    8 1    
    16    8    9 1    
    17    8  134 1    
    18    8  135 1    
    19    9   10 ar   
    20    9   14 ar   
    21   10   11 ar   
    22   10  136 1    
    23   11   12 ar   
    24   11  126 1    
    25   12   13 ar   
    26   12  137 1    
    27   13   14 ar   
    28   13   15 1    
    29   14  138 1    
    30   15   16 1    
    31   15  139 1    
    32   15  140 1    
    33   16   17 1    
    34   17   18 1    
    35   17  141 1    
    36   17  142 1    
    37   18   19 1    
    38   18   67 1    
    39   18  143 1    
    40   19   20 am   BACKBONE|DICT|INTERRES
    41   19  144 1    
    42   20   21 2    
    43   20   22 1    
    44   22   23 1    
    45   22   24 1    
    46   22  145 1    
    47   23  146 1    
    48   23  147 1    
    49   23  148 1    
    50   24   25 am   BACKBONE|DICT|INTERRES
    51   24  149 1    
    52   25   26 2    
    53   25   27 1    
    54   27   28 1    
    55   27   29 1    
    56   27  150 1    
    57   28  151 1    
    58   28  152 1    
    59   28  153 1    
    60   29   30 am   BACKBONE|DICT|INTERRES
    61   29  154 1    
    62   30   31 2    
    63   30   32 1    
    64   32   33 1    
    65   32   34 1    
    66   32  155 1    
    67   33  156 1    
    68   33  157 1    
    69   33  158 1    
    70   34   35 am   BACKBONE|DICT|INTERRES
    71   34  159 1    
    72   35   36 2    
    73   35   37 1    
    74   37   38 1    
    75   37   39 1    
    76   37  160 1    
    77   38  161 1    
    78   38  162 1    
    79   38  163 1    
    80   39   40 am   BACKBONE|DICT|INTERRES
    81   39  164 1    
    82   40   41 2    
    83   40   42 1    
    84   42   43 1    
    85   42   44 1    
    86   42  165 1    
    87   43  166 1    
    88   43  167 1    
    89   43  168 1    
    90   44   45 am   BACKBONE|DICT|INTERRES
    91   44  169 1    
    92   45   46 2    
    93   45   47 1    
    94   47   48 1    
    95   47   49 1    
    96   47  170 1    
    97   48  171 1    
    98   48  172 1    
    99   48  173 1    
   100   49   50 am   BACKBONE|DICT|INTERRES
   101   49  174 1    
   102   50   51 2    
   103   50   52 1    
   104   52   53 1    
   105   52   54 1    
   106   52  175 1    
   107   53  176 1    
   108   53  177 1    
   109   53  178 1    
   110   54   55 am   BACKBONE|DICT|INTERRES
   111   54  179 1    
   112   55   56 2    
   113   55   57 1    
   114   57   58 1    
   115   57   59 1    
   116   57  180 1    
   117   58  181 1    
   118   58  182 1    
   119   58  183 1    
   120   59   60 am   BACKBONE|DICT|INTERRES
   121   59  184 1    
   122   60   61 2    
   123   60   62 1    
   124   62   63 1    
   125   62   64 1    
   126   62  185 1    
   127   63  186 1    
   128   63  187 1    
   129   63  188 1    
   130   64   65 am   BACKBONE|DICT|INTERRES
   131   64  189 1    
   132   65   66 2    
   133   67   68 2    
   134   67   69 am   BACKBONE|DICT|INTERRES
   135   69   70 1    
   136   69  190 1    
   137   70   71 1    
   138   70   72 1    
   139   70  191 1    
   140   71  192 1    
   141   71  193 1    
   142   71  194 1    
   143   72   73 2    
   144   72   74 am   BACKBONE|DICT|INTERRES
   145   74   75 1    
   146   74  195 1    
   147   75   76 1    
   148   75   77 1    
   149   75  196 1    
   150   76  197 1    
   151   76  198 1    
   152   76  199 1    
   153   77   78 2    
   154   77   79 am   BACKBONE|DICT|INTERRES
   155   79   80 1    
   156   79  200 1    
   157   80   81 1    
   158   80   82 1    
   159   80  201 1    
   160   81  202 1    
   161   81  203 1    
   162   81  204 1    
   163   82   83 2    
   164   82   84 am   BACKBONE|DICT|INTERRES
   165   84   85 1    
   166   84  205 1    
   167   85   86 1    
   168   85   87 1    
   169   85  206 1    
   170   86  207 1    
   171   86  208 1    
   172   86  209 1    
   173   87   88 2    
   174   87   89 am   BACKBONE|DICT|INTERRES
   175   89   90 1    
   176   89  210 1    
   177   90   91 1    
   178   90   92 1    
   179   90  211 1    
   180   91  212 1    
   181   91  213 1    
   182   91  214 1    
   183   92   93 2    
   184   92   94 am   BACKBONE|DICT|INTERRES
   185   94   95 1    
   186   94  215 1    
   187   95   96 1    
   188   95   97 1    
   189   95  216 1    
   190   96  217 1    
   191   96  218 1    
   192   96  219 1    
   193   97   98 2    
   194   97   99 am   BACKBONE|DICT|INTERRES
   195   99  100 1    
   196   99  220 1    
   197  100  101 1    
   198  100  102 1    
   199  100  221 1    
   200  101  222 1    
   201  101  223 1    
   202  101  224 1    
   203  102  103 2    
   204  102  104 am   BACKBONE|DICT|INTERRES
   205  104  105 1    
   206  104  225 1    
   207  105  106 1    
   208  105  107 1    
   209  105  226 1    
   210  106  227 1    
   211  106  228 1    
   212  106  229 1    
   213  107  108 2    
   214  107  109 am   BACKBONE|DICT|INTERRES
   215  109  110 1    
   216  109  230 1    
   217  110  111 1    
   218  110  112 1    
   219  110  231 1    
   220  111  232 1    
   221  111  233 1    
   222  111  234 1    
   223  112  113 2    
   224  112  114 am   BACKBONE|DICT|INTERRES
   225  114  115 1    
   226  114  235 1    
   227  115  116 1    
   228  115  117 1    
   229  115  236 1    
   230  116  237 1    
   231  116  238 1    
   232  116  239 1    
   233  117  118 2    
   234  117  119 am   BACKBONE|DICT|INTERRES
   235  119  120 1    
   236  119  240 1    
   237  120  121 1    
   238  120  124 1    
   239  120  241 1    
   240  121  122 am   BACKBONE|DICT|INTERRES
   241  121  123 2    
   242  122  242 1    
   243  122  243 1    
   244  124  125 1    
   245  124  244 1    
   246  124  245 1    
   247  125  126 1    
   248  126  246 1    
   249  126  247 1    
@<TRIPOS>SUBSTRUCTURE
     1 UNK         1 GROUP             0       ****    0 ROOT    
