@<TRIPOS>MOLECULE
3R540
247   249    1
SMALL
USER_CHARGES


@<TRIPOS>ATOM
      1 CA          0.8525  -10.3331  -50.0720 C.3       0 UNK        -0.1800 
      2 C           0.0966  -11.0885  -48.9883 C.2       0 UNK         0.5000 
      3 O          -1.0797  -10.8102  -48.7592 O.2       0 UNK        -0.5000 
      4 N           0.7770  -12.0251  -48.3114 N.am      1 UNK        -0.5000 
      5 CA          0.2621  -12.9257  -47.2626 C.3       1 UNK         0.1400 
      6 C6         -0.9307  -13.8116  -47.7298 C.3       23 UNK        -0.0398 
      7 S7         -0.4855  -14.8885  -49.1387 S.3       23 UNK        -0.2404 
      8 C8         -1.2223  -16.4763  -48.6356 C.3       23 UNK        -0.0205 
      9 C9         -0.7253  -17.6264  -49.4983 C.ar      23 UNK        -0.0193 
     10 C10        -1.5761  -18.2435  -50.4190 C.ar      23 UNK        -0.1150 
     11 C11        -1.1284  -19.3195  -51.1924 C.ar      23 UNK        -0.0193 
     12 C12         0.1868  -19.7723  -51.0436 C.ar      23 UNK        -0.1150 
     13 C13         1.0465  -19.1667  -50.1212 C.ar      23 UNK        -0.0193 
     14 C14         0.5822  -18.0967  -49.3506 C.ar      23 UNK        -0.1150 
     15 C15         2.4848  -19.6466  -49.9724 C.3       23 UNK        -0.0205 
     16 S16         2.6213  -21.2875  -49.1893 S.3       23 UNK        -0.2404 
     17 C17         1.9957  -20.9774  -47.5003 C.3       23 UNK        -0.0398 
     18 CA          1.0277  -22.0803  -47.0063 C.3       11 UNK         0.1400 
     19 N           0.7669  -21.9844  -45.5693 N.am      11 UNK        -0.5000 
     20 C           0.0834  -22.8842  -44.8466 C.2       10 UNK         0.5000 
     21 O          -0.3403  -23.9497  -45.2970 O.2       10 UNK        -0.5000 
     22 CA         -0.2296  -22.4988  -43.3883 C.3       10 UNK         0.1400 
     23 CB          0.9727  -22.7687  -42.4715 C.3       10 UNK        -0.1800 
     24 N          -0.6467  -21.1005  -43.2618 N.am      10 UNK        -0.5000 
     25 C          -1.7655  -20.5998  -43.8069 C.2       9 UNK         0.5000 
     26 O          -2.5930  -21.2802  -44.4130 O.2       9 UNK        -0.5000 
     27 CA         -1.9763  -19.0797  -43.6976 C.3       9 UNK         0.1400 
     28 CB         -2.5704  -18.7130  -42.3298 C.3       9 UNK        -0.1800 
     29 N          -0.7462  -18.3201  -43.9296 N.am      9 UNK        -0.5000 
     30 C          -0.0782  -18.2998  -45.0920 C.2       8 UNK         0.5000 
     31 O          -0.4615  -18.8822  -46.1034 O.2       8 UNK        -0.5000 
     32 CA          1.2707  -17.5599  -45.1239 C.3       8 UNK         0.1400 
     33 CB          1.0775  -16.0483  -45.2907 C.3       8 UNK        -0.1800 
     34 N           2.0733  -17.8157  -43.9331 N.am      8 UNK        -0.5000 
     35 C           2.5624  -19.0116  -43.5830 C.2       7 UNK         0.5000 
     36 O           2.4184  -20.0329  -44.2538 O.2       7 UNK        -0.5000 
     37 CA          3.2968  -19.0811  -42.2349 C.3       7 UNK         0.1400 
     38 CB          4.7574  -18.6298  -42.3841 C.3       7 UNK        -0.1800 
     39 N           2.6327  -18.2676  -41.2165 N.am      7 UNK        -0.5000 
     40 C           1.4537  -18.5732  -40.6580 C.2       6 UNK         0.5000 
     41 O           0.8164  -19.5946  -40.9197 O.2       6 UNK        -0.5000 
     42 CA          0.8773  -17.5419  -39.6697 C.3       6 UNK         0.1400 
     43 CB          1.5504  -17.6686  -38.2947 C.3       6 UNK        -0.1800 
     44 N           1.0060  -16.1640  -40.1515 N.am      6 UNK        -0.5000 
     45 C           0.3434  -15.6776  -41.2099 C.2       5 UNK         0.5000 
     46 O          -0.4474  -16.3398  -41.8784 O.2       5 UNK        -0.5000 
     47 CA          0.6313  -14.2221  -41.6192 C.3       5 UNK         0.1400 
     48 CB         -0.2574  -13.2489  -40.8313 C.3       5 UNK        -0.1800 
     49 N           2.0293  -13.8045  -41.4952 N.am      5 UNK        -0.5000 
     50 C           3.0875  -14.4099  -42.0494 C.2       4 UNK         0.5000 
     51 O           3.0351  -15.5046  -42.6098 O.2       4 UNK        -0.5000 
     52 CA          4.4088  -13.6188  -42.0180 C.3       4 UNK         0.1400 
     53 CB          5.6021  -14.4376  -42.5425 C.3       4 UNK        -0.1800 
     54 N           4.2808  -12.4012  -42.8207 N.am      4 UNK        -0.5000 
     55 C           3.7071  -11.2631  -42.4093 C.2       3 UNK         0.5000 
     56 O           3.2771  -11.1011  -41.2661 O.2       3 UNK        -0.5000 
     57 CA          3.5639  -10.1368  -43.4510 C.3       3 UNK         0.1400 
     58 CB          4.7295  -10.0919  -44.4579 C.3       3 UNK        -0.1800 
     59 N           2.3031  -10.2524  -44.1854 N.am      3 UNK        -0.5000 
     60 C           1.0924   -9.9357  -43.7030 C.2       2 UNK         0.5000 
     61 O           0.8998   -9.5095  -42.5642 O.2       2 UNK        -0.5000 
     62 CA         -0.1101  -10.0782  -44.6559 C.3       2 UNK         0.1400 
     63 CB         -0.5724   -8.6934  -45.1375 C.3       2 UNK        -0.1800 
     64 N           0.1750  -10.9025  -45.8325 N.am      2 UNK        -0.5000 
     65 C          -0.0359  -12.2228  -45.9137 C.2       1 UNK         0.5000 
     66 O          -0.4299  -12.8956  -44.9610 O.2       1 UNK        -0.5000 
     67 C          -0.2853  -22.1189  -47.8132 C.2       11 UNK         0.5000 
     68 O          -0.4586  -23.0295  -48.6194 O.2       11 UNK        -0.5000 
     69 N          -1.2048  -21.1820  -47.5404 N.am      12 UNK        -0.5000 
     70 CA         -2.5217  -21.0967  -48.1717 C.3       12 UNK         0.1400 
     71 CB         -3.2623  -19.8487  -47.6689 C.3       12 UNK        -0.1800 
     72 C          -3.3788  -22.3542  -47.9570 C.2       12 UNK         0.5000 
     73 O          -3.9814  -22.8423  -48.9124 O.2       12 UNK        -0.5000 
     74 N          -3.3917  -22.8719  -46.7206 N.am      13 UNK        -0.5000 
     75 CA         -4.0795  -24.1061  -46.3431 C.3       13 UNK         0.1400 
     76 CB         -3.9711  -24.3164  -44.8253 C.3       13 UNK        -0.1800 
     77 C          -3.5581  -25.3352  -47.1092 C.2       13 UNK         0.5000 
     78 O          -4.3635  -26.1166  -47.6174 O.2       13 UNK        -0.5000 
     79 N          -2.2270  -25.4609  -47.2073 N.am      14 UNK        -0.5000 
     80 CA         -1.5503  -26.5109  -47.9687 C.3       14 UNK         0.1400 
     81 CB         -0.0523  -26.5045  -47.6273 C.3       14 UNK        -0.1800 
     82 C          -1.7684  -26.3750  -49.4873 C.2       14 UNK         0.5000 
     83 O          -2.0530  -27.3696  -50.1567 O.2       14 UNK        -0.5000 
     84 N          -1.6586  -25.1449  -50.0024 N.am      15 UNK        -0.5000 
     85 CA         -1.8281  -24.7788  -51.4067 C.3       15 UNK         0.1400 
     86 CB         -1.0622  -23.4748  -51.6743 C.3       15 UNK        -0.1800 
     87 C          -3.3125  -24.6906  -51.8147 C.2       15 UNK         0.5000 
     88 O          -3.7857  -23.6316  -52.2337 O.2       15 UNK        -0.5000 
     89 N          -4.0036  -25.8334  -51.7093 N.am      16 UNK        -0.5000 
     90 CA         -5.3636  -26.1018  -52.1851 C.3       16 UNK         0.1400 
     91 CB         -5.3998  -26.0674  -53.7280 C.3       16 UNK        -0.1800 
     92 C          -6.4556  -25.2282  -51.5293 C.2       16 UNK         0.5000 
     93 O          -7.4661  -24.9342  -52.1695 O.2       16 UNK        -0.5000 
     94 N          -6.2464  -24.8667  -50.2539 N.am      17 UNK        -0.5000 
     95 CA         -7.1398  -24.0703  -49.4041 C.3       17 UNK         0.1400 
     96 CB         -8.4356  -24.8474  -49.0896 C.3       17 UNK        -0.1800 
     97 C          -7.3929  -22.6514  -49.9588 C.2       17 UNK         0.5000 
     98 O          -8.5396  -22.2029  -50.0216 O.2       17 UNK        -0.5000 
     99 N          -6.2892  -21.9808  -50.3147 N.am      18 UNK        -0.5000 
    100 CA        -6.1532  -20.6285  -50.8600 C.3       18 UNK         0.1400 
    101 CB        -6.8120  -19.5803  -49.9411 C.3       18 UNK        -0.1800 
    102 C         -6.6424  -20.4819  -52.3140 C.2       18 UNK         0.5000 
    103 O         -7.5070  -21.2273  -52.7779 O.2       18 UNK        -0.5000 
    104 N         -6.0636  -19.4898  -53.0045 N.am      19 UNK        -0.5000 
    105 CA        -6.3111  -19.0198  -54.3755 C.3       19 UNK         0.1400 
    106 CB        -7.7500  -18.4912  -54.5249 C.3       19 UNK        -0.1800 
    107 C         -5.9766  -20.0208  -55.5005 C.2       19 UNK         0.5000 
    108 O         -5.3947  -19.6226  -56.5100 O.2       19 UNK        -0.5000 
    109 N         -6.3670  -21.2863  -55.3266 N.am      20 UNK        -0.5000 
    110 CA        -6.3619  -22.3272  -56.3522 C.3       20 UNK         0.1400 
    111 CB        -7.2509  -23.4860  -55.8747 C.3       20 UNK        -0.1800 
    112 C         -4.9700  -22.8341  -56.7767 C.2       20 UNK         0.5000 
    113 O         -4.8582  -23.3851  -57.8733 O.2       20 UNK        -0.5000 
    114 N         -3.9436  -22.6608  -55.9324 N.am      21 UNK        -0.5000 
    115 CA        -2.5910  -23.1663  -56.1885 C.3       21 UNK         0.1400 
    116 CB        -2.4649  -24.6106  -55.6652 C.3       21 UNK        -0.1800 
    117 C         -1.4915  -22.2332  -55.6492 C.2       21 UNK         0.5000 
    118 O         -0.4053  -22.7084  -55.3147 O.2       21 UNK        -0.5000 
    119 N         -1.7679  -20.9235  -55.5816 N.am      22 UNK        -0.5000 
    120 CA        -0.7943  -19.9050  -55.1352 C.3       22 UNK         0.1400 
    121 C          0.2763  -19.5181  -56.1991 C.2       22 UNK         0.5000 
    122 N          0.1613  -19.9454  -57.4508 N.am      22 UNK        -0.7600 
    123 O          1.2353  -18.8204  -55.8809 O.2       22 UNK        -0.5000 
    124 C124       -1.4727  -18.6319  -54.5612 C.3       23 UNK        -0.0398 
    125 S125       -2.8298  -18.9276  -53.3774 S.3       23 UNK        -0.2404 
    126 C126       -2.0852  -20.0323  -52.1377 C.3       23 UNK        -0.0205 
    127 H127        0.3683  -10.4801  -51.0374 H         1 UNK         0.0600 
    128 H128        1.8863  -10.6692  -50.1560 H         1 UNK         0.0600 
    129 H129        0.8585   -9.2657  -49.8515 H         1 UNK         0.0600 
    130 H130        1.7442  -12.1830  -48.5584 H         1 UNK         0.3000 
    131 H131        1.0931  -13.5961  -47.0409 H         1 UNK         0.0600 
    132 H132       -1.2816  -14.4399  -46.9098 H         1 UNK         0.0800 
    133 H133       -1.7875  -13.2006  -48.0150 H         1 UNK         0.0800 
    134 H134       -0.9854  -16.6930  -47.5956 H         1 UNK         0.0800 
    135 H135       -2.3090  -16.3955  -48.6887 H         1 UNK         0.0800 
    136 H136       -2.5946  -17.8977  -50.5244 H         1 UNK         0.1150 
    137 H137        0.5404  -20.6084  -51.6305 H         1 UNK         0.1150 
    138 H138        1.2376  -17.6225  -48.6339 H         1 UNK         0.1150 
    139 H139        2.9435  -19.6936  -50.9610 H         1 UNK         0.0800 
    140 H140        3.0752  -18.9298  -49.3996 H         1 UNK         0.0800 
    141 H141        1.5239  -19.9973  -47.4450 H         1 UNK         0.0800 
    142 H142        2.8630  -20.9273  -46.8408 H         1 UNK         0.0800 
    143 H143        1.5237  -23.0414  -47.1592 H         1 UNK         0.0600 
    144 H144        1.1285  -21.1593  -45.0989 H         1 UNK         0.3000 
    145 H145       -1.0580  -23.1252  -43.0510 H         1 UNK         0.0600 
    146 H146        0.7317  -22.5481  -41.4314 H         1 UNK         0.0600 
    147 H147        1.2727  -23.8160  -42.5218 H         1 UNK         0.0600 
    148 H148        1.8379  -22.1665  -42.7477 H         1 UNK         0.0600 
    149 H149       -0.0316  -20.4814  -42.7471 H         1 UNK         0.3000 
    150 H150       -2.6955  -18.7903  -44.4663 H         1 UNK         0.0600 
    151 H151       -3.4803  -19.2812  -42.1326 H         1 UNK         0.0600 
    152 H152       -2.8331  -17.6560  -42.2865 H         1 UNK         0.0600 
    153 H153       -1.8710  -18.9178  -41.5186 H         1 UNK         0.0600 
    154 H154       -0.4071  -17.7604  -43.1519 H         1 UNK         0.3000 
    155 H155        1.8338  -17.9252  -45.9850 H         1 UNK         0.0600 
    156 H156        0.4378  -15.6331  -44.5123 H         1 UNK         0.0600 
    157 H157        0.6178  -15.8260  -46.2502 H         1 UNK         0.0600 
    158 H158        2.0300  -15.5189  -45.2611 H         1 UNK         0.0600 
    159 H159        2.2889  -17.0127  -43.3459 H         1 UNK         0.3000 
    160 H160        3.2930  -20.1214  -41.9026 H         1 UNK         0.0600 
    161 H161        4.8290  -17.5956  -42.7221 H         1 UNK         0.0600 
    162 H162        5.2826  -19.2490  -43.1123 H         1 UNK         0.0600 
    163 H163        5.2946  -18.7124  -41.4393 H         1 UNK         0.0600 
    164 H164        3.0535  -17.3745  -41.0044 H         1 UNK         0.3000 
    165 H165       -0.1859  -17.7603  -39.5474 H         1 UNK         0.0600 
    166 H166        1.0884  -17.0009  -37.5672 H         1 UNK         0.0600 
    167 H167        1.4572  -18.6840  -37.9072 H         1 UNK         0.0600 
    168 H168        2.6138  -17.4309  -38.3408 H         1 UNK         0.0600 
    169 H169        1.6466  -15.5580  -39.6603 H         1 UNK         0.3000 
    170 H170        0.3690  -14.1295  -42.6739 H         1 UNK         0.0600 
    171 H171       -1.3106  -13.5171  -40.9255 H         1 UNK         0.0600 
    172 H172       -0.0104  -13.2483  -39.7691 H         1 UNK         0.0600 
    173 H173       -0.1490  -12.2293  -41.2027 H         1 UNK         0.0600 
    174 H174        2.1873  -12.8877  -41.0918 H         1 UNK         0.3000 
    175 H175        4.6156  -13.3537  -40.9789 H         1 UNK         0.0600 
    176 H176        5.4603  -14.7429  -43.5800 H         1 UNK         0.0600 
    177 H177        6.5278  -13.8648  -42.4855 H         1 UNK         0.0600 
    178 H178        5.7445  -15.3419  -41.9496 H         1 UNK         0.0600 
    179 H179        4.5839  -12.4678  -43.7811 H         1 UNK         0.3000 
    180 H180        3.5646   -9.1915  -42.9040 H         1 UNK         0.0600 
    181 H181        4.7327  -10.9523  -45.1279 H         1 UNK         0.0600 
    182 H182        5.6914  -10.0658  -43.9439 H         1 UNK         0.0600 
    183 H183        4.6726   -9.1957  -45.0760 H         1 UNK         0.0600 
    184 H184        2.3576  -10.6079  -45.1278 H         1 UNK         0.3000 
    185 H185       -0.9272  -10.5255  -44.0857 H         1 UNK         0.0600 
    186 H186       -0.8350   -8.0523  -44.2948 H         1 UNK         0.0600 
    187 H187        0.2055   -8.1843  -45.7079 H         1 UNK         0.0600 
    188 H188       -1.4560   -8.7720  -45.7714 H         1 UNK         0.0600 
    189 H189        0.4810  -10.4194  -46.6646 H         1 UNK         0.3000 
    190 H190       -0.9679  -20.4363  -46.8887 H         1 UNK         0.3000 
    191 H191       -2.3576  -20.9905  -49.2439 H         1 UNK         0.0600 
    192 H192       -2.6692  -18.9479  -47.8154 H         1 UNK         0.0600 
    193 H193       -4.2003  -19.7114  -48.2060 H         1 UNK         0.0600 
    194 H194       -3.4975  -19.9186  -46.6071 H         1 UNK         0.0600 
    195 H195       -2.9033  -22.3770  -45.9790 H         1 UNK         0.3000 
    196 H196       -5.1353  -23.9833  -46.5892 H         1 UNK         0.0600 
    197 H197       -4.4889  -25.2260  -44.5186 H         1 UNK         0.0600 
    198 H198       -4.4209  -23.4863  -44.2803 H         1 UNK         0.0600 
    199 H199       -2.9335  -24.4033  -44.5024 H         1 UNK         0.0600 
    200 H200       -1.6349  -24.7763  -46.7485 H         1 UNK         0.3000 
    201 H201       -1.9638  -27.4726  -47.6581 H         1 UNK         0.0600 
    202 H202        0.1091  -26.6762  -46.5629 H         1 UNK         0.0600 
    203 H203        0.4168  -25.5543  -47.8852 H         1 UNK         0.0600 
    204 H204        0.4757  -27.2904  -48.1686 H         1 UNK         0.0600 
    205 H205       -1.3951  -24.3812  -49.3814 H         1 UNK         0.3000 
    206 H206       -1.3720  -25.5544  -52.0253 H         1 UNK         0.0600 
    207 H207       -0.0048  -23.5779  -51.4304 H         1 UNK         0.0600 
    208 H208       -1.1271  -23.1935  -52.7247 H         1 UNK         0.0600 
    209 H209       -1.4628  -22.6541  -51.0796 H         1 UNK         0.0600 
    210 H210       -3.5142  -26.6236  -51.2995 H         1 UNK         0.3000 
    211 H211       -5.5900  -27.1244  -51.8803 H         1 UNK         0.0600 
    212 H212       -5.1610  -25.0765  -54.1132 H         1 UNK         0.0600 
    213 H213       -6.3827  -26.3439  -54.1109 H         1 UNK         0.0600 
    214 H214       -4.6813  -26.7685  -54.1526 H         1 UNK         0.0600 
    215 H215       -5.3693  -25.1355  -49.8277 H         1 UNK         0.3000 
    216 H216       -6.6120  -23.9324  -48.4604 H         1 UNK         0.0600 
    217 H217       -9.0434  -24.3115  -48.3598 H         1 UNK         0.0600 
    218 H218       -8.2141  -25.8280  -48.6684 H         1 UNK         0.0600 
    219 H219       -9.0486  -24.9942  -49.9792 H         1 UNK         0.0600 
    220 H220       -5.4068  -22.4674  -50.1774 H         1 UNK         0.3000 
    221 H221       -5.0805  -20.4368  -50.8571 H         1 UNK         0.0600 
    222 H222       -7.9004  -19.6333  -49.9795 H         1 UNK         0.0600 
    223 H223       -6.5082  -19.7123  -48.9030 H         1 UNK         0.0600 
    224 H224       -6.5287  -18.5697  -50.2369 H         1 UNK         0.0600 
    225 H225       -5.3288  -18.9765  -52.5371 H         1 UNK         0.3000 
    226 H226       -5.6415  -18.1697  -54.5156 H         1 UNK         0.0600 
    227 H227       -7.9626  -17.7148  -53.7900 H         1 UNK         0.0600 
    228 H228       -7.9038  -18.0545  -55.5125 H         1 UNK         0.0600 
    229 H229       -8.4902  -19.2821  -54.4006 H         1 UNK         0.0600 
    230 H230       -6.8386  -21.5054  -54.4510 H         1 UNK         0.3000 
    231 H231       -6.8224  -21.9068  -57.2488 H         1 UNK         0.0600 
    232 H232       -6.9487  -23.8444  -54.8913 H         1 UNK         0.0600 
    233 H233       -7.2134  -24.3307  -56.5639 H         1 UNK         0.0600 
    234 H234       -8.2927  -23.1734  -55.8024 H         1 UNK         0.0600 
    235 H235       -4.1059  -22.2135  -55.0404 H         1 UNK         0.3000 
    236 H236       -2.4186  -23.1930  -57.2663 H         1 UNK         0.0600 
    237 H237       -3.2257  -25.2588  -56.1001 H         1 UNK         0.0600 
    238 H238       -1.4953  -25.0409  -55.9178 H         1 UNK         0.0600 
    239 H239       -2.5702  -24.6511  -54.5829 H         1 UNK         0.0600 
    240 H240       -2.6683  -20.5865  -55.8914 H         1 UNK         0.3000 
    241 H241       -0.2135  -20.3424  -54.3219 H         1 UNK         0.0600 
    242 H242       -0.6199  -20.5161  -57.7304 H         1 UNK         0.3800 
    243 H243        0.8635  -19.6910  -58.1281 H         1 UNK         0.3800 
    244 H244       -0.7317  -18.0022  -54.0653 H         1 UNK         0.0800 
    245 H245       -1.8842  -18.0303  -55.3735 H         1 UNK         0.0800 
    246 H246       -1.5989  -20.8656  -52.6395 H         1 UNK         0.0800 
    247 H247       -2.8842  -20.4777  -51.5470 H         1 UNK         0.0800 
@<TRIPOS>BOND
     1    1    2 1    
     2    1  127 1    
     3    1  128 1    
     4    1  129 1    
     5    2    3 2    
     6    2    4 am   BACKBONE|DICT|INTERRES
     7    4    5 1    
     8    4  130 1    
     9    5    6 1    
    10    5   65 1    
    11    5  131 1    
    12    6    7 1    
    13    6  132 1    
    14    6  133 1    
    15    7    8 1    
    16    8    9 1    
    17    8  134 1    
    18    8  135 1    
    19    9   10 ar   
    20    9   14 ar   
    21   10   11 ar   
    22   10  136 1    
    23   11   12 ar   
    24   11  126 1    
    25   12   13 ar   
    26   12  137 1    
    27   13   14 ar   
    28   13   15 1    
    29   14  138 1    
    30   15   16 1    
    31   15  139 1    
    32   15  140 1    
    33   16   17 1    
    34   17   18 1    
    35   17  141 1    
    36   17  142 1    
    37   18   19 1    
    38   18   67 1    
    39   18  143 1    
    40   19   20 am   BACKBONE|DICT|INTERRES
    41   19  144 1    
    42   20   21 2    
    43   20   22 1    
    44   22   23 1    
    45   22   24 1    
    46   22  145 1    
    47   23  146 1    
    48   23  147 1    
    49   23  148 1    
    50   24   25 am   BACKBONE|DICT|INTERRES
    51   24  149 1    
    52   25   26 2    
    53   25   27 1    
    54   27   28 1    
    55   27   29 1    
    56   27  150 1    
    57   28  151 1    
    58   28  152 1    
    59   28  153 1    
    60   29   30 am   BACKBONE|DICT|INTERRES
    61   29  154 1    
    62   30   31 2    
    63   30   32 1    
    64   32   33 1    
    65   32   34 1    
    66   32  155 1    
    67   33  156 1    
    68   33  157 1    
    69   33  158 1    
    70   34   35 am   BACKBONE|DICT|INTERRES
    71   34  159 1    
    72   35   36 2    
    73   35   37 1    
    74   37   38 1    
    75   37   39 1    
    76   37  160 1    
    77   38  161 1    
    78   38  162 1    
    79   38  163 1    
    80   39   40 am   BACKBONE|DICT|INTERRES
    81   39  164 1    
    82   40   41 2    
    83   40   42 1    
    84   42   43 1    
    85   42   44 1    
    86   42  165 1    
    87   43  166 1    
    88   43  167 1    
    89   43  168 1    
    90   44   45 am   BACKBONE|DICT|INTERRES
    91   44  169 1    
    92   45   46 2    
    93   45   47 1    
    94   47   48 1    
    95   47   49 1    
    96   47  170 1    
    97   48  171 1    
    98   48  172 1    
    99   48  173 1    
   100   49   50 am   BACKBONE|DICT|INTERRES
   101   49  174 1    
   102   50   51 2    
   103   50   52 1    
   104   52   53 1    
   105   52   54 1    
   106   52  175 1    
   107   53  176 1    
   108   53  177 1    
   109   53  178 1    
   110   54   55 am   BACKBONE|DICT|INTERRES
   111   54  179 1    
   112   55   56 2    
   113   55   57 1    
   114   57   58 1    
   115   57   59 1    
   116   57  180 1    
   117   58  181 1    
   118   58  182 1    
   119   58  183 1    
   120   59   60 am   BACKBONE|DICT|INTERRES
   121   59  184 1    
   122   60   61 2    
   123   60   62 1    
   124   62   63 1    
   125   62   64 1    
   126   62  185 1    
   127   63  186 1    
   128   63  187 1    
   129   63  188 1    
   130   64   65 am   BACKBONE|DICT|INTERRES
   131   64  189 1    
   132   65   66 2    
   133   67   68 2    
   134   67   69 am   BACKBONE|DICT|INTERRES
   135   69   70 1    
   136   69  190 1    
   137   70   71 1    
   138   70   72 1    
   139   70  191 1    
   140   71  192 1    
   141   71  193 1    
   142   71  194 1    
   143   72   73 2    
   144   72   74 am   BACKBONE|DICT|INTERRES
   145   74   75 1    
   146   74  195 1    
   147   75   76 1    
   148   75   77 1    
   149   75  196 1    
   150   76  197 1    
   151   76  198 1    
   152   76  199 1    
   153   77   78 2    
   154   77   79 am   BACKBONE|DICT|INTERRES
   155   79   80 1    
   156   79  200 1    
   157   80   81 1    
   158   80   82 1    
   159   80  201 1    
   160   81  202 1    
   161   81  203 1    
   162   81  204 1    
   163   82   83 2    
   164   82   84 am   BACKBONE|DICT|INTERRES
   165   84   85 1    
   166   84  205 1    
   167   85   86 1    
   168   85   87 1    
   169   85  206 1    
   170   86  207 1    
   171   86  208 1    
   172   86  209 1    
   173   87   88 2    
   174   87   89 am   BACKBONE|DICT|INTERRES
   175   89   90 1    
   176   89  210 1    
   177   90   91 1    
   178   90   92 1    
   179   90  211 1    
   180   91  212 1    
   181   91  213 1    
   182   91  214 1    
   183   92   93 2    
   184   92   94 am   BACKBONE|DICT|INTERRES
   185   94   95 1    
   186   94  215 1    
   187   95   96 1    
   188   95   97 1    
   189   95  216 1    
   190   96  217 1    
   191   96  218 1    
   192   96  219 1    
   193   97   98 2    
   194   97   99 am   BACKBONE|DICT|INTERRES
   195   99  100 1    
   196   99  220 1    
   197  100  101 1    
   198  100  102 1    
   199  100  221 1    
   200  101  222 1    
   201  101  223 1    
   202  101  224 1    
   203  102  103 2    
   204  102  104 am   BACKBONE|DICT|INTERRES
   205  104  105 1    
   206  104  225 1    
   207  105  106 1    
   208  105  107 1    
   209  105  226 1    
   210  106  227 1    
   211  106  228 1    
   212  106  229 1    
   213  107  108 2    
   214  107  109 am   BACKBONE|DICT|INTERRES
   215  109  110 1    
   216  109  230 1    
   217  110  111 1    
   218  110  112 1    
   219  110  231 1    
   220  111  232 1    
   221  111  233 1    
   222  111  234 1    
   223  112  113 2    
   224  112  114 am   BACKBONE|DICT|INTERRES
   225  114  115 1    
   226  114  235 1    
   227  115  116 1    
   228  115  117 1    
   229  115  236 1    
   230  116  237 1    
   231  116  238 1    
   232  116  239 1    
   233  117  118 2    
   234  117  119 am   BACKBONE|DICT|INTERRES
   235  119  120 1    
   236  119  240 1    
   237  120  121 1    
   238  120  124 1    
   239  120  241 1    
   240  121  122 am   BACKBONE|DICT|INTERRES
   241  121  123 2    
   242  122  242 1    
   243  122  243 1    
   244  124  125 1    
   245  124  244 1    
   246  124  245 1    
   247  125  126 1    
   248  126  246 1    
   249  126  247 1    
@<TRIPOS>SUBSTRUCTURE
     1 UNK         1 GROUP             0       ****    0 ROOT    
