@<TRIPOS>MOLECULE
3R540
247   249    1
SMALL
USER_CHARGES


@<TRIPOS>ATOM
      1 CA          0.4533   -8.1684  -48.8305 C.3       0 UNK        -0.1800 
      2 C           0.5264   -9.5570  -49.4495 C.2       0 UNK         0.5000 
      3 O           1.6212  -10.0430  -49.7318 O.2       0 UNK        -0.5000 
      4 N          -0.6340  -10.1936  -49.6593 N.am      1 UNK        -0.5000 
      5 CA         -0.7732  -11.5478  -50.2111 C.3       1 UNK         0.1400 
      6 C6         -2.2536  -11.8398  -50.5703 C.3       23 UNK        -0.0398 
      7 S7         -2.5092  -13.3990  -51.4843 S.3       23 UNK        -0.2404 
      8 C8         -3.2160  -14.4342  -50.1652 C.3       23 UNK        -0.0205 
      9 C9         -3.2077  -15.8998  -50.5577 C.ar      23 UNK        -0.0193 
     10 C10        -4.3516  -16.4981  -51.0938 C.ar      23 UNK        -0.1150 
     11 C11        -4.3327  -17.8428  -51.4742 C.ar      23 UNK        -0.0193 
     12 C12        -3.1637  -18.5861  -51.3014 C.ar      23 UNK        -0.1150 
     13 C13        -2.0218  -18.0104  -50.7401 C.ar      23 UNK        -0.0193 
     14 C14        -2.0479  -16.6598  -50.3820 C.ar      23 UNK        -0.1150 
     15 C15        -0.7583  -18.8428  -50.5545 C.3       23 UNK        -0.0205 
     16 S16        -0.1310  -18.8148  -48.8404 S.3       23 UNK        -0.2404 
     17 C17        -1.4003  -19.7697  -47.9396 C.3       23 UNK        -0.0398 
     18 CA         -0.9008  -21.1829  -47.5508 C.3       11 UNK         0.1400 
     19 N           0.1861  -21.1599  -46.5701 N.am      11 UNK        -0.5000 
     20 C           0.9454  -22.2200  -46.2585 C.2       10 UNK         0.5000 
     21 O           0.8843  -23.3034  -46.8399 O.2       10 UNK        -0.5000 
     22 CA          1.9068  -22.0630  -45.0671 C.3       10 UNK         0.1400 
     23 CB          3.2249  -21.4094  -45.5083 C.3       10 UNK        -0.1800 
     24 N           1.3186  -21.3095  -43.9574 N.am      10 UNK        -0.5000 
     25 C           0.2512  -21.7115  -43.2508 C.2       9 UNK         0.5000 
     26 O          -0.3285  -22.7818  -43.4362 O.2       9 UNK        -0.5000 
     27 CA         -0.2782  -20.7482  -42.1729 C.3       9 UNK         0.1400 
     28 CB          0.5448  -20.8741  -40.8823 C.3       9 UNK        -0.1800 
     29 N          -0.2974  -19.3516  -42.6089 N.am      9 UNK        -0.5000 
     30 C          -1.0391  -18.8772  -43.6203 C.2       8 UNK         0.5000 
     31 O          -1.8140  -19.5631  -44.2854 O.2       8 UNK        -0.5000 
     32 CA         -0.8339  -17.4004  -43.9987 C.3       8 UNK         0.1400 
     33 CB         -1.5524  -16.4658  -43.0151 C.3       8 UNK        -0.1800 
     34 N           0.5798  -17.0363  -44.0840 N.am      8 UNK        -0.5000 
     35 C           1.4589  -17.6060  -44.9209 C.2       7 UNK         0.5000 
     36 O           1.1666  -18.4828  -45.7323 O.2       7 UNK        -0.5000 
     37 CA          2.9230  -17.1626  -44.7824 C.3       7 UNK         0.1400 
     38 CB          3.1562  -15.8095  -45.4735 C.3       7 UNK        -0.1800 
     39 N           3.3308  -17.0912  -43.3786 N.am      7 UNK        -0.5000 
     40 C           3.4651  -18.1604  -42.5792 C.2       6 UNK         0.5000 
     41 O           3.3012  -19.3206  -42.9545 O.2       6 UNK        -0.5000 
     42 CA          3.7975  -17.8850  -41.1018 C.3       6 UNK         0.1400 
     43 CB          5.3064  -17.6655  -40.9167 C.3       6 UNK        -0.1800 
     44 N           3.0700  -16.7336  -40.5684 N.am      6 UNK        -0.5000 
     45 C           1.7396  -16.6824  -40.4101 C.2       5 UNK         0.5000 
     46 O           0.9837  -17.6206  -40.6586 O.2       5 UNK        -0.5000 
     47 CA          1.1527  -15.3373  -39.9437 C.3       5 UNK         0.1400 
     48 CB          1.1379  -15.2568  -38.4101 C.3       5 UNK        -0.1800 
     49 N           1.8675  -14.1779  -40.4865 N.am      5 UNK        -0.5000 
     50 C           1.9533  -13.8864  -41.7906 C.2       4 UNK         0.5000 
     51 O           1.4605  -14.5827  -42.6817 O.2       4 UNK        -0.5000 
     52 CA          2.7812  -12.6478  -42.1665 C.3       4 UNK         0.1400 
     53 CB          4.1891  -13.0641  -42.6200 C.3       4 UNK        -0.1800 
     54 N           2.1285  -11.9123  -43.2456 N.am      4 UNK        -0.5000 
     55 C           1.1004  -11.0716  -43.0722 C.2       3 UNK         0.5000 
     56 O           0.6661  -10.7402  -41.9680 O.2       3 UNK        -0.5000 
     57 CA          0.4405  -10.5097  -44.3463 C.3       3 UNK         0.1400 
     58 CB          1.0816   -9.1718  -44.7457 C.3       3 UNK        -0.1800 
     59 N           0.5003  -11.4290  -45.4861 N.am      3 UNK        -0.5000 
     60 C          -0.1869  -12.5765  -45.5712 C.2       2 UNK         0.5000 
     61 O          -0.9640  -12.9751  -44.7034 O.2       2 UNK        -0.5000 
     62 CA         -0.0234  -13.3493  -46.8871 C.3       2 UNK         0.1400 
     63 CB         -0.7669  -14.6994  -46.9000 C.3       2 UNK        -0.1800 
     64 N          -0.4947  -12.4883  -47.9669 N.am      2 UNK        -0.5000 
     65 C          -0.1763  -12.6116  -49.2603 C.2       1 UNK         0.5000 
     66 O           0.5664  -13.4885  -49.7036 O.2       1 UNK        -0.5000 
     67 C          -2.0517  -22.0848  -47.0621 C.2       11 UNK         0.5000 
     68 O          -2.3779  -23.0630  -47.7324 O.2       11 UNK        -0.5000 
     69 N          -2.6096  -21.7783  -45.8804 N.am      12 UNK        -0.5000 
     70 CA         -3.7822  -22.4319  -45.2827 C.3       12 UNK         0.1400 
     71 CB         -4.1390  -21.7185  -43.9699 C.3       12 UNK        -0.1800 
     72 C          -3.6644  -23.9521  -45.0481 C.2       12 UNK         0.5000 
     73 O          -4.6907  -24.6128  -44.8849 O.2       12 UNK        -0.5000 
     74 N          -2.4364  -24.4851  -45.0417 N.am      13 UNK        -0.5000 
     75 CA         -2.1451  -25.9170  -44.9965 C.3       13 UNK         0.1400 
     76 CB         -0.6380  -26.1070  -44.7668 C.3       13 UNK        -0.1800 
     77 C          -2.5989  -26.6832  -46.2587 C.2       13 UNK         0.5000 
     78 O          -2.8595  -27.8840  -46.1660 O.2       13 UNK        -0.5000 
     79 N          -2.6787  -25.9972  -47.4072 N.am      14 UNK        -0.5000 
     80 CA         -3.1355  -26.5576  -48.6780 C.3       14 UNK         0.1400 
     81 CB         -2.4274  -25.8170  -49.8199 C.3       14 UNK        -0.1800 
     82 C          -4.6623  -26.4434  -48.8333 C.2       14 UNK         0.5000 
     83 O          -5.2972  -25.6102  -48.1809 O.2       14 UNK        -0.5000 
     84 N          -5.2229  -27.2633  -49.7333 N.am      15 UNK        -0.5000 
     85 CA         -6.6362  -27.2517  -50.1187 C.3       15 UNK         0.1400 
     86 CB         -6.9037  -28.4007  -51.1026 C.3       15 UNK        -0.1800 
     87 C          -7.0378  -25.8991  -50.7353 C.2       15 UNK         0.5000 
     88 O          -6.3654  -25.4279  -51.6551 O.2       15 UNK        -0.5000 
     89 N          -8.0850  -25.2761  -50.1738 N.am      16 UNK        -0.5000 
     90 CA         -8.5765  -23.9228  -50.4828 C.3       16 UNK         0.1400 
     91 CB         -9.1854  -23.8799  -51.9001 C.3       16 UNK        -0.1800 
     92 C          -7.5185  -22.8139  -50.2635 C.2       16 UNK         0.5000 
     93 O          -7.6163  -21.7438  -50.8648 O.2       16 UNK        -0.5000 
     94 N          -6.5092  -23.1134  -49.4310 N.am      17 UNK        -0.5000 
     95 CA         -5.2860  -22.3542  -49.1613 C.3       17 UNK         0.1400 
     96 CB         -5.6028  -20.9744  -48.5486 C.3       17 UNK        -0.1800 
     97 C          -4.3197  -22.2421  -50.3621 C.2       17 UNK         0.5000 
     98 O          -3.3002  -21.5648  -50.2448 O.2       17 UNK        -0.5000 
     99 N          -4.6252  -22.8918  -51.4935 N.am      18 UNK        -0.5000 
    100 CA        -3.9136  -22.7507  -52.7618 C.3       18 UNK         0.1400 
    101 CB        -4.8791  -23.0936  -53.9091 C.3       18 UNK        -0.1800 
    102 C         -2.6223  -23.5892  -52.7970 C.2       18 UNK         0.5000 
    103 O         -2.5377  -24.5772  -53.5300 O.2       18 UNK        -0.5000 
    104 N         -1.6306  -23.1821  -51.9966 N.am      19 UNK        -0.5000 
    105 CA        -0.3028  -23.7900  -51.8821 C.3       19 UNK         0.1400 
    106 CB         0.3360  -23.3328  -50.5600 C.3       19 UNK        -0.1800 
    107 C          0.5848  -23.4810  -53.1065 C.2       19 UNK         0.5000 
    108 O          1.5895  -22.7788  -52.9859 O.2       19 UNK        -0.5000 
    109 N          0.1623  -23.9878  -54.2733 N.am      20 UNK        -0.5000 
    110 CA         0.7532  -23.8303  -55.6104 C.3       20 UNK         0.1400 
    111 CB         2.1904  -24.3895  -55.6544 C.3       20 UNK        -0.1800 
    112 C          0.6670  -22.3985  -56.1864 C.2       20 UNK         0.5000 
    113 O          1.2048  -22.1469  -57.2661 O.2       20 UNK        -0.5000 
    114 N         -0.0284  -21.4967  -55.4875 N.am      21 UNK        -0.5000 
    115 CA        -0.2759  -20.1084  -55.8491 C.3       21 UNK         0.1400 
    116 CB         0.9894  -19.2626  -55.6134 C.3       21 UNK        -0.1800 
    117 C         -1.4405  -19.5967  -54.9913 C.2       21 UNK         0.5000 
    118 O         -1.6996  -20.1518  -53.9199 O.2       21 UNK        -0.5000 
    119 N         -2.1054  -18.5447  -55.4732 N.am      22 UNK        -0.5000 
    120 CA        -3.1937  -17.8310  -54.7999 C.3       22 UNK         0.1400 
    121 C         -3.4142  -16.4704  -55.5104 C.2       22 UNK         0.5000 
    122 N         -3.5246  -15.3785  -54.7663 N.am      22 UNK        -0.7600 
    123 O         -3.4917  -16.3999  -56.7354 O.2       22 UNK        -0.5000 
    124 C124       -4.4878  -18.6904  -54.7072 C.3       23 UNK        -0.0398 
    125 S125       -5.8605  -17.9094  -53.7867 S.3       23 UNK        -0.2404 
    126 C126       -5.5666  -18.4895  -52.0855 C.3       23 UNK        -0.0205 
    127 H127        1.1140   -8.1069  -47.9659 H         1 UNK         0.0600 
    128 H128       -0.5571   -7.9222  -48.5033 H         1 UNK         0.0600 
    129 H129        0.7701   -7.4184  -49.5553 H         1 UNK         0.0600 
    130 H130       -1.4962   -9.7259  -49.4175 H         1 UNK         0.3000 
    131 H131       -0.1936  -11.5796  -51.1365 H         1 UNK         0.0600 
    132 H132       -2.6337  -11.0392  -51.2064 H         1 UNK         0.0800 
    133 H133       -2.8805  -11.8262  -49.6771 H         1 UNK         0.0800 
    134 H134       -4.2318  -14.1010  -49.9472 H         1 UNK         0.0800 
    135 H135       -2.6457  -14.3073  -49.2446 H         1 UNK         0.0800 
    136 H136       -5.2513  -15.9151  -51.2333 H         1 UNK         0.1150 
    137 H137       -3.1355  -19.6114  -51.6330 H         1 UNK         0.1150 
    138 H138       -1.1614  -16.1982  -49.9698 H         1 UNK         0.1150 
    139 H139       -0.9269  -19.8788  -50.8542 H         1 UNK         0.0800 
    140 H140        0.0139  -18.4536  -51.2189 H         1 UNK         0.0800 
    141 H141       -2.2969  -19.8301  -48.5574 H         1 UNK         0.0800 
    142 H142       -1.6850  -19.2045  -47.0510 H         1 UNK         0.0800 
    143 H143       -0.5102  -21.6420  -48.4582 H         1 UNK         0.0600 
    144 H144        0.3504  -20.2794  -46.0911 H         1 UNK         0.3000 
    145 H145        2.1367  -23.0647  -44.6980 H         1 UNK         0.0600 
    146 H146        3.9451  -21.3839  -44.6905 H         1 UNK         0.0600 
    147 H147        3.6823  -21.9674  -46.3262 H         1 UNK         0.0600 
    148 H148        3.0733  -20.3869  -45.8537 H         1 UNK         0.0600 
    149 H149        1.7701  -20.4339  -43.7146 H         1 UNK         0.3000 
    150 H150       -1.3063  -21.0379  -41.9473 H         1 UNK         0.0600 
    151 H151        0.5670  -21.9065  -40.5311 H         1 UNK         0.0600 
    152 H152        0.1184  -20.2679  -40.0829 H         1 UNK         0.0600 
    153 H153        1.5766  -20.5538  -41.0304 H         1 UNK         0.0600 
    154 H154        0.2886  -18.7066  -42.0858 H         1 UNK         0.3000 
    155 H155       -1.2736  -17.2542  -44.9871 H         1 UNK         0.0600 
    156 H156       -1.1603  -16.5650  -42.0034 H         1 UNK         0.0600 
    157 H157       -2.6196  -16.6867  -42.9773 H         1 UNK         0.0600 
    158 H158       -1.4450  -15.4228  -43.3142 H         1 UNK         0.0600 
    159 H159        0.9011  -16.2945  -43.4685 H         1 UNK         0.3000 
    160 H160        3.5478  -17.9075  -45.2798 H         1 UNK         0.0600 
    161 H161        2.5496  -15.0164  -45.0368 H         1 UNK         0.0600 
    162 H162        2.8992  -15.8676  -46.5320 H         1 UNK         0.0600 
    163 H163        4.2019  -15.5088  -45.4094 H         1 UNK         0.0600 
    164 H164        3.4221  -16.1704  -42.9774 H         1 UNK         0.3000 
    165 H165        3.5068  -18.7660  -40.5255 H         1 UNK         0.0600 
    166 H166        5.5611  -17.5475  -39.8633 H         1 UNK         0.0600 
    167 H167        5.8732  -18.5181  -41.2933 H         1 UNK         0.0600 
    168 H168        5.6546  -16.7789  -41.4482 H         1 UNK         0.0600 
    169 H169        3.6136  -15.9161  -40.3352 H         1 UNK         0.3000 
    170 H170        0.1210  -15.2876  -40.2974 H         1 UNK         0.0600 
    171 H171        0.5940  -16.0994  -37.9808 H         1 UNK         0.0600 
    172 H172        2.1464  -15.2711  -37.9950 H         1 UNK         0.0600 
    173 H173        0.6458  -14.3463  -38.0675 H         1 UNK         0.0600 
    174 H174        2.3056  -13.5641  -39.8147 H         1 UNK         0.3000 
    175 H175        2.8769  -11.9979  -41.2939 H         1 UNK         0.0600 
    176 H176        4.1589  -13.7061  -43.5007 H         1 UNK         0.0600 
    177 H177        4.7966  -12.1924  -42.8638 H         1 UNK         0.0600 
    178 H178        4.7091  -13.6107  -41.8323 H         1 UNK         0.0600 
    179 H179        2.3894  -12.1627  -44.1870 H         1 UNK         0.3000 
    180 H180       -0.6107  -10.3247  -44.1146 H         1 UNK         0.0600 
    181 H181        2.1271   -9.2941  -45.0313 H         1 UNK         0.0600 
    182 H182        1.0479   -8.4602  -43.9195 H         1 UNK         0.0600 
    183 H183        0.5535   -8.7175  -45.5839 H         1 UNK         0.0600 
    184 H184        1.0990  -11.1608  -46.2540 H         1 UNK         0.3000 
    185 H185        1.0435  -13.5414  -47.0189 H         1 UNK         0.0600 
    186 H186       -0.4348  -15.3238  -46.0727 H         1 UNK         0.0600 
    187 H187       -1.8454  -14.5695  -46.8053 H         1 UNK         0.0600 
    188 H188       -0.5724  -15.2553  -47.8167 H         1 UNK         0.0600 
    189 H189       -1.0804  -11.7158  -47.6804 H         1 UNK         0.3000 
    190 H190       -2.2432  -20.9834  -45.3589 H         1 UNK         0.3000 
    191 H191       -4.6122  -22.2894  -45.9765 H         1 UNK         0.0600 
    192 H192       -4.3537  -20.6633  -44.1395 H         1 UNK         0.0600 
    193 H193       -3.3250  -21.7850  -43.2475 H         1 UNK         0.0600 
    194 H194       -5.0248  -22.1577  -43.5093 H         1 UNK         0.0600 
    195 H195       -1.6448  -23.8610  -45.1269 H         1 UNK         0.3000 
    196 H196       -2.6777  -26.3422  -44.1435 H         1 UNK         0.0600 
    197 H197       -0.3819  -27.1650  -44.6987 H         1 UNK         0.0600 
    198 H198       -0.3175  -25.6343  -43.8381 H         1 UNK         0.0600 
    199 H199       -0.0518  -25.6776  -45.5804 H         1 UNK         0.0600 
    200 H200       -2.5117  -24.9945  -47.3963 H         1 UNK         0.3000 
    201 H201       -2.8598  -27.6129  -48.7315 H         1 UNK         0.0600 
    202 H202       -1.3454  -25.9185  -49.7386 H         1 UNK         0.0600 
    203 H203       -2.6659  -24.7537  -49.8134 H         1 UNK         0.0600 
    204 H204       -2.7192  -26.2117  -50.7940 H         1 UNK         0.0600 
    205 H205       -4.6292  -27.8926  -50.2533 H         1 UNK         0.3000 
    206 H206       -7.2289  -27.4255  -49.2182 H         1 UNK         0.0600 
    207 H207       -6.6659  -29.3667  -50.6567 H         1 UNK         0.0600 
    208 H208       -7.9545  -28.4275  -51.3939 H         1 UNK         0.0600 
    209 H209       -6.3133  -28.2961  -52.0139 H         1 UNK         0.0600 
    210 H210       -8.5593  -25.7386  -49.4101 H         1 UNK         0.3000 
    211 H211       -9.3782  -23.7182  -49.7720 H         1 UNK         0.0600 
    212 H212       -8.4244  -23.9978  -52.6721 H         1 UNK         0.0600 
    213 H213       -9.6891  -22.9298  -52.0819 H         1 UNK         0.0600 
    214 H214       -9.9259  -24.6682  -52.0355 H         1 UNK         0.0600 
    215 H215       -6.5140  -24.0351  -49.0079 H         1 UNK         0.3000 
    216 H216       -4.7670  -22.9370  -48.4039 H         1 UNK         0.0600 
    217 H217       -4.6962  -20.4962  -48.1769 H         1 UNK         0.0600 
    218 H218       -6.2893  -21.0627  -47.7067 H         1 UNK         0.0600 
    219 H219       -6.0475  -20.2980  -49.2788 H         1 UNK         0.0600 
    220 H220       -5.4216  -23.5184  -51.4978 H         1 UNK         0.3000 
    221 H221       -3.6255  -21.7053  -52.8846 H         1 UNK         0.0600 
    222 H222       -5.2307  -24.1242  -53.8465 H         1 UNK         0.0600 
    223 H223       -5.7525  -22.4410  -53.8954 H         1 UNK         0.0600 
    224 H224       -4.3943  -22.9676  -54.8780 H         1 UNK         0.0600 
    225 H225       -1.8229  -22.3882  -51.3946 H         1 UNK         0.3000 
    226 H226       -0.4200  -24.8743  -51.8362 H         1 UNK         0.0600 
    227 H227       -0.2755  -23.6238  -49.7059 H         1 UNK         0.0600 
    228 H228        1.3179  -23.7863  -50.4204 H         1 UNK         0.0600 
    229 H229        0.4663  -22.2504  -50.5310 H         1 UNK         0.0600 
    230 H230       -0.7239  -24.4859  -54.2483 H         1 UNK         0.3000 
    231 H231        0.1448  -24.4488  -56.2717 H         1 UNK         0.0600 
    232 H232        2.2318  -25.4043  -55.2588 H         1 UNK         0.0600 
    233 H233        2.8841  -23.7753  -55.0800 H         1 UNK         0.0600 
    234 H234        2.5638  -24.4271  -56.6784 H         1 UNK         0.0600 
    235 H235       -0.4588  -21.7716  -54.6136 H         1 UNK         0.3000 
    236 H236       -0.5657  -20.0596  -56.9007 H         1 UNK         0.0600 
    237 H237        0.8113  -18.2134  -55.8518 H         1 UNK         0.0600 
    238 H238        1.3148  -19.3135  -54.5734 H         1 UNK         0.0600 
    239 H239        1.8165  -19.5986  -56.2387 H         1 UNK         0.0600 
    240 H240       -1.8327  -18.1407  -56.3597 H         1 UNK         0.3000 
    241 H241       -2.8409  -17.6145  -53.7923 H         1 UNK         0.0600 
    242 H242       -3.6716  -14.4899  -55.2186 H         1 UNK         0.3800 
    243 H243       -3.4738  -15.4192  -53.7597 H         1 UNK         0.3800 
    244 H244       -4.8474  -18.9257  -55.7100 H         1 UNK         0.0800 
    245 H245       -4.2742  -19.6512  -54.2394 H         1 UNK         0.0800 
    246 H246       -6.4364  -18.2455  -51.4742 H         1 UNK         0.0800 
    247 H247       -5.4860  -19.5782  -52.0750 H         1 UNK         0.0800 
@<TRIPOS>BOND
     1    1    2 1    
     2    1  127 1    
     3    1  128 1    
     4    1  129 1    
     5    2    3 2    
     6    2    4 am   BACKBONE|DICT|INTERRES
     7    4    5 1    
     8    4  130 1    
     9    5    6 1    
    10    5   65 1    
    11    5  131 1    
    12    6    7 1    
    13    6  132 1    
    14    6  133 1    
    15    7    8 1    
    16    8    9 1    
    17    8  134 1    
    18    8  135 1    
    19    9   10 ar   
    20    9   14 ar   
    21   10   11 ar   
    22   10  136 1    
    23   11   12 ar   
    24   11  126 1    
    25   12   13 ar   
    26   12  137 1    
    27   13   14 ar   
    28   13   15 1    
    29   14  138 1    
    30   15   16 1    
    31   15  139 1    
    32   15  140 1    
    33   16   17 1    
    34   17   18 1    
    35   17  141 1    
    36   17  142 1    
    37   18   19 1    
    38   18   67 1    
    39   18  143 1    
    40   19   20 am   BACKBONE|DICT|INTERRES
    41   19  144 1    
    42   20   21 2    
    43   20   22 1    
    44   22   23 1    
    45   22   24 1    
    46   22  145 1    
    47   23  146 1    
    48   23  147 1    
    49   23  148 1    
    50   24   25 am   BACKBONE|DICT|INTERRES
    51   24  149 1    
    52   25   26 2    
    53   25   27 1    
    54   27   28 1    
    55   27   29 1    
    56   27  150 1    
    57   28  151 1    
    58   28  152 1    
    59   28  153 1    
    60   29   30 am   BACKBONE|DICT|INTERRES
    61   29  154 1    
    62   30   31 2    
    63   30   32 1    
    64   32   33 1    
    65   32   34 1    
    66   32  155 1    
    67   33  156 1    
    68   33  157 1    
    69   33  158 1    
    70   34   35 am   BACKBONE|DICT|INTERRES
    71   34  159 1    
    72   35   36 2    
    73   35   37 1    
    74   37   38 1    
    75   37   39 1    
    76   37  160 1    
    77   38  161 1    
    78   38  162 1    
    79   38  163 1    
    80   39   40 am   BACKBONE|DICT|INTERRES
    81   39  164 1    
    82   40   41 2    
    83   40   42 1    
    84   42   43 1    
    85   42   44 1    
    86   42  165 1    
    87   43  166 1    
    88   43  167 1    
    89   43  168 1    
    90   44   45 am   BACKBONE|DICT|INTERRES
    91   44  169 1    
    92   45   46 2    
    93   45   47 1    
    94   47   48 1    
    95   47   49 1    
    96   47  170 1    
    97   48  171 1    
    98   48  172 1    
    99   48  173 1    
   100   49   50 am   BACKBONE|DICT|INTERRES
   101   49  174 1    
   102   50   51 2    
   103   50   52 1    
   104   52   53 1    
   105   52   54 1    
   106   52  175 1    
   107   53  176 1    
   108   53  177 1    
   109   53  178 1    
   110   54   55 am   BACKBONE|DICT|INTERRES
   111   54  179 1    
   112   55   56 2    
   113   55   57 1    
   114   57   58 1    
   115   57   59 1    
   116   57  180 1    
   117   58  181 1    
   118   58  182 1    
   119   58  183 1    
   120   59   60 am   BACKBONE|DICT|INTERRES
   121   59  184 1    
   122   60   61 2    
   123   60   62 1    
   124   62   63 1    
   125   62   64 1    
   126   62  185 1    
   127   63  186 1    
   128   63  187 1    
   129   63  188 1    
   130   64   65 am   BACKBONE|DICT|INTERRES
   131   64  189 1    
   132   65   66 2    
   133   67   68 2    
   134   67   69 am   BACKBONE|DICT|INTERRES
   135   69   70 1    
   136   69  190 1    
   137   70   71 1    
   138   70   72 1    
   139   70  191 1    
   140   71  192 1    
   141   71  193 1    
   142   71  194 1    
   143   72   73 2    
   144   72   74 am   BACKBONE|DICT|INTERRES
   145   74   75 1    
   146   74  195 1    
   147   75   76 1    
   148   75   77 1    
   149   75  196 1    
   150   76  197 1    
   151   76  198 1    
   152   76  199 1    
   153   77   78 2    
   154   77   79 am   BACKBONE|DICT|INTERRES
   155   79   80 1    
   156   79  200 1    
   157   80   81 1    
   158   80   82 1    
   159   80  201 1    
   160   81  202 1    
   161   81  203 1    
   162   81  204 1    
   163   82   83 2    
   164   82   84 am   BACKBONE|DICT|INTERRES
   165   84   85 1    
   166   84  205 1    
   167   85   86 1    
   168   85   87 1    
   169   85  206 1    
   170   86  207 1    
   171   86  208 1    
   172   86  209 1    
   173   87   88 2    
   174   87   89 am   BACKBONE|DICT|INTERRES
   175   89   90 1    
   176   89  210 1    
   177   90   91 1    
   178   90   92 1    
   179   90  211 1    
   180   91  212 1    
   181   91  213 1    
   182   91  214 1    
   183   92   93 2    
   184   92   94 am   BACKBONE|DICT|INTERRES
   185   94   95 1    
   186   94  215 1    
   187   95   96 1    
   188   95   97 1    
   189   95  216 1    
   190   96  217 1    
   191   96  218 1    
   192   96  219 1    
   193   97   98 2    
   194   97   99 am   BACKBONE|DICT|INTERRES
   195   99  100 1    
   196   99  220 1    
   197  100  101 1    
   198  100  102 1    
   199  100  221 1    
   200  101  222 1    
   201  101  223 1    
   202  101  224 1    
   203  102  103 2    
   204  102  104 am   BACKBONE|DICT|INTERRES
   205  104  105 1    
   206  104  225 1    
   207  105  106 1    
   208  105  107 1    
   209  105  226 1    
   210  106  227 1    
   211  106  228 1    
   212  106  229 1    
   213  107  108 2    
   214  107  109 am   BACKBONE|DICT|INTERRES
   215  109  110 1    
   216  109  230 1    
   217  110  111 1    
   218  110  112 1    
   219  110  231 1    
   220  111  232 1    
   221  111  233 1    
   222  111  234 1    
   223  112  113 2    
   224  112  114 am   BACKBONE|DICT|INTERRES
   225  114  115 1    
   226  114  235 1    
   227  115  116 1    
   228  115  117 1    
   229  115  236 1    
   230  116  237 1    
   231  116  238 1    
   232  116  239 1    
   233  117  118 2    
   234  117  119 am   BACKBONE|DICT|INTERRES
   235  119  120 1    
   236  119  240 1    
   237  120  121 1    
   238  120  124 1    
   239  120  241 1    
   240  121  122 am   BACKBONE|DICT|INTERRES
   241  121  123 2    
   242  122  242 1    
   243  122  243 1    
   244  124  125 1    
   245  124  244 1    
   246  124  245 1    
   247  125  126 1    
   248  126  246 1    
   249  126  247 1    
@<TRIPOS>SUBSTRUCTURE
     1 UNK         1 GROUP             0       ****    0 ROOT    
