@<TRIPOS>MOLECULE
3R540
247   249    1
SMALL
USER_CHARGES


@<TRIPOS>ATOM
      1 CA          1.5598  -15.2623  -48.4023 C.3       0 UNK        -0.1800 
      2 C           0.4866  -15.6372  -49.4217 C.2       0 UNK         0.5000 
      3 O           0.8259  -15.9799  -50.5516 O.2       0 UNK        -0.5000 
      4 N          -0.8091  -15.6058  -49.0785 N.am      1 UNK        -0.5000 
      5 CA         -1.3792  -15.1710  -47.8002 C.3       1 UNK         0.1400 
      6 C6         -2.8388  -15.6637  -47.6229 C.3       23 UNK        -0.0398 
      7 S7         -2.9829  -17.4857  -47.6364 S.3       23 UNK        -0.2404 
      8 C8         -4.7686  -17.6851  -47.3592 C.3       23 UNK        -0.0205 
      9 C9         -5.1453  -19.1279  -47.0470 C.ar      23 UNK        -0.0193 
     10 C10        -5.6095  -19.9801  -48.0557 C.ar      23 UNK        -0.1150 
     11 C11        -6.0217  -21.2827  -47.7517 C.ar      23 UNK        -0.0193 
     12 C12        -5.9650  -21.7301  -46.4302 C.ar      23 UNK        -0.1150 
     13 C13        -5.5010  -20.8916  -45.4143 C.ar      23 UNK        -0.0193 
     14 C14        -5.0841  -19.5944  -45.7299 C.ar      23 UNK        -0.1150 
     15 C15        -5.4886  -21.3811  -43.9731 C.3       23 UNK        -0.0205 
     16 S16        -4.2664  -22.7029  -43.7028 S.3       23 UNK        -0.2404 
     17 C17        -2.7084  -21.8172  -44.0369 C.3       23 UNK        -0.0398 
     18 CA         -2.0487  -22.2207  -45.3788 C.3       11 UNK         0.1400 
     19 N          -1.0321  -21.2531  -45.7957 N.am      11 UNK        -0.5000 
     20 C          -0.4290  -21.2259  -46.9911 C.2       10 UNK         0.5000 
     21 O          -0.7363  -21.9606  -47.9280 O.2       10 UNK        -0.5000 
     22 CA          0.7465  -20.2486  -47.1698 C.3       10 UNK         0.1400 
     23 CB          0.2629  -18.8848  -47.6726 C.3       10 UNK        -0.1800 
     24 N           1.5370  -20.0643  -45.9539 N.am      10 UNK        -0.5000 
     25 C           2.2773  -21.0185  -45.3753 C.2       9 UNK         0.5000 
     26 O           2.3851  -22.1606  -45.8208 O.2       9 UNK        -0.5000 
     27 CA          2.9762  -20.6476  -44.0544 C.3       9 UNK         0.1400 
     28 CB          4.2255  -19.7919  -44.3117 C.3       9 UNK        -0.1800 
     29 N           2.0860  -19.9522  -43.1239 N.am      9 UNK        -0.5000 
     30 C           0.9889  -20.4977  -42.5789 C.2       8 UNK         0.5000 
     31 O           0.6285  -21.6585  -42.7798 O.2       8 UNK        -0.5000 
     32 CA          0.1189  -19.5756  -41.7043 C.3       8 UNK         0.1400 
     33 CB          0.7313  -19.4086  -40.3059 C.3       8 UNK        -0.1800 
     34 N          -0.1023  -18.2613  -42.3123 N.am      8 UNK        -0.5000 
     35 C          -0.7269  -18.0730  -43.4836 C.2       7 UNK         0.5000 
     36 O          -1.2116  -18.9826  -44.1485 O.2       7 UNK        -0.5000 
     37 CA         -0.7688  -16.6481  -44.0507 C.3       7 UNK         0.1400 
     38 CB         -1.8727  -15.8120  -43.3884 C.3       7 UNK        -0.1800 
     39 N           0.5142  -15.9621  -43.9338 N.am      7 UNK        -0.5000 
     40 C           1.6615  -16.3579  -44.5002 C.2       6 UNK         0.5000 
     41 O           1.7566  -17.3238  -45.2540 O.2       6 UNK        -0.5000 
     42 CA          2.9211  -15.5635  -44.1228 C.3       6 UNK         0.1400 
     43 CB          3.0148  -14.2611  -44.9331 C.3       6 UNK        -0.1800 
     44 N           2.9538  -15.2579  -42.6933 N.am      6 UNK        -0.5000 
     45 C           3.1469  -16.1672  -41.7282 C.2       5 UNK         0.5000 
     46 O           3.3501  -17.3628  -41.9447 O.2       5 UNK        -0.5000 
     47 CA          3.0681  -15.6544  -40.2779 C.3       5 UNK         0.1400 
     48 CB          4.4044  -15.0285  -39.8511 C.3       5 UNK        -0.1800 
     49 N           1.9903  -14.6821  -40.0774 N.am      5 UNK        -0.5000 
     50 C           0.6870  -14.9907  -40.1205 C.2       4 UNK         0.5000 
     51 O           0.2627  -16.1273  -40.3273 O.2       4 UNK        -0.5000 
     52 CA         -0.3141  -13.8304  -39.9479 C.3       4 UNK         0.1400 
     53 CB         -0.5051  -13.5025  -38.4593 C.3       4 UNK        -0.1800 
     54 N           0.0169  -12.5989  -40.6781 N.am      4 UNK        -0.5000 
     55 C           0.3017  -12.5254  -41.9850 C.2       3 UNK         0.5000 
     56 O           0.4716  -13.5131  -42.6995 O.2       3 UNK        -0.5000 
     57 CA          0.4457  -11.1187  -42.5981 C.3       3 UNK         0.1400 
     58 CB          1.8166  -10.5218  -42.2438 C.3       3 UNK        -0.1800 
     59 N           0.3151  -11.1504  -44.0585 N.am      3 UNK        -0.5000 
     60 C          -0.7881  -11.5099  -44.7304 C.2       2 UNK         0.5000 
     61 O          -1.8790  -11.7143  -44.1950 O.2       2 UNK        -0.5000 
     62 CA         -0.6552  -11.7173  -46.2478 C.3       2 UNK         0.1400 
     63 CB          0.6899  -11.2473  -46.8465 C.3       2 UNK        -0.1800 
     64 N          -0.8555  -13.1376  -46.5267 N.am      2 UNK        -0.5000 
     65 C          -1.2992  -13.6345  -47.6864 C.2       1 UNK         0.5000 
     66 O          -1.6273  -12.9384  -48.6498 O.2       1 UNK        -0.5000 
     67 C          -1.4602  -23.6442  -45.3103 C.2       11 UNK         0.5000 
     68 O          -2.0441  -24.5697  -45.8739 O.2       11 UNK        -0.5000 
     69 N          -0.2960  -23.7855  -44.6571 N.am      12 UNK        -0.5000 
     70 CA          0.4344  -25.0480  -44.5202 C.3       12 UNK         0.1400 
     71 CB          1.6068  -24.8583  -43.5460 C.3       12 UNK        -0.1800 
     72 C           0.9243  -25.6096  -45.8684 C.2       12 UNK         0.5000 
     73 O           0.8455  -26.8185  -46.0895 O.2       12 UNK        -0.5000 
     74 N           1.3884  -24.7189  -46.7545 N.am      13 UNK        -0.5000 
     75 CA          1.7833  -25.0356  -48.1279 C.3       13 UNK         0.1400 
     76 CB          2.6302  -23.8752  -48.6743 C.3       13 UNK        -0.1800 
     77 C           0.5882  -25.3017  -49.0665 C.2       13 UNK         0.5000 
     78 O           0.7839  -25.8987  -50.1255 O.2       13 UNK        -0.5000 
     79 N          -0.6064  -24.8304  -48.6770 N.am      14 UNK        -0.5000 
     80 CA         -1.8508  -24.7732  -49.4505 C.3       14 UNK         0.1400 
     81 CB         -2.4211  -26.1856  -49.6909 C.3       14 UNK        -0.1800 
     82 C          -1.6742  -23.9524  -50.7451 C.2       14 UNK         0.5000 
     83 O          -2.0129  -24.4174  -51.8328 O.2       14 UNK        -0.5000 
     84 N          -1.0785  -22.7626  -50.6005 N.am      15 UNK        -0.5000 
     85 CA         -0.6789  -21.8945  -51.7041 C.3       15 UNK         0.1400 
     86 CB          0.5059  -21.0257  -51.2518 C.3       15 UNK        -0.1800 
     87 C          -1.8333  -21.0182  -52.2146 C.2       15 UNK         0.5000 
     88 O          -2.0131  -20.9112  -53.4286 O.2       15 UNK        -0.5000 
     89 N          -2.5658  -20.3886  -51.2803 N.am      16 UNK        -0.5000 
     90 CA         -3.6649  -19.4349  -51.4936 C.3       16 UNK         0.1400 
     91 CB         -4.9435  -20.1762  -51.9053 C.3       16 UNK        -0.1800 
     92 C          -3.2928  -18.3194  -52.4910 C.2       16 UNK         0.5000 
     93 O          -3.6908  -18.3605  -53.6597 O.2       16 UNK        -0.5000 
     94 N          -2.4442  -17.3978  -52.0139 N.am      17 UNK        -0.5000 
     95 CA         -1.8223  -16.2930  -52.7630 C.3       17 UNK         0.1400 
     96 CB         -2.8903  -15.3394  -53.3395 C.3       17 UNK        -0.1800 
     97 C          -0.8160  -16.7672  -53.8357 C.2       17 UNK         0.5000 
     98 O          -0.4455  -15.9841  -54.7113 O.2       17 UNK        -0.5000 
     99 N          -0.4124  -18.0459  -53.7523 N.am      18 UNK        -0.5000 
    100 CA         0.3900  -18.8014  -54.7198 C.3       18 UNK         0.1400 
    101 CB         1.8415  -18.2806  -54.7513 C.3       18 UNK        -0.1800 
    102 C         -0.2719  -18.8563  -56.1132 C.2       18 UNK         0.5000 
    103 O          0.4258  -18.8133  -57.1287 O.2       18 UNK        -0.5000 
    104 N         -1.6100  -18.9232  -56.1321 N.am      19 UNK        -0.5000 
    105 CA        -2.4203  -18.8235  -57.3410 C.3       19 UNK         0.1400 
    106 CB        -2.8904  -17.3702  -57.5265 C.3       19 UNK        -0.1800 
    107 C         -3.6072  -19.7915  -57.3049 C.2       19 UNK         0.5000 
    108 O         -3.7765  -20.5666  -58.2474 O.2       19 UNK        -0.5000 
    109 N         -4.4191  -19.7300  -56.2398 N.am      20 UNK        -0.5000 
    110 CA        -5.6633  -20.4985  -56.1444 C.3       20 UNK         0.1400 
    111 CB        -6.6643  -19.7369  -55.2622 C.3       20 UNK        -0.1800 
    112 C         -5.4627  -21.9448  -55.6546 C.2       20 UNK         0.5000 
    113 O         -6.3632  -22.7654  -55.8404 O.2       20 UNK        -0.5000 
    114 N         -4.3124  -22.2344  -55.0238 N.am      21 UNK        -0.5000 
    115 CA        -3.8865  -23.5464  -54.5105 C.3       21 UNK         0.1400 
    116 CB        -3.5661  -24.4934  -55.6850 C.3       21 UNK        -0.1800 
    117 C         -4.8646  -24.1800  -53.4910 C.2       21 UNK         0.5000 
    118 O         -4.9224  -25.4050  -53.3679 O.2       21 UNK        -0.5000 
    119 N         -5.6470  -23.3279  -52.8146 N.am      22 UNK        -0.5000 
    120 CA        -6.7831  -23.6739  -51.9450 C.3       22 UNK         0.1400 
    121 C         -7.9461  -24.4258  -52.6684 C.2       22 UNK         0.5000 
    122 N         -8.0711  -24.3410  -53.9887 N.am      22 UNK        -0.7600 
    123 O         -8.7736  -25.0678  -52.0270 O.2       22 UNK        -0.5000 
    124 C124       -6.3515  -24.3427  -50.6081 C.3       23 UNK        -0.0398 
    125 S125       -5.3081  -23.2607  -49.5692 S.3       23 UNK        -0.2404 
    126 C126       -6.5862  -22.1948  -48.8296 C.3       23 UNK        -0.0205 
    127 H127        1.5354  -14.1947  -48.1860 H         1 UNK         0.0600 
    128 H128        2.5508  -15.5003  -48.7892 H         1 UNK         0.0600 
    129 H129        1.4321  -15.8162  -47.4746 H         1 UNK         0.0600 
    130 H130       -1.4960  -15.8042  -49.7864 H         1 UNK         0.3000 
    131 H131       -0.7814  -15.6058  -47.0005 H         1 UNK         0.0600 
    132 H132       -3.2441  -15.3040  -46.6751 H         1 UNK         0.0800 
    133 H133       -3.4811  -15.2578  -48.4069 H         1 UNK         0.0800 
    134 H134       -5.3098  -17.3347  -48.2393 H         1 UNK         0.0800 
    135 H135       -5.0805  -17.0442  -46.5330 H         1 UNK         0.0800 
    136 H136       -5.6767  -19.6210  -49.0718 H         1 UNK         0.1150 
    137 H137       -6.2934  -22.7312  -46.1877 H         1 UNK         0.1150 
    138 H138       -4.7305  -18.9371  -44.9477 H         1 UNK         0.1150 
    139 H139       -5.2908  -20.5594  -43.2829 H         1 UNK         0.0800 
    140 H140       -6.4790  -21.7605  -43.7182 H         1 UNK         0.0800 
    141 H141       -2.0286  -21.9685  -43.1973 H         1 UNK         0.0800 
    142 H142       -2.9336  -20.7526  -44.0432 H         1 UNK         0.0800 
    143 H143       -2.8208  -22.2160  -46.1518 H         1 UNK         0.0600 
    144 H144       -0.7902  -20.5382  -45.1148 H         1 UNK         0.3000 
    145 H145        1.4031  -20.6709  -47.9330 H         1 UNK         0.0600 
    146 H146        1.1060  -18.2616  -47.9681 H         1 UNK         0.0600 
    147 H147       -0.3902  -18.9846  -48.5398 H         1 UNK         0.0600 
    148 H148       -0.2903  -18.3525  -46.8995 H         1 UNK         0.0600 
    149 H149        1.5307  -19.1310  -45.5474 H         1 UNK         0.3000 
    150 H150        3.2956  -21.5768  -43.5778 H         1 UNK         0.0600 
    151 H151        4.9159  -20.3018  -44.9847 H         1 UNK         0.0600 
    152 H152        4.7623  -19.5913  -43.3843 H         1 UNK         0.0600 
    153 H153        3.9735  -18.8326  -44.7641 H         1 UNK         0.0600 
    154 H154        2.3235  -18.9939  -42.8934 H         1 UNK         0.3000 
    155 H155       -0.8556  -20.0548  -41.5902 H         1 UNK         0.0600 
    156 H156        1.6866  -18.8845  -40.3428 H         1 UNK         0.0600 
    157 H157        0.9049  -20.3777  -39.8365 H         1 UNK         0.0600 
    158 H158        0.0668  -18.8451  -39.6508 H         1 UNK         0.0600 
    159 H159        0.2286  -17.4551  -41.7910 H         1 UNK         0.3000 
    160 H160       -1.0064  -16.7383  -45.1099 H         1 UNK         0.0600 
    161 H161       -1.6906  -15.6794  -42.3220 H         1 UNK         0.0600 
    162 H162       -2.8453  -16.2930  -43.4998 H         1 UNK         0.0600 
    163 H163       -1.9447  -14.8222  -43.8395 H         1 UNK         0.0600 
    164 H164        0.5316  -15.1284  -43.3464 H         1 UNK         0.3000 
    165 H165        3.7915  -16.1780  -44.3623 H         1 UNK         0.0600 
    166 H166        3.9116  -13.6989  -44.6725 H         1 UNK         0.0600 
    167 H167        3.0653  -14.4708  -46.0015 H         1 UNK         0.0600 
    168 H168        2.1542  -13.6136  -44.7660 H         1 UNK         0.0600 
    169 H169        2.7093  -14.3153  -42.4267 H         1 UNK         0.3000 
    170 H170        2.8756  -16.5147  -39.6331 H         1 UNK         0.0600 
    171 H171        5.2241  -15.7374  -39.9753 H         1 UNK         0.0600 
    172 H172        4.6433  -14.1432  -40.4417 H         1 UNK         0.0600 
    173 H173        4.3850  -14.7367  -38.8010 H         1 UNK         0.0600 
    174 H174        2.2566  -13.7221  -39.9153 H         1 UNK         0.3000 
    175 H175       -1.2725  -14.1784  -40.3377 H         1 UNK         0.0600 
    176 H176        0.4028  -13.0895  -38.0181 H         1 UNK         0.0600 
    177 H177       -1.3083  -12.7800  -38.3136 H         1 UNK         0.0600 
    178 H178       -0.7687  -14.3965  -37.8921 H         1 UNK         0.0600 
    179 H179       -0.0779  -11.7390  -40.1575 H         1 UNK         0.3000 
    180 H180       -0.3419  -10.4798  -42.1939 H         1 UNK         0.0600 
    181 H181        2.6336  -11.1343  -42.6281 H         1 UNK         0.0600 
    182 H182        1.9458  -10.4427  -41.1637 H         1 UNK         0.0600 
    183 H183        1.9277   -9.5184  -42.6553 H         1 UNK         0.0600 
    184 H184        1.1682  -11.0223  -44.5816 H         1 UNK         0.3000 
    185 H185       -1.4596  -11.1405  -46.7092 H         1 UNK         0.0600 
    186 H186        0.8783  -10.1969  -46.6211 H         1 UNK         0.0600 
    187 H187        1.5314  -11.8313  -46.4725 H         1 UNK         0.0600 
    188 H188        0.6867  -11.3405  -47.9326 H         1 UNK         0.0600 
    189 H189       -0.6564  -13.7553  -45.7517 H         1 UNK         0.3000 
    190 H190        0.1129  -22.9760  -44.1995 H         1 UNK         0.3000 
    191 H191       -0.2502  -25.7803  -44.0873 H         1 UNK         0.0600 
    192 H192        2.3161  -24.1134  -43.9077 H         1 UNK         0.0600 
    193 H193        2.1531  -25.7917  -43.4053 H         1 UNK         0.0600 
    194 H194        1.2558  -24.5353  -42.5657 H         1 UNK         0.0600 
    195 H195        1.5014  -23.7526  -46.4590 H         1 UNK         0.3000 
    196 H196        2.4016  -25.9355  -48.1133 H         1 UNK         0.0600 
    197 H197        2.9794  -24.0856  -49.6859 H         1 UNK         0.0600 
    198 H198        3.5107  -23.7028  -48.0551 H         1 UNK         0.0600 
    199 H199        2.0592  -22.9468  -48.7104 H         1 UNK         0.0600 
    200 H200       -0.6415  -24.3432  -47.7912 H         1 UNK         0.3000 
    201 H201       -2.5649  -24.2282  -48.8322 H         1 UNK         0.0600 
    202 H202       -2.5585  -26.7181  -48.7499 H         1 UNK         0.0600 
    203 H203       -1.7694  -26.7859  -50.3261 H         1 UNK         0.0600 
    204 H204       -3.3945  -26.1314  -50.1798 H         1 UNK         0.0600 
    205 H205       -0.8520  -22.4557  -49.6557 H         1 UNK         0.3000 
    206 H206       -0.3387  -22.5148  -52.5364 H         1 UNK         0.0600 
    207 H207        1.3498  -21.6442  -50.9455 H         1 UNK         0.0600 
    208 H208        0.8558  -20.3807  -52.0577 H         1 UNK         0.0600 
    209 H209        0.2421  -20.3853  -50.4104 H         1 UNK         0.0600 
    210 H210       -2.3345  -20.5708  -50.3140 H         1 UNK         0.3000 
    211 H211       -3.8574  -18.9561  -50.5323 H         1 UNK         0.0600 
    212 H212       -4.8198  -20.6717  -52.8644 H         1 UNK         0.0600 
    213 H213       -5.7847  -19.4871  -51.9854 H         1 UNK         0.0600 
    214 H214       -5.2118  -20.9272  -51.1681 H         1 UNK         0.0600 
    215 H215       -2.1350  -17.5042  -51.0590 H         1 UNK         0.3000 
    216 H216       -1.2441  -15.7171  -52.0431 H         1 UNK         0.0600 
    217 H217       -2.4310  -14.4308  -53.7301 H         1 UNK         0.0600 
    218 H218       -3.6043  -15.0361  -52.5738 H         1 UNK         0.0600 
    219 H219       -3.4473  -15.7961  -54.1579 H         1 UNK         0.0600 
    220 H220       -0.8060  -18.5918  -53.0014 H         1 UNK         0.3000 
    221 H221        0.4181  -19.8318  -54.3648 H         1 UNK         0.0600 
    222 H222        1.9016  -17.2720  -55.1610 H         1 UNK         0.0600 
    223 H223        2.2745  -18.2625  -53.7511 H         1 UNK         0.0600 
    224 H224        2.4740  -18.9216  -55.3663 H         1 UNK         0.0600 
    225 H225       -2.1066  -18.9888  -55.2517 H         1 UNK         0.3000 
    226 H226       -1.8231  -19.0983  -58.2131 H         1 UNK         0.0600 
    227 H227       -2.0423  -16.6983  -57.6596 H         1 UNK         0.0600 
    228 H228       -3.5256  -17.2721  -58.4077 H         1 UNK         0.0600 
    229 H229       -3.4603  -17.0172  -56.6659 H         1 UNK         0.0600 
    230 H230       -4.2170  -19.0919  -55.4759 H         1 UNK         0.3000 
    231 H231       -6.1106  -20.5717  -57.1383 H         1 UNK         0.0600 
    232 H232       -6.9582  -18.7982  -55.7320 H         1 UNK         0.0600 
    233 H233       -6.2484  -19.4962  -54.2870 H         1 UNK         0.0600 
    234 H234       -7.5746  -20.3163  -55.1017 H         1 UNK         0.0600 
    235 H235       -3.6455  -21.4853  -54.8791 H         1 UNK         0.3000 
    236 H236       -2.9557  -23.3698  -53.9744 H         1 UNK         0.0600 
    237 H237       -4.4642  -24.7658  -56.2402 H         1 UNK         0.0600 
    238 H238       -2.8665  -24.0328  -56.3825 H         1 UNK         0.0600 
    239 H239       -3.1067  -25.4165  -55.3297 H         1 UNK         0.0600 
    240 H240       -5.5207  -22.3443  -52.9941 H         1 UNK         0.3000 
    241 H241       -7.2355  -22.7167  -51.6878 H         1 UNK         0.0600 
    242 H242       -7.4118  -23.8103  -54.5504 H         1 UNK         0.3800 
    243 H243       -8.8320  -24.8210  -54.4421 H         1 UNK         0.3800 
    244 H244       -5.8056  -25.2659  -50.8049 H         1 UNK         0.0800 
    245 H245       -7.2199  -24.6332  -50.0151 H         1 UNK         0.0800 
    246 H246       -7.3743  -22.8169  -48.4022 H         1 UNK         0.0800 
    247 H247       -7.0604  -21.5955  -49.6074 H         1 UNK         0.0800 
@<TRIPOS>BOND
     1    1    2 1    
     2    1  127 1    
     3    1  128 1    
     4    1  129 1    
     5    2    3 2    
     6    2    4 am   BACKBONE|DICT|INTERRES
     7    4    5 1    
     8    4  130 1    
     9    5    6 1    
    10    5   65 1    
    11    5  131 1    
    12    6    7 1    
    13    6  132 1    
    14    6  133 1    
    15    7    8 1    
    16    8    9 1    
    17    8  134 1    
    18    8  135 1    
    19    9   10 ar   
    20    9   14 ar   
    21   10   11 ar   
    22   10  136 1    
    23   11   12 ar   
    24   11  126 1    
    25   12   13 ar   
    26   12  137 1    
    27   13   14 ar   
    28   13   15 1    
    29   14  138 1    
    30   15   16 1    
    31   15  139 1    
    32   15  140 1    
    33   16   17 1    
    34   17   18 1    
    35   17  141 1    
    36   17  142 1    
    37   18   19 1    
    38   18   67 1    
    39   18  143 1    
    40   19   20 am   BACKBONE|DICT|INTERRES
    41   19  144 1    
    42   20   21 2    
    43   20   22 1    
    44   22   23 1    
    45   22   24 1    
    46   22  145 1    
    47   23  146 1    
    48   23  147 1    
    49   23  148 1    
    50   24   25 am   BACKBONE|DICT|INTERRES
    51   24  149 1    
    52   25   26 2    
    53   25   27 1    
    54   27   28 1    
    55   27   29 1    
    56   27  150 1    
    57   28  151 1    
    58   28  152 1    
    59   28  153 1    
    60   29   30 am   BACKBONE|DICT|INTERRES
    61   29  154 1    
    62   30   31 2    
    63   30   32 1    
    64   32   33 1    
    65   32   34 1    
    66   32  155 1    
    67   33  156 1    
    68   33  157 1    
    69   33  158 1    
    70   34   35 am   BACKBONE|DICT|INTERRES
    71   34  159 1    
    72   35   36 2    
    73   35   37 1    
    74   37   38 1    
    75   37   39 1    
    76   37  160 1    
    77   38  161 1    
    78   38  162 1    
    79   38  163 1    
    80   39   40 am   BACKBONE|DICT|INTERRES
    81   39  164 1    
    82   40   41 2    
    83   40   42 1    
    84   42   43 1    
    85   42   44 1    
    86   42  165 1    
    87   43  166 1    
    88   43  167 1    
    89   43  168 1    
    90   44   45 am   BACKBONE|DICT|INTERRES
    91   44  169 1    
    92   45   46 2    
    93   45   47 1    
    94   47   48 1    
    95   47   49 1    
    96   47  170 1    
    97   48  171 1    
    98   48  172 1    
    99   48  173 1    
   100   49   50 am   BACKBONE|DICT|INTERRES
   101   49  174 1    
   102   50   51 2    
   103   50   52 1    
   104   52   53 1    
   105   52   54 1    
   106   52  175 1    
   107   53  176 1    
   108   53  177 1    
   109   53  178 1    
   110   54   55 am   BACKBONE|DICT|INTERRES
   111   54  179 1    
   112   55   56 2    
   113   55   57 1    
   114   57   58 1    
   115   57   59 1    
   116   57  180 1    
   117   58  181 1    
   118   58  182 1    
   119   58  183 1    
   120   59   60 am   BACKBONE|DICT|INTERRES
   121   59  184 1    
   122   60   61 2    
   123   60   62 1    
   124   62   63 1    
   125   62   64 1    
   126   62  185 1    
   127   63  186 1    
   128   63  187 1    
   129   63  188 1    
   130   64   65 am   BACKBONE|DICT|INTERRES
   131   64  189 1    
   132   65   66 2    
   133   67   68 2    
   134   67   69 am   BACKBONE|DICT|INTERRES
   135   69   70 1    
   136   69  190 1    
   137   70   71 1    
   138   70   72 1    
   139   70  191 1    
   140   71  192 1    
   141   71  193 1    
   142   71  194 1    
   143   72   73 2    
   144   72   74 am   BACKBONE|DICT|INTERRES
   145   74   75 1    
   146   74  195 1    
   147   75   76 1    
   148   75   77 1    
   149   75  196 1    
   150   76  197 1    
   151   76  198 1    
   152   76  199 1    
   153   77   78 2    
   154   77   79 am   BACKBONE|DICT|INTERRES
   155   79   80 1    
   156   79  200 1    
   157   80   81 1    
   158   80   82 1    
   159   80  201 1    
   160   81  202 1    
   161   81  203 1    
   162   81  204 1    
   163   82   83 2    
   164   82   84 am   BACKBONE|DICT|INTERRES
   165   84   85 1    
   166   84  205 1    
   167   85   86 1    
   168   85   87 1    
   169   85  206 1    
   170   86  207 1    
   171   86  208 1    
   172   86  209 1    
   173   87   88 2    
   174   87   89 am   BACKBONE|DICT|INTERRES
   175   89   90 1    
   176   89  210 1    
   177   90   91 1    
   178   90   92 1    
   179   90  211 1    
   180   91  212 1    
   181   91  213 1    
   182   91  214 1    
   183   92   93 2    
   184   92   94 am   BACKBONE|DICT|INTERRES
   185   94   95 1    
   186   94  215 1    
   187   95   96 1    
   188   95   97 1    
   189   95  216 1    
   190   96  217 1    
   191   96  218 1    
   192   96  219 1    
   193   97   98 2    
   194   97   99 am   BACKBONE|DICT|INTERRES
   195   99  100 1    
   196   99  220 1    
   197  100  101 1    
   198  100  102 1    
   199  100  221 1    
   200  101  222 1    
   201  101  223 1    
   202  101  224 1    
   203  102  103 2    
   204  102  104 am   BACKBONE|DICT|INTERRES
   205  104  105 1    
   206  104  225 1    
   207  105  106 1    
   208  105  107 1    
   209  105  226 1    
   210  106  227 1    
   211  106  228 1    
   212  106  229 1    
   213  107  108 2    
   214  107  109 am   BACKBONE|DICT|INTERRES
   215  109  110 1    
   216  109  230 1    
   217  110  111 1    
   218  110  112 1    
   219  110  231 1    
   220  111  232 1    
   221  111  233 1    
   222  111  234 1    
   223  112  113 2    
   224  112  114 am   BACKBONE|DICT|INTERRES
   225  114  115 1    
   226  114  235 1    
   227  115  116 1    
   228  115  117 1    
   229  115  236 1    
   230  116  237 1    
   231  116  238 1    
   232  116  239 1    
   233  117  118 2    
   234  117  119 am   BACKBONE|DICT|INTERRES
   235  119  120 1    
   236  119  240 1    
   237  120  121 1    
   238  120  124 1    
   239  120  241 1    
   240  121  122 am   BACKBONE|DICT|INTERRES
   241  121  123 2    
   242  122  242 1    
   243  122  243 1    
   244  124  125 1    
   245  124  244 1    
   246  124  245 1    
   247  125  126 1    
   248  126  246 1    
   249  126  247 1    
@<TRIPOS>SUBSTRUCTURE
     1 UNK         1 GROUP             0       ****    0 ROOT    
