@<TRIPOS>MOLECULE
3R540
247   249    1
SMALL
USER_CHARGES


@<TRIPOS>ATOM
      1 CA         -0.5915  -13.3883  -48.1143 C.3       0 UNK        -0.1800 
      2 C           0.8448  -12.9195  -47.9299 C.2       0 UNK         0.5000 
      3 O           1.2546  -12.6328  -46.8054 O.2       0 UNK        -0.5000 
      4 N           1.6031  -12.8359  -49.0318 N.am      1 UNK        -0.5000 
      5 CA          2.9870  -12.3521  -49.1213 C.3       1 UNK         0.1400 
      6 C6          4.0267  -13.2591  -48.4038 C.3       23 UNK        -0.0398 
      7 S7          4.2571  -14.8450  -49.2820 S.3       23 UNK        -0.2404 
      8 C8          3.4163  -16.0363  -48.1936 C.3       23 UNK        -0.0205 
      9 C9          2.5380  -16.9824  -48.9972 C.ar      23 UNK        -0.0193 
     10 C10         1.2692  -16.5663  -49.4026 C.ar      23 UNK        -0.1150 
     11 C11         0.4346  -17.4162  -50.1296 C.ar      23 UNK        -0.0193 
     12 C12         0.8819  -18.6971  -50.4629 C.ar      23 UNK        -0.1150 
     13 C13         2.1506  -19.1305  -50.0618 C.ar      23 UNK        -0.0193 
     14 C14         2.9753  -18.2685  -49.3293 C.ar      23 UNK        -0.1150 
     15 C15         2.6353  -20.5252  -50.4320 C.3       23 UNK        -0.0205 
     16 S16         2.4604  -21.7059  -49.0566 S.3       23 UNK        -0.2404 
     17 C17         0.6477  -21.7896  -48.8900 C.3       23 UNK        -0.0398 
     18 CA          0.1898  -22.9422  -47.9649 C.3       11 UNK         0.1400 
     19 N           0.5347  -22.7221  -46.5555 N.am      11 UNK        -0.5000 
     20 C           0.3373  -23.6166  -45.5752 C.2       10 UNK         0.5000 
     21 O          -0.1142  -24.7455  -45.7620 O.2       10 UNK        -0.5000 
     22 CA          0.6383  -23.1670  -44.1354 C.3       10 UNK         0.1400 
     23 CB          2.1475  -23.1933  -43.8519 C.3       10 UNK        -0.1800 
     24 N           0.0895  -21.8458  -43.8316 N.am      10 UNK        -0.5000 
     25 C          -1.2180  -21.5470  -43.8316 C.2       9 UNK         0.5000 
     26 O          -2.1068  -22.3705  -44.0464 O.2       9 UNK        -0.5000 
     27 CA         -1.5981  -20.0728  -43.5974 C.3       9 UNK         0.1400 
     28 CB         -1.5637  -19.7229  -42.1023 C.3       9 UNK        -0.1800 
     29 N          -0.7430  -19.1455  -44.3368 N.am      9 UNK        -0.5000 
     30 C          -0.6407  -19.1076  -45.6735 C.2       8 UNK         0.5000 
     31 O          -1.2888  -19.8241  -46.4361 O.2       8 UNK        -0.5000 
     32 CA          0.4173  -18.1500  -46.2429 C.3       8 UNK         0.1400 
     33 CB         -0.0884  -16.6981  -46.2190 C.3       8 UNK        -0.1800 
     34 N           1.6850  -18.2473  -45.5159 N.am      8 UNK        -0.5000 
     35 C           2.4531  -19.3469  -45.4853 C.2       7 UNK         0.5000 
     36 O           2.1787  -20.3884  -46.0756 O.2       7 UNK        -0.5000 
     37 CA          3.7097  -19.2950  -44.5985 C.3       7 UNK         0.1400 
     38 CB          4.8530  -18.5640  -45.3179 C.3       7 UNK        -0.1800 
     39 N           3.4582  -18.6519  -43.3097 N.am      7 UNK        -0.5000 
     40 C           2.6201  -19.1160  -42.3706 C.2       6 UNK         0.5000 
     41 O           2.0227  -20.1872  -42.4548 O.2       6 UNK        -0.5000 
     42 CA          2.3607  -18.1930  -41.1645 C.3       6 UNK         0.1400 
     43 CB          3.3801  -18.4599  -40.0475 C.3       6 UNK        -0.1800 
     44 N           2.3983  -16.7748  -41.5334 N.am      6 UNK        -0.5000 
     45 C           1.5364  -16.1972  -42.3798 C.2       5 UNK         0.5000 
     46 O           0.5660  -16.7781  -42.8746 O.2       5 UNK        -0.5000 
     47 CA          1.8664  -14.7633  -42.8053 C.3       5 UNK         0.1400 
     48 CB          2.9620  -14.7648  -43.8919 C.3       5 UNK        -0.1800 
     49 N           0.6618  -14.1255  -43.3229 N.am      5 UNK        -0.5000 
     50 C           0.5027  -12.8068  -43.4524 C.2       4 UNK         0.5000 
     51 O           1.3477  -11.9775  -43.0975 O.2       4 UNK        -0.5000 
     52 CA         -0.8116  -12.3229  -44.0806 C.3       4 UNK         0.1400 
     53 CB         -1.9336  -12.2119  -43.0344 C.3       4 UNK        -0.1800 
     54 N          -0.5325  -11.0205  -44.6643 N.am      4 UNK        -0.5000 
     55 C          -1.1848  -10.4222  -45.6642 C.2       3 UNK         0.5000 
     56 O          -2.2356  -10.8341  -46.1548 O.2       3 UNK        -0.5000 
     57 CA         -0.5009   -9.1730  -46.2364 C.3       3 UNK         0.1400 
     58 CB         -0.7508   -7.9751  -45.2940 C.3       3 UNK        -0.1800 
     59 N           0.9256   -9.4704  -46.4130 N.am      3 UNK        -0.5000 
     60 C           1.9129   -8.6301  -46.7495 C.2       2 UNK         0.5000 
     61 O           1.7591   -7.4320  -46.9874 O.2       2 UNK        -0.5000 
     62 CA          3.3228   -9.2445  -46.8502 C.3       2 UNK         0.1400 
     63 CB          3.9888   -9.2922  -45.4662 C.3       2 UNK        -0.1800 
     64 N           3.3097  -10.5925  -47.4204 N.am      2 UNK        -0.5000 
     65 C           3.0696  -10.8660  -48.7101 C.2       1 UNK         0.5000 
     66 O           2.8938   -9.9982  -49.5671 O.2       1 UNK        -0.5000 
     67 C          -1.3168  -23.2066  -48.1450 C.2       11 UNK         0.5000 
     68 O          -1.6792  -24.1880  -48.7940 O.2       11 UNK        -0.5000 
     69 N          -2.1614  -22.3581  -47.5409 N.am      12 UNK        -0.5000 
     70 CA         -3.6197  -22.4782  -47.5723 C.3       12 UNK         0.1400 
     71 CB         -4.2507  -21.2497  -46.9031 C.3       12 UNK        -0.1800 
     72 C          -4.1397  -23.7778  -46.9320 C.2       12 UNK         0.5000 
     73 O          -5.1064  -24.3488  -47.4334 O.2       12 UNK        -0.5000 
     74 N          -3.4846  -24.2396  -45.8597 N.am      13 UNK        -0.5000 
     75 CA         -3.7785  -25.5146  -45.2102 C.3       13 UNK         0.1400 
     76 CB         -3.1285  -25.5444  -43.8182 C.3       13 UNK        -0.1800 
     77 C          -3.3262  -26.7228  -46.0515 C.2       13 UNK         0.5000 
     78 O          -4.0910  -27.6766  -46.1992 O.2       13 UNK        -0.5000 
     79 N          -2.0912  -26.6717  -46.5686 N.am      14 UNK        -0.5000 
     80 CA         -1.4489  -27.7761  -47.2798 C.3       14 UNK         0.1400 
     81 CB          0.0700  -27.5450  -47.3225 C.3       14 UNK        -0.1800 
     82 C          -1.9982  -27.9972  -48.6983 C.2       14 UNK         0.5000 
     83 O          -2.3117  -29.1342  -49.0541 O.2       14 UNK        -0.5000 
     84 N          -2.0778  -26.9218  -49.4919 N.am      15 UNK        -0.5000 
     85 CA         -2.4458  -26.9824  -50.9086 C.3       15 UNK         0.1400 
     86 CB         -1.7091  -25.8606  -51.6604 C.3       15 UNK        -0.1800 
     87 C          -3.9608  -26.8628  -51.1432 C.2       15 UNK         0.5000 
     88 O          -4.4221  -27.2397  -52.2201 O.2       15 UNK        -0.5000 
     89 N          -4.6812  -26.3308  -50.1452 N.am      16 UNK        -0.5000 
     90 CA         -6.0286  -25.7521  -50.1885 C.3       16 UNK         0.1400 
     91 CB         -7.0421  -26.5828  -51.0011 C.3       16 UNK        -0.1800 
     92 C          -5.9640  -24.2942  -50.6780 C.2       16 UNK         0.5000 
     93 O          -5.1349  -23.9515  -51.5258 O.2       16 UNK        -0.5000 
     94 N          -6.8525  -23.4544  -50.1321 N.am      17 UNK        -0.5000 
     95 CA         -6.8884  -22.0030  -50.3383 C.3       17 UNK         0.1400 
     96 CB         -8.0289  -21.4079  -49.4992 C.3       17 UNK        -0.1800 
     97 C          -7.0198  -21.5702  -51.8104 C.2       17 UNK         0.5000 
     98 O          -6.4205  -20.5714  -52.2089 O.2       17 UNK        -0.5000 
     99 N          -7.7686  -22.3532  -52.5985 N.am      18 UNK        -0.5000 
    100 CA        -7.9708  -22.1415  -54.0320 C.3       18 UNK         0.1400 
    101 CB        -9.1003  -23.0618  -54.5191 C.3       18 UNK        -0.1800 
    102 C         -6.6966  -22.3619  -54.8705 C.2       18 UNK         0.5000 
    103 O         -6.5292  -21.6976  -55.8936 O.2       18 UNK        -0.5000 
    104 N         -5.8247  -23.2780  -54.4272 N.am      19 UNK        -0.5000 
    105 CA        -4.5430  -23.5678  -55.0699 C.3       19 UNK         0.1400 
    106 CB        -4.1590  -25.0290  -54.8084 C.3       19 UNK        -0.1800 
    107 C         -3.4400  -22.6241  -54.5664 C.2       19 UNK         0.5000 
    108 O         -2.6017  -22.1958  -55.3604 O.2       19 UNK        -0.5000 
    109 N         -3.4691  -22.3045  -53.2639 N.am      20 UNK        -0.5000 
    110 CA        -2.5592  -21.3555  -52.6200 C.3       20 UNK         0.1400 
    111 CB        -2.7432  -21.4358  -51.0983 C.3       20 UNK        -0.1800 
    112 C         -2.7609  -19.9074  -53.1027 C.2       20 UNK         0.5000 
    113 O         -1.7900  -19.1551  -53.1624 O.2       20 UNK        -0.5000 
    114 N         -4.0126  -19.5631  -53.4404 N.am      21 UNK        -0.5000 
    115 CA        -4.5082  -18.2416  -53.8341 C.3       21 UNK         0.1400 
    116 CB        -3.7925  -17.7112  -55.0944 C.3       21 UNK        -0.1800 
    117 C         -4.5158  -17.2409  -52.6599 C.2       21 UNK         0.5000 
    118 O         -4.3365  -16.0394  -52.8676 O.2       21 UNK        -0.5000 
    119 N         -4.7536  -17.7538  -51.4487 N.am      22 UNK        -0.5000 
    120 CA        -4.8963  -17.0002  -50.1994 C.3       22 UNK         0.1400 
    121 C         -5.5755  -17.8653  -49.1046 C.2       22 UNK         0.5000 
    122 N         -6.0847  -17.2515  -48.0449 N.am      22 UNK        -0.7600 
    123 O         -5.6452  -19.0873  -49.2013 O.2       22 UNK        -0.5000 
    124 C124       -3.5747  -16.3434  -49.7124 C.3       23 UNK        -0.0398 
    125 S125       -2.2127  -17.5156  -49.3736 S.3       23 UNK        -0.2404 
    126 C126       -0.9470  -16.9406  -50.5447 C.3       23 UNK        -0.0205 
    127 H127       -0.7462  -13.8545  -49.0870 H         1 UNK         0.0600 
    128 H128       -0.8573  -14.1109  -47.3440 H         1 UNK         0.0600 
    129 H129       -1.2727  -12.5423  -48.0345 H         1 UNK         0.0600 
    130 H130        1.1857  -13.0633  -49.9229 H         1 UNK         0.3000 
    131 H131        3.2328  -12.3665  -50.1847 H         1 UNK         0.0600 
    132 H132        5.0027  -12.7710  -48.3853 H         1 UNK         0.0800 
    133 H133        3.7610  -13.4344  -47.3609 H         1 UNK         0.0800 
    134 H134        2.8044  -15.5160  -47.4567 H         1 UNK         0.0800 
    135 H135        4.1661  -16.5941  -47.6325 H         1 UNK         0.0800 
    136 H136        0.9280  -15.5777  -49.1424 H         1 UNK         0.1150 
    137 H137        0.2367  -19.3553  -51.0281 H         1 UNK         0.1150 
    138 H138        3.9548  -18.6017  -49.0165 H         1 UNK         0.1150 
    139 H139        2.0981  -20.9002  -51.3045 H         1 UNK         0.0800 
    140 H140        3.6860  -20.4774  -50.7214 H         1 UNK         0.0800 
    141 H141        0.2335  -21.9140  -49.8925 H         1 UNK         0.0800 
    142 H142        0.2807  -20.8310  -48.5188 H         1 UNK         0.0800 
    143 H143        0.7056  -23.8515  -48.2814 H         1 UNK         0.0600 
    144 H144        0.9621  -21.8265  -46.3302 H         1 UNK         0.3000 
    145 H145        0.1606  -23.8817  -43.4620 H         1 UNK         0.0600 
    146 H146        2.3564  -22.9564  -42.8087 H         1 UNK         0.0600 
    147 H147        2.5638  -24.1815  -44.0506 H         1 UNK         0.0600 
    148 H148        2.6888  -22.4793  -44.4720 H         1 UNK         0.0600 
    149 H149        0.7592  -21.1215  -43.5896 H         1 UNK         0.3000 
    150 H150       -2.6204  -19.9337  -43.9550 H         1 UNK         0.0600 
    151 H151       -2.2346  -20.3700  -41.5360 H         1 UNK         0.0600 
    152 H152       -1.8804  -18.6939  -41.9305 H         1 UNK         0.0600 
    153 H153       -0.5647  -19.8393  -41.6826 H         1 UNK         0.0600 
    154 H154       -0.1817  -18.5016  -43.7902 H         1 UNK         0.3000 
    155 H155        0.6019  -18.4366  -47.2797 H         1 UNK         0.0600 
    156 H156       -0.9561  -16.5840  -46.8680 H         1 UNK         0.0600 
    157 H157       -0.3936  -16.3841  -45.2224 H         1 UNK         0.0600 
    158 H158        0.6722  -16.0019  -46.5678 H         1 UNK         0.0600 
    159 H159        1.9429  -17.4578  -44.9458 H         1 UNK         0.3000 
    160 H160        4.0263  -20.3227  -44.4087 H         1 UNK         0.0600 
    161 H161        4.6314  -17.5053  -45.4550 H         1 UNK         0.0600 
    162 H162        5.0342  -18.9944  -46.3039 H         1 UNK         0.0600 
    163 H163        5.7833  -18.6400  -44.7549 H         1 UNK         0.0600 
    164 H164        3.9189  -17.7701  -43.1446 H         1 UNK         0.3000 
    165 H165        1.3633  -18.4182  -40.7809 H         1 UNK         0.0600 
    166 H166        3.1626  -17.8600  -39.1636 H         1 UNK         0.0600 
    167 H167        3.3574  -19.5069  -39.7418 H         1 UNK         0.0600 
    168 H168        4.3982  -18.2330  -40.3663 H         1 UNK         0.0600 
    169 H169        3.1673  -16.2331  -41.1652 H         1 UNK         0.3000 
    170 H170        2.2163  -14.2174  -41.9265 H         1 UNK         0.0600 
    171 H171        3.8675  -15.2633  -43.5445 H         1 UNK         0.0600 
    172 H172        2.6294  -15.2737  -44.7972 H         1 UNK         0.0600 
    173 H173        3.2451  -13.7500  -44.1720 H         1 UNK         0.0600 
    174 H174       -0.0788  -14.7683  -43.5728 H         1 UNK         0.3000 
    175 H175       -1.1024  -13.0180  -44.8712 H         1 UNK         0.0600 
    176 H176       -1.6677  -11.5205  -42.2338 H         1 UNK         0.0600 
    177 H177       -2.8618  -11.8607  -43.4854 H         1 UNK         0.0600 
    178 H178       -2.1402  -13.1809  -42.5788 H         1 UNK         0.0600 
    179 H179        0.3327  -10.6181  -44.3236 H         1 UNK         0.3000 
    180 H180       -0.9339   -8.9611  -47.2155 H         1 UNK         0.0600 
    181 H181       -0.2004   -8.0756  -44.3579 H         1 UNK         0.0600 
    182 H182       -1.8092   -7.8885  -45.0440 H         1 UNK         0.0600 
    183 H183       -0.4627   -7.0308  -45.7542 H         1 UNK         0.0600 
    184 H184        1.1618  -10.4524  -46.3157 H         1 UNK         0.3000 
    185 H185        3.9245   -8.6007  -47.4956 H         1 UNK         0.0600 
    186 H186        4.0280   -8.2986  -45.0177 H         1 UNK         0.0600 
    187 H187        3.4456   -9.9419  -44.7784 H         1 UNK         0.0600 
    188 H188        5.0136   -9.6576  -45.5344 H         1 UNK         0.0600 
    189 H189        3.3702  -11.3613  -46.7678 H         1 UNK         0.3000 
    190 H190       -1.7860  -21.5559  -47.0394 H         1 UNK         0.3000 
    191 H191       -3.9275  -22.4874  -48.6192 H         1 UNK         0.0600 
    192 H192       -5.3391  -21.2873  -46.9637 H         1 UNK         0.0600 
    193 H193       -3.9310  -20.3292  -47.3924 H         1 UNK         0.0600 
    194 H194       -3.9776  -21.1802  -45.8498 H         1 UNK         0.0600 
    195 H195       -2.7394  -23.6794  -45.4583 H         1 UNK         0.3000 
    196 H196       -4.8597  -25.5887  -45.0749 H         1 UNK         0.0600 
    197 H197       -3.3381  -26.4855  -43.3083 H         1 UNK         0.0600 
    198 H198       -3.5114  -24.7409  -43.1889 H         1 UNK         0.0600 
    199 H199       -2.0451  -25.4346  -43.8749 H         1 UNK         0.0600 
    200 H200       -1.5086  -25.8601  -46.3763 H         1 UNK         0.3000 
    201 H201       -1.6266  -28.6917  -46.7115 H         1 UNK         0.0600 
    202 H202        0.4874  -27.4886  -46.3170 H         1 UNK         0.0600 
    203 H203        0.3225  -26.6189  -47.8407 H         1 UNK         0.0600 
    204 H204        0.5769  -28.3608  -47.8395 H         1 UNK         0.0600 
    205 H205       -1.8345  -26.0026  -49.1264 H         1 UNK         0.3000 
    206 H206       -2.1178  -27.9357  -51.3287 H         1 UNK         0.0600 
    207 H207       -0.6356  -25.8950  -51.4745 H         1 UNK         0.0600 
    208 H208       -1.8552  -25.9530  -52.7370 H         1 UNK         0.0600 
    209 H209       -2.0704  -24.8739  -51.3677 H         1 UNK         0.0600 
    210 H210       -4.1595  -26.0830  -49.3159 H         1 UNK         0.3000 
    211 H211       -6.3765  -25.7499  -49.1555 H         1 UNK         0.0600 
    212 H212       -6.8733  -26.5009  -52.0753 H         1 UNK         0.0600 
    213 H213       -8.0595  -26.2389  -50.8126 H         1 UNK         0.0600 
    214 H214       -7.0002  -27.6376  -50.7295 H         1 UNK         0.0600 
    215 H215       -7.4946  -23.8172  -49.4423 H         1 UNK         0.3000 
    216 H216       -5.9450  -21.6026  -49.9651 H         1 UNK         0.0600 
    217 H217       -8.0899  -20.3270  -49.6328 H         1 UNK         0.0600 
    218 H218       -7.8716  -21.5918  -48.4362 H         1 UNK         0.0600 
    219 H219       -8.9963  -21.8279  -49.7766 H         1 UNK         0.0600 
    220 H220       -8.2168  -23.1585  -52.1871 H         1 UNK         0.3000 
    221 H221       -8.2865  -21.1064  -54.1786 H         1 UNK         0.0600 
    222 H222       -8.8524  -24.1143  -54.3754 H         1 UNK         0.0600 
    223 H223      -10.0309  -22.8596  -53.9885 H         1 UNK         0.0600 
    224 H224       -9.2947  -22.9124  -55.5820 H         1 UNK         0.0600 
    225 H225       -6.0005  -23.7377  -53.5432 H         1 UNK         0.3000 
    226 H226       -4.6382  -23.4350  -56.1498 H         1 UNK         0.0600 
    227 H227       -4.9329  -25.7136  -55.1555 H         1 UNK         0.0600 
    228 H228       -3.2338  -25.2895  -55.3237 H         1 UNK         0.0600 
    229 H229       -4.0034  -25.2079  -53.7460 H         1 UNK         0.0600 
    230 H230       -4.1542  -22.7590  -52.6663 H         1 UNK         0.3000 
    231 H231       -1.5358  -21.6518  -52.8590 H         1 UNK         0.0600 
    232 H232       -2.5911  -22.4535  -50.7416 H         1 UNK         0.0600 
    233 H233       -3.7427  -21.1212  -50.7974 H         1 UNK         0.0600 
    234 H234       -2.0305  -20.7926  -50.5802 H         1 UNK         0.0600 
    235 H235       -4.7417  -20.2507  -53.2821 H         1 UNK         0.3000 
    236 H236       -5.5556  -18.3920  -54.0996 H         1 UNK         0.0600 
    237 H237       -4.2952  -16.8245  -55.4819 H         1 UNK         0.0600 
    238 H238       -2.7584  -17.4331  -54.8904 H         1 UNK         0.0600 
    239 H239       -3.7907  -18.4566  -55.8898 H         1 UNK         0.0600 
    240 H240       -4.9355  -18.7460  -51.3556 H         1 UNK         0.3000 
    241 H241       -5.6040  -16.1968  -50.4124 H         1 UNK         0.0600 
    242 H242       -6.0514  -16.2498  -47.9396 H         1 UNK         0.3800 
    243 H243       -6.5239  -17.8092  -47.3300 H         1 UNK         0.3800 
    244 H244       -3.2487  -15.6066  -50.4463 H         1 UNK         0.0800 
    245 H245       -3.7520  -15.7702  -48.8014 H         1 UNK         0.0800 
    246 H246       -0.9566  -15.8514  -50.5957 H         1 UNK         0.0800 
    247 H247       -1.1866  -17.2923  -51.5470 H         1 UNK         0.0800 
@<TRIPOS>BOND
     1    1    2 1    
     2    1  127 1    
     3    1  128 1    
     4    1  129 1    
     5    2    3 2    
     6    2    4 am   BACKBONE|DICT|INTERRES
     7    4    5 1    
     8    4  130 1    
     9    5    6 1    
    10    5   65 1    
    11    5  131 1    
    12    6    7 1    
    13    6  132 1    
    14    6  133 1    
    15    7    8 1    
    16    8    9 1    
    17    8  134 1    
    18    8  135 1    
    19    9   10 ar   
    20    9   14 ar   
    21   10   11 ar   
    22   10  136 1    
    23   11   12 ar   
    24   11  126 1    
    25   12   13 ar   
    26   12  137 1    
    27   13   14 ar   
    28   13   15 1    
    29   14  138 1    
    30   15   16 1    
    31   15  139 1    
    32   15  140 1    
    33   16   17 1    
    34   17   18 1    
    35   17  141 1    
    36   17  142 1    
    37   18   19 1    
    38   18   67 1    
    39   18  143 1    
    40   19   20 am   BACKBONE|DICT|INTERRES
    41   19  144 1    
    42   20   21 2    
    43   20   22 1    
    44   22   23 1    
    45   22   24 1    
    46   22  145 1    
    47   23  146 1    
    48   23  147 1    
    49   23  148 1    
    50   24   25 am   BACKBONE|DICT|INTERRES
    51   24  149 1    
    52   25   26 2    
    53   25   27 1    
    54   27   28 1    
    55   27   29 1    
    56   27  150 1    
    57   28  151 1    
    58   28  152 1    
    59   28  153 1    
    60   29   30 am   BACKBONE|DICT|INTERRES
    61   29  154 1    
    62   30   31 2    
    63   30   32 1    
    64   32   33 1    
    65   32   34 1    
    66   32  155 1    
    67   33  156 1    
    68   33  157 1    
    69   33  158 1    
    70   34   35 am   BACKBONE|DICT|INTERRES
    71   34  159 1    
    72   35   36 2    
    73   35   37 1    
    74   37   38 1    
    75   37   39 1    
    76   37  160 1    
    77   38  161 1    
    78   38  162 1    
    79   38  163 1    
    80   39   40 am   BACKBONE|DICT|INTERRES
    81   39  164 1    
    82   40   41 2    
    83   40   42 1    
    84   42   43 1    
    85   42   44 1    
    86   42  165 1    
    87   43  166 1    
    88   43  167 1    
    89   43  168 1    
    90   44   45 am   BACKBONE|DICT|INTERRES
    91   44  169 1    
    92   45   46 2    
    93   45   47 1    
    94   47   48 1    
    95   47   49 1    
    96   47  170 1    
    97   48  171 1    
    98   48  172 1    
    99   48  173 1    
   100   49   50 am   BACKBONE|DICT|INTERRES
   101   49  174 1    
   102   50   51 2    
   103   50   52 1    
   104   52   53 1    
   105   52   54 1    
   106   52  175 1    
   107   53  176 1    
   108   53  177 1    
   109   53  178 1    
   110   54   55 am   BACKBONE|DICT|INTERRES
   111   54  179 1    
   112   55   56 2    
   113   55   57 1    
   114   57   58 1    
   115   57   59 1    
   116   57  180 1    
   117   58  181 1    
   118   58  182 1    
   119   58  183 1    
   120   59   60 am   BACKBONE|DICT|INTERRES
   121   59  184 1    
   122   60   61 2    
   123   60   62 1    
   124   62   63 1    
   125   62   64 1    
   126   62  185 1    
   127   63  186 1    
   128   63  187 1    
   129   63  188 1    
   130   64   65 am   BACKBONE|DICT|INTERRES
   131   64  189 1    
   132   65   66 2    
   133   67   68 2    
   134   67   69 am   BACKBONE|DICT|INTERRES
   135   69   70 1    
   136   69  190 1    
   137   70   71 1    
   138   70   72 1    
   139   70  191 1    
   140   71  192 1    
   141   71  193 1    
   142   71  194 1    
   143   72   73 2    
   144   72   74 am   BACKBONE|DICT|INTERRES
   145   74   75 1    
   146   74  195 1    
   147   75   76 1    
   148   75   77 1    
   149   75  196 1    
   150   76  197 1    
   151   76  198 1    
   152   76  199 1    
   153   77   78 2    
   154   77   79 am   BACKBONE|DICT|INTERRES
   155   79   80 1    
   156   79  200 1    
   157   80   81 1    
   158   80   82 1    
   159   80  201 1    
   160   81  202 1    
   161   81  203 1    
   162   81  204 1    
   163   82   83 2    
   164   82   84 am   BACKBONE|DICT|INTERRES
   165   84   85 1    
   166   84  205 1    
   167   85   86 1    
   168   85   87 1    
   169   85  206 1    
   170   86  207 1    
   171   86  208 1    
   172   86  209 1    
   173   87   88 2    
   174   87   89 am   BACKBONE|DICT|INTERRES
   175   89   90 1    
   176   89  210 1    
   177   90   91 1    
   178   90   92 1    
   179   90  211 1    
   180   91  212 1    
   181   91  213 1    
   182   91  214 1    
   183   92   93 2    
   184   92   94 am   BACKBONE|DICT|INTERRES
   185   94   95 1    
   186   94  215 1    
   187   95   96 1    
   188   95   97 1    
   189   95  216 1    
   190   96  217 1    
   191   96  218 1    
   192   96  219 1    
   193   97   98 2    
   194   97   99 am   BACKBONE|DICT|INTERRES
   195   99  100 1    
   196   99  220 1    
   197  100  101 1    
   198  100  102 1    
   199  100  221 1    
   200  101  222 1    
   201  101  223 1    
   202  101  224 1    
   203  102  103 2    
   204  102  104 am   BACKBONE|DICT|INTERRES
   205  104  105 1    
   206  104  225 1    
   207  105  106 1    
   208  105  107 1    
   209  105  226 1    
   210  106  227 1    
   211  106  228 1    
   212  106  229 1    
   213  107  108 2    
   214  107  109 am   BACKBONE|DICT|INTERRES
   215  109  110 1    
   216  109  230 1    
   217  110  111 1    
   218  110  112 1    
   219  110  231 1    
   220  111  232 1    
   221  111  233 1    
   222  111  234 1    
   223  112  113 2    
   224  112  114 am   BACKBONE|DICT|INTERRES
   225  114  115 1    
   226  114  235 1    
   227  115  116 1    
   228  115  117 1    
   229  115  236 1    
   230  116  237 1    
   231  116  238 1    
   232  116  239 1    
   233  117  118 2    
   234  117  119 am   BACKBONE|DICT|INTERRES
   235  119  120 1    
   236  119  240 1    
   237  120  121 1    
   238  120  124 1    
   239  120  241 1    
   240  121  122 am   BACKBONE|DICT|INTERRES
   241  121  123 2    
   242  122  242 1    
   243  122  243 1    
   244  124  125 1    
   245  124  244 1    
   246  124  245 1    
   247  125  126 1    
   248  126  246 1    
   249  126  247 1    
@<TRIPOS>SUBSTRUCTURE
     1 UNK         1 GROUP             0       ****    0 ROOT    
