@<TRIPOS>MOLECULE
3R540
247   249    1
SMALL
USER_CHARGES


@<TRIPOS>ATOM
      1 CA          0.1716  -15.1413  -48.6349 C.3       0 UNK        -0.1800 
      2 C           1.2173  -14.1424  -49.1027 C.2       0 UNK         0.5000 
      3 O           0.9268  -13.2834  -49.9346 O.2       0 UNK        -0.5000 
      4 N           2.4290  -14.2473  -48.5553 N.am      1 UNK        -0.5000 
      5 CA          3.5428  -13.3302  -48.7736 C.3       1 UNK         0.1400 
      6 C6          4.4284  -13.7347  -49.9818 C.3       23 UNK        -0.0398 
      7 S7          5.2571  -15.3619  -49.8411 S.3       23 UNK        -0.2404 
      8 C8          4.7991  -16.1790  -51.4048 C.3       23 UNK        -0.0205 
      9 C9          3.5258  -17.0001  -51.2679 C.ar      23 UNK        -0.0193 
     10 C10         2.2815  -16.4424  -51.5733 C.ar      23 UNK        -0.1150 
     11 C11         1.1111  -17.1961  -51.4358 C.ar      23 UNK        -0.0193 
     12 C12         1.1971  -18.5244  -51.0072 C.ar      23 UNK        -0.1150 
     13 C13         2.4368  -19.1013  -50.7204 C.ar      23 UNK        -0.0193 
     14 C14         3.5963  -18.3307  -50.8456 C.ar      23 UNK        -0.1150 
     15 C15         2.5296  -20.5568  -50.2852 C.3       23 UNK        -0.0205 
     16 S16         1.9952  -20.7817  -48.5596 S.3       23 UNK        -0.2404 
     17 C17         0.2382  -21.2482  -48.7496 C.3       23 UNK        -0.0398 
     18 CA         -0.1431  -22.3591  -47.7428 C.3       11 UNK         0.1400 
     19 N          -0.2110  -21.8538  -46.3684 N.am      11 UNK        -0.5000 
     20 C          -0.2612  -22.6249  -45.2750 C.2       10 UNK         0.5000 
     21 O          -0.2482  -23.8540  -45.3079 O.2       10 UNK        -0.5000 
     22 CA         -0.4001  -21.9085  -43.9210 C.3       10 UNK         0.1400 
     23 CB          0.9461  -21.3213  -43.4731 C.3       10 UNK        -0.1800 
     24 N          -1.4192  -20.8583  -43.9339 N.am      10 UNK        -0.5000 
     25 C          -2.7252  -21.0648  -44.1553 C.2       9 UNK         0.5000 
     26 O          -3.2107  -22.1719  -44.3832 O.2       9 UNK        -0.5000 
     27 CA         -3.6377  -19.8281  -44.1507 C.3       9 UNK         0.1400 
     28 CB         -3.9631  -19.3864  -42.7158 C.3       9 UNK        -0.1800 
     29 N          -3.0277  -18.7200  -44.8792 N.am      9 UNK        -0.5000 
     30 C          -3.0215  -18.6073  -46.2146 C.2       8 UNK         0.5000 
     31 O          -3.6105  -19.3796  -46.9721 O.2       8 UNK        -0.5000 
     32 CA         -2.2062  -17.4407  -46.8034 C.3       8 UNK         0.1400 
     33 CB         -3.1015  -16.2061  -46.9847 C.3       8 UNK        -0.1800 
     34 N          -1.0322  -17.0887  -45.9983 N.am      8 UNK        -0.5000 
     35 C           0.0125  -17.9093  -45.8107 C.2       7 UNK         0.5000 
     36 O           0.0774  -19.0434  -46.2789 O.2       7 UNK        -0.5000 
     37 CA          1.1550  -17.4152  -44.9083 C.3       7 UNK         0.1400 
     38 CB          2.1435  -16.5523  -45.7013 C.3       7 UNK        -0.1800 
     39 N           0.7019  -16.6889  -43.7225 N.am      7 UNK        -0.5000 
     40 C          -0.0753  -17.2039  -42.7589 C.2       6 UNK         0.5000 
     41 O          -0.5701  -18.3300  -42.8070 O.2       6 UNK        -0.5000 
     42 CA         -0.3594  -16.3025  -41.5486 C.3       6 UNK         0.1400 
     43 CB          0.8595  -16.2415  -40.6146 C.3       6 UNK        -0.1800 
     44 N          -0.7103  -14.9533  -41.9824 N.am      6 UNK        -0.5000 
     45 C          -1.9564  -14.5561  -42.2722 C.2       5 UNK         0.5000 
     46 O          -2.9538  -15.2619  -42.1186 O.2       5 UNK        -0.5000 
     47 CA         -2.1190  -13.1345  -42.8466 C.3       5 UNK         0.1400 
     48 CB         -2.3621  -12.1219  -41.7173 C.3       5 UNK        -0.1800 
     49 N          -0.9769  -12.6914  -43.6496 N.am      5 UNK        -0.5000 
     50 C          -0.5856  -13.2648  -44.7953 C.2       4 UNK         0.5000 
     51 O          -1.1439  -14.2377  -45.3010 O.2       4 UNK        -0.5000 
     52 CA          0.6729  -12.6874  -45.4651 C.3       4 UNK         0.1400 
     53 CB          0.3114  -11.5234  -46.3978 C.3       4 UNK        -0.1800 
     54 N           1.7293  -12.2630  -44.5440 N.am      4 UNK        -0.5000 
     55 C           2.3048  -13.0164  -43.5967 C.2       3 UNK         0.5000 
     56 O           1.8895  -14.1273  -43.2603 O.2       3 UNK        -0.5000 
     57 CA          3.5901  -12.4403  -42.9656 C.3       3 UNK         0.1400 
     58 CB          4.0854  -13.2770  -41.7725 C.3       3 UNK        -0.1800 
     59 N           4.6547  -12.3701  -43.9687 N.am      3 UNK        -0.5000 
     60 C           4.7483  -11.4456  -44.9333 C.2       2 UNK         0.5000 
     61 O           4.0167  -10.4551  -44.9948 O.2       2 UNK        -0.5000 
     62 CA          5.7675  -11.6914  -46.0647 C.3       2 UNK         0.1400 
     63 CB          6.9047  -12.6716  -45.6963 C.3       2 UNK        -0.1800 
     64 N           5.0756  -12.1105  -47.2910 N.am      2 UNK        -0.5000 
     65 C           4.3162  -13.2064  -47.4472 C.2       1 UNK         0.5000 
     66 O           4.1875  -14.0834  -46.5880 O.2       1 UNK        -0.5000 
     67 C          -1.4358  -23.0900  -48.1590 C.2       11 UNK         0.5000 
     68 O          -1.3546  -24.0597  -48.9148 O.2       11 UNK        -0.5000 
     69 N          -2.5901  -22.6610  -47.6283 N.am      12 UNK        -0.5000 
     70 CA         -3.8690  -23.3466  -47.8061 C.3       12 UNK         0.1400 
     71 CB         -5.0207  -22.4255  -47.3845 C.3       12 UNK        -0.1800 
     72 C          -3.9150  -24.6817  -47.0425 C.2       12 UNK         0.5000 
     73 O          -4.3120  -25.6946  -47.6175 O.2       12 UNK        -0.5000 
     74 N          -3.4712  -24.6710  -45.7769 N.am      13 UNK        -0.5000 
     75 CA         -3.3856  -25.8463  -44.9054 C.3       13 UNK         0.1400 
     76 CB         -3.0263  -25.4004  -43.4800 C.3       13 UNK        -0.1800 
     77 C          -2.3885  -26.9049  -45.4134 C.2       13 UNK         0.5000 
     78 O          -2.6738  -28.1000  -45.3309 O.2       13 UNK        -0.5000 
     79 N          -1.2562  -26.4463  -45.9631 N.am      14 UNK        -0.5000 
     80 CA         -0.2382  -27.2742  -46.6137 C.3       14 UNK         0.1400 
     81 CB          1.0560  -26.4546  -46.7414 C.3       14 UNK        -0.1800 
     82 C          -0.6653  -27.8046  -47.9979 C.2       14 UNK         0.5000 
     83 O           0.0091  -28.6861  -48.5318 O.2       14 UNK        -0.5000 
     84 N          -1.7509  -27.2496  -48.5586 N.am      15 UNK        -0.5000 
     85 CA         -2.3006  -27.5084  -49.8923 C.3       15 UNK         0.1400 
     86 CB         -2.8228  -28.9556  -50.0074 C.3       15 UNK        -0.1800 
     87 C          -1.3296  -27.1166  -51.0262 C.2       15 UNK         0.5000 
     88 O          -1.3084  -27.7598  -52.0773 O.2       15 UNK        -0.5000 
     89 N          -0.5543  -26.0473  -50.7985 N.am      16 UNK        -0.5000 
     90 CA          0.3155  -25.4187  -51.7938 C.3       16 UNK         0.1400 
     91 CB          1.3738  -24.5710  -51.0700 C.3       16 UNK        -0.1800 
     92 C          -0.4885  -24.5573  -52.7869 C.2       16 UNK         0.5000 
     93 O          -0.0407  -24.3432  -53.9138 O.2       16 UNK        -0.5000 
     94 N          -1.6677  -24.1018  -52.3534 N.am      17 UNK        -0.5000 
     95 CA         -2.6657  -23.3809  -53.1278 C.3       17 UNK         0.1400 
     96 CB         -2.3288  -21.8800  -53.1274 C.3       17 UNK        -0.1800 
     97 C          -4.0373  -23.6339  -52.4861 C.2       17 UNK         0.5000 
     98 O          -4.1073  -24.1502  -51.3671 O.2       17 UNK        -0.5000 
     99 N          -5.1045  -23.2369  -53.1876 N.am      18 UNK        -0.5000 
    100 CA        -6.4427  -23.1027  -52.6121 C.3       18 UNK         0.1400 
    101 CB        -7.4727  -23.0216  -53.7491 C.3       18 UNK        -0.1800 
    102 C         -6.5082  -21.8360  -51.7408 C.2       18 UNK         0.5000 
    103 O         -5.8153  -20.8610  -52.0433 O.2       18 UNK        -0.5000 
    104 N         -7.3625  -21.8459  -50.7093 N.am      19 UNK        -0.5000 
    105 CA        -7.5193  -20.7469  -49.7486 C.3       19 UNK         0.1400 
    106 CB        -8.5408  -21.1462  -48.6730 C.3       19 UNK        -0.1800 
    107 C         -7.9056  -19.4038  -50.3945 C.2       19 UNK         0.5000 
    108 O         -7.3478  -18.3684  -50.0295 O.2       19 UNK        -0.5000 
    109 N         -8.8092  -19.4602  -51.3808 N.am      20 UNK        -0.5000 
    110 CA        -9.2524  -18.3073  -52.1652 C.3       20 UNK         0.1400 
    111 CB       -10.5532  -18.6785  -52.8944 C.3       20 UNK        -0.1800 
    112 C         -8.1978  -17.8040  -53.1719 C.2       20 UNK         0.5000 
    113 O         -8.2810  -16.6509  -53.5970 O.2       20 UNK        -0.5000 
    114 N         -7.2450  -18.6673  -53.5496 N.am      21 UNK        -0.5000 
    115 CA        -6.1812  -18.3557  -54.5003 C.3       21 UNK         0.1400 
    116 CB        -5.8137  -19.6187  -55.2974 C.3       21 UNK        -0.1800 
    117 C         -4.9463  -17.7777  -53.7932 C.2       21 UNK         0.5000 
    118 O         -4.4346  -16.7451  -54.2266 O.2       21 UNK        -0.5000 
    119 N         -4.4854  -18.4526  -52.7328 N.am      22 UNK        -0.5000 
    120 CA        -3.2397  -18.1333  -52.0224 C.3       22 UNK         0.1400 
    121 C         -3.2091  -18.7047  -50.5732 C.2       22 UNK         0.5000 
    122 N         -4.3286  -18.8013  -49.8686 N.am      22 UNK        -0.7600 
    123 O         -2.1541  -19.0557  -50.0579 O.2       22 UNK        -0.5000 
    124 C124       -1.9670  -18.4698  -52.8726 C.3       23 UNK        -0.0398 
    125 S125       -0.9638  -17.0054  -53.2998 S.3       23 UNK        -0.2404 
    126 C126       -0.2431  -16.5505  -51.6928 C.3       23 UNK        -0.0205 
    127 H127       -0.7339  -15.0658  -49.2357 H         1 UNK         0.0600 
    128 H128       -0.1013  -14.9399  -47.6022 H         1 UNK         0.0600 
    129 H129        0.5476  -16.1628  -48.6998 H         1 UNK         0.0600 
    130 H130        2.6268  -14.9484  -47.8527 H         1 UNK         0.3000 
    131 H131        3.1322  -12.3383  -48.9760 H         1 UNK         0.0600 
    132 H132        3.8167  -13.7174  -50.8841 H         1 UNK         0.0800 
    133 H133        5.2007  -12.9818  -50.1448 H         1 UNK         0.0800 
    134 H134        4.7009  -15.4447  -52.2056 H         1 UNK         0.0800 
    135 H135        5.6194  -16.8333  -51.7035 H         1 UNK         0.0800 
    136 H136        2.2223  -15.4125  -51.8963 H         1 UNK         0.1150 
    137 H137        0.3003  -19.1108  -50.8804 H         1 UNK         0.1150 
    138 H138        4.5583  -18.7662  -50.6143 H         1 UNK         0.1150 
    139 H139        1.9497  -21.1864  -50.9609 H         1 UNK         0.0800 
    140 H140        3.5599  -20.9058  -50.3688 H         1 UNK         0.0800 
    141 H141        0.0608  -21.5762  -49.7748 H         1 UNK         0.0800 
    142 H142       -0.3826  -20.3631  -48.6043 H         1 UNK         0.0800 
    143 H143        0.6444  -23.1155  -47.7695 H         1 UNK         0.0600 
    144 H144       -0.1876  -20.8402  -46.2632 H         1 UNK         0.3000 
    145 H145       -0.7059  -22.6524  -43.1826 H         1 UNK         0.0600 
    146 H146        0.8650  -20.8447  -42.4960 H         1 UNK         0.0600 
    147 H147        1.7038  -22.1017  -43.3941 H         1 UNK         0.0600 
    148 H148        1.3144  -20.5784  -44.1799 H         1 UNK         0.0600 
    149 H149       -1.1037  -19.9179  -43.7123 H         1 UNK         0.3000 
    150 H150       -4.5759  -20.1000  -44.6393 H         1 UNK         0.0600 
    151 H151       -4.4448  -20.1926  -42.1611 H         1 UNK         0.0600 
    152 H152       -4.6447  -18.5356  -42.7114 H         1 UNK         0.0600 
    153 H153       -3.0678  -19.0988  -42.1641 H         1 UNK         0.0600 
    154 H154       -2.4834  -18.0633  -44.3377 H         1 UNK         0.3000 
    155 H155       -1.8498  -17.7502  -47.7871 H         1 UNK         0.0600 
    156 H156       -3.4623  -15.8284  -46.0272 H         1 UNK         0.0600 
    157 H157       -2.5680  -15.3973  -47.4825 H         1 UNK         0.0600 
    158 H158       -3.9727  -16.4430  -47.5970 H         1 UNK         0.0600 
    159 H159       -1.0216  -16.1586  -45.5881 H         1 UNK         0.3000 
    160 H160        1.6969  -18.2947  -44.5575 H         1 UNK         0.0600 
    161 H161        3.0098  -16.2845  -45.0958 H         1 UNK         0.0600 
    162 H162        1.6786  -15.6303  -46.0403 H         1 UNK         0.0600 
    163 H163        2.5108  -17.0819  -46.5816 H         1 UNK         0.0600 
    164 H164        1.0818  -15.7543  -43.5921 H         1 UNK         0.3000 
    165 H165       -1.1887  -16.7398  -40.9882 H         1 UNK         0.0600 
    166 H166        0.6472  -15.6388  -39.7315 H         1 UNK         0.0600 
    167 H167        1.1350  -17.2388  -40.2693 H         1 UNK         0.0600 
    168 H168        1.7322  -15.8130  -41.1089 H         1 UNK         0.0600 
    169 H169        0.0621  -14.3366  -42.2032 H         1 UNK         0.3000 
    170 H170       -2.9982  -13.1423  -43.4944 H         1 UNK         0.0600 
    171 H171       -1.5024  -12.0495  -41.0500 H         1 UNK         0.0600 
    172 H172       -2.5643  -11.1274  -42.1154 H         1 UNK         0.0600 
    173 H173       -3.2235  -12.4100  -41.1132 H         1 UNK         0.0600 
    174 H174       -0.4463  -11.9076  -43.2987 H         1 UNK         0.3000 
    175 H175        1.1011  -13.4769  -46.0797 H         1 UNK         0.0600 
    176 H176        1.1791  -11.1937  -46.9699 H         1 UNK         0.0600 
    177 H177       -0.0718  -10.6666  -45.8424 H         1 UNK         0.0600 
    178 H178       -0.4539  -11.8211  -47.1162 H         1 UNK         0.0600 
    179 H179        2.1815  -11.3812  -44.7591 H         1 UNK         0.3000 
    180 H180        3.3648  -11.4353  -42.6030 H         1 UNK         0.0600 
    181 H181        4.3430  -14.2941  -42.0709 H         1 UNK         0.0600 
    182 H182        3.3193  -13.3458  -40.9990 H         1 UNK         0.0600 
    183 H183        4.9679  -12.8281  -41.3163 H         1 UNK         0.0600 
    184 H184        5.2445  -13.1863  -44.0450 H         1 UNK         0.3000 
    185 H185        6.2264  -10.7249  -46.2785 H         1 UNK         0.0600 
    186 H186        6.5467  -13.6832  -45.5050 H         1 UNK         0.0600 
    187 H187        7.6373  -12.7323  -46.5011 H         1 UNK         0.0600 
    188 H188        7.4353  -12.3352  -44.8046 H         1 UNK         0.0600 
    189 H189        5.1003  -11.4344  -48.0416 H         1 UNK         0.3000 
    190 H190       -2.5818  -21.8605  -47.0120 H         1 UNK         0.3000 
    191 H191       -3.9909  -23.5630  -48.8678 H         1 UNK         0.0600 
    192 H192       -4.9778  -21.4836  -47.9279 H         1 UNK         0.0600 
    193 H193       -5.9842  -22.8878  -47.5995 H         1 UNK         0.0600 
    194 H194       -4.9962  -22.1953  -46.3200 H         1 UNK         0.0600 
    195 H195       -3.2022  -23.7822  -45.3616 H         1 UNK         0.3000 
    196 H196       -4.3737  -26.3101  -44.8772 H         1 UNK         0.0600 
    197 H197       -2.9777  -26.2542  -42.8032 H         1 UNK         0.0600 
    198 H198       -3.7726  -24.7120  -43.0830 H         1 UNK         0.0600 
    199 H199       -2.0589  -24.8984  -43.4473 H         1 UNK         0.0600 
    200 H200       -1.0592  -25.4496  -45.9088 H         1 UNK         0.3000 
    201 H201       -0.0368  -28.1383  -45.9776 H         1 UNK         0.0600 
    202 H202        1.4057  -26.1140  -45.7667 H         1 UNK         0.0600 
    203 H203        0.9124  -25.5766  -47.3723 H         1 UNK         0.0600 
    204 H204        1.8566  -27.0490  -47.1834 H         1 UNK         0.0600 
    205 H205       -2.2366  -26.5359  -48.0305 H         1 UNK         0.3000 
    206 H206       -3.1591  -26.8427  -49.9945 H         1 UNK         0.0600 
    207 H207       -3.5071  -29.1924  -49.1926 H         1 UNK         0.0600 
    208 H208       -3.3686  -29.1002  -50.9404 H         1 UNK         0.0600 
    209 H209       -2.0119  -29.6840  -49.9881 H         1 UNK         0.0600 
    210 H210       -0.6927  -25.5304  -49.9339 H         1 UNK         0.3000 
    211 H211        0.8279  -26.1988  -52.3607 H         1 UNK         0.0600 
    212 H212        0.9201  -23.7652  -50.4935 H         1 UNK         0.0600 
    213 H213        2.0635  -24.1161  -51.7820 H         1 UNK         0.0600 
    214 H214        1.9658  -25.1791  -50.3857 H         1 UNK         0.0600 
    215 H215       -1.9782  -24.3504  -51.4208 H         1 UNK         0.3000 
    216 H216       -2.6840  -23.7624  -54.1507 H         1 UNK         0.0600 
    217 H217       -3.0597  -21.3115  -53.7033 H         1 UNK         0.0600 
    218 H218       -1.3500  -21.6915  -53.5687 H         1 UNK         0.0600 
    219 H219       -2.3238  -21.4764  -52.1138 H         1 UNK         0.0600 
    220 H220       -4.9623  -22.8027  -54.0872 H         1 UNK         0.3000 
    221 H221       -6.6624  -23.9767  -51.9950 H         1 UNK         0.0600 
    222 H222       -7.3066  -22.1528  -54.3868 H         1 UNK         0.0600 
    223 H223       -7.4341  -23.9108  -54.3787 H         1 UNK         0.0600 
    224 H224       -8.4868  -22.9487  -53.3542 H         1 UNK         0.0600 
    225 H225       -7.9129  -22.6747  -50.5366 H         1 UNK         0.3000 
    226 H226       -6.5548  -20.5979  -49.2636 H         1 UNK         0.0600 
    227 H227       -8.2299  -22.0474  -48.1451 H         1 UNK         0.0600 
    228 H228       -8.6506  -20.3572  -47.9277 H         1 UNK         0.0600 
    229 H229       -9.5261  -21.3325  -49.1019 H         1 UNK         0.0600 
    230 H230       -9.2056  -20.3565  -51.6227 H         1 UNK         0.3000 
    231 H231       -9.4686  -17.4858  -51.4787 H         1 UNK         0.0600 
    232 H232      -10.4028  -19.5053  -53.5899 H         1 UNK         0.0600 
    233 H233      -10.9353  -17.8328  -53.4678 H         1 UNK         0.0600 
    234 H234      -11.3322  -18.9689  -52.1892 H         1 UNK         0.0600 
    235 H235       -7.1935  -19.5681  -53.0938 H         1 UNK         0.3000 
    236 H236       -6.5384  -17.6111  -55.2152 H         1 UNK         0.0600 
    237 H237       -6.6781  -20.0105  -55.8336 H         1 UNK         0.0600 
    238 H238       -5.0442  -19.3989  -56.0384 H         1 UNK         0.0600 
    239 H239       -5.4297  -20.4111  -54.6555 H         1 UNK         0.0600 
    240 H240       -4.9625  -19.2998  -52.4270 H         1 UNK         0.3000 
    241 H241       -3.2610  -17.0554  -51.8535 H         1 UNK         0.0600 
    242 H242       -4.2493  -19.1458  -48.9193 H         1 UNK         0.3800 
    243 H243       -5.2257  -18.4980  -50.2235 H         1 UNK         0.3800 
    244 H244       -1.3231  -19.2109  -52.4024 H         1 UNK         0.0800 
    245 H245       -2.2518  -18.9311  -53.8187 H         1 UNK         0.0800 
    246 H246       -0.1452  -15.4642  -51.6686 H         1 UNK         0.0800 
    247 H247       -0.9276  -16.8044  -50.8846 H         1 UNK         0.0800 
@<TRIPOS>BOND
     1    1    2 1    
     2    1  127 1    
     3    1  128 1    
     4    1  129 1    
     5    2    3 2    
     6    2    4 am   BACKBONE|DICT|INTERRES
     7    4    5 1    
     8    4  130 1    
     9    5    6 1    
    10    5   65 1    
    11    5  131 1    
    12    6    7 1    
    13    6  132 1    
    14    6  133 1    
    15    7    8 1    
    16    8    9 1    
    17    8  134 1    
    18    8  135 1    
    19    9   10 ar   
    20    9   14 ar   
    21   10   11 ar   
    22   10  136 1    
    23   11   12 ar   
    24   11  126 1    
    25   12   13 ar   
    26   12  137 1    
    27   13   14 ar   
    28   13   15 1    
    29   14  138 1    
    30   15   16 1    
    31   15  139 1    
    32   15  140 1    
    33   16   17 1    
    34   17   18 1    
    35   17  141 1    
    36   17  142 1    
    37   18   19 1    
    38   18   67 1    
    39   18  143 1    
    40   19   20 am   BACKBONE|DICT|INTERRES
    41   19  144 1    
    42   20   21 2    
    43   20   22 1    
    44   22   23 1    
    45   22   24 1    
    46   22  145 1    
    47   23  146 1    
    48   23  147 1    
    49   23  148 1    
    50   24   25 am   BACKBONE|DICT|INTERRES
    51   24  149 1    
    52   25   26 2    
    53   25   27 1    
    54   27   28 1    
    55   27   29 1    
    56   27  150 1    
    57   28  151 1    
    58   28  152 1    
    59   28  153 1    
    60   29   30 am   BACKBONE|DICT|INTERRES
    61   29  154 1    
    62   30   31 2    
    63   30   32 1    
    64   32   33 1    
    65   32   34 1    
    66   32  155 1    
    67   33  156 1    
    68   33  157 1    
    69   33  158 1    
    70   34   35 am   BACKBONE|DICT|INTERRES
    71   34  159 1    
    72   35   36 2    
    73   35   37 1    
    74   37   38 1    
    75   37   39 1    
    76   37  160 1    
    77   38  161 1    
    78   38  162 1    
    79   38  163 1    
    80   39   40 am   BACKBONE|DICT|INTERRES
    81   39  164 1    
    82   40   41 2    
    83   40   42 1    
    84   42   43 1    
    85   42   44 1    
    86   42  165 1    
    87   43  166 1    
    88   43  167 1    
    89   43  168 1    
    90   44   45 am   BACKBONE|DICT|INTERRES
    91   44  169 1    
    92   45   46 2    
    93   45   47 1    
    94   47   48 1    
    95   47   49 1    
    96   47  170 1    
    97   48  171 1    
    98   48  172 1    
    99   48  173 1    
   100   49   50 am   BACKBONE|DICT|INTERRES
   101   49  174 1    
   102   50   51 2    
   103   50   52 1    
   104   52   53 1    
   105   52   54 1    
   106   52  175 1    
   107   53  176 1    
   108   53  177 1    
   109   53  178 1    
   110   54   55 am   BACKBONE|DICT|INTERRES
   111   54  179 1    
   112   55   56 2    
   113   55   57 1    
   114   57   58 1    
   115   57   59 1    
   116   57  180 1    
   117   58  181 1    
   118   58  182 1    
   119   58  183 1    
   120   59   60 am   BACKBONE|DICT|INTERRES
   121   59  184 1    
   122   60   61 2    
   123   60   62 1    
   124   62   63 1    
   125   62   64 1    
   126   62  185 1    
   127   63  186 1    
   128   63  187 1    
   129   63  188 1    
   130   64   65 am   BACKBONE|DICT|INTERRES
   131   64  189 1    
   132   65   66 2    
   133   67   68 2    
   134   67   69 am   BACKBONE|DICT|INTERRES
   135   69   70 1    
   136   69  190 1    
   137   70   71 1    
   138   70   72 1    
   139   70  191 1    
   140   71  192 1    
   141   71  193 1    
   142   71  194 1    
   143   72   73 2    
   144   72   74 am   BACKBONE|DICT|INTERRES
   145   74   75 1    
   146   74  195 1    
   147   75   76 1    
   148   75   77 1    
   149   75  196 1    
   150   76  197 1    
   151   76  198 1    
   152   76  199 1    
   153   77   78 2    
   154   77   79 am   BACKBONE|DICT|INTERRES
   155   79   80 1    
   156   79  200 1    
   157   80   81 1    
   158   80   82 1    
   159   80  201 1    
   160   81  202 1    
   161   81  203 1    
   162   81  204 1    
   163   82   83 2    
   164   82   84 am   BACKBONE|DICT|INTERRES
   165   84   85 1    
   166   84  205 1    
   167   85   86 1    
   168   85   87 1    
   169   85  206 1    
   170   86  207 1    
   171   86  208 1    
   172   86  209 1    
   173   87   88 2    
   174   87   89 am   BACKBONE|DICT|INTERRES
   175   89   90 1    
   176   89  210 1    
   177   90   91 1    
   178   90   92 1    
   179   90  211 1    
   180   91  212 1    
   181   91  213 1    
   182   91  214 1    
   183   92   93 2    
   184   92   94 am   BACKBONE|DICT|INTERRES
   185   94   95 1    
   186   94  215 1    
   187   95   96 1    
   188   95   97 1    
   189   95  216 1    
   190   96  217 1    
   191   96  218 1    
   192   96  219 1    
   193   97   98 2    
   194   97   99 am   BACKBONE|DICT|INTERRES
   195   99  100 1    
   196   99  220 1    
   197  100  101 1    
   198  100  102 1    
   199  100  221 1    
   200  101  222 1    
   201  101  223 1    
   202  101  224 1    
   203  102  103 2    
   204  102  104 am   BACKBONE|DICT|INTERRES
   205  104  105 1    
   206  104  225 1    
   207  105  106 1    
   208  105  107 1    
   209  105  226 1    
   210  106  227 1    
   211  106  228 1    
   212  106  229 1    
   213  107  108 2    
   214  107  109 am   BACKBONE|DICT|INTERRES
   215  109  110 1    
   216  109  230 1    
   217  110  111 1    
   218  110  112 1    
   219  110  231 1    
   220  111  232 1    
   221  111  233 1    
   222  111  234 1    
   223  112  113 2    
   224  112  114 am   BACKBONE|DICT|INTERRES
   225  114  115 1    
   226  114  235 1    
   227  115  116 1    
   228  115  117 1    
   229  115  236 1    
   230  116  237 1    
   231  116  238 1    
   232  116  239 1    
   233  117  118 2    
   234  117  119 am   BACKBONE|DICT|INTERRES
   235  119  120 1    
   236  119  240 1    
   237  120  121 1    
   238  120  124 1    
   239  120  241 1    
   240  121  122 am   BACKBONE|DICT|INTERRES
   241  121  123 2    
   242  122  242 1    
   243  122  243 1    
   244  124  125 1    
   245  124  244 1    
   246  124  245 1    
   247  125  126 1    
   248  126  246 1    
   249  126  247 1    
@<TRIPOS>SUBSTRUCTURE
     1 UNK         1 GROUP             0       ****    0 ROOT    
