@<TRIPOS>MOLECULE
3R540
247   249    1
SMALL
USER_CHARGES


@<TRIPOS>ATOM
      1 CA         -3.7221  -12.6243  -51.7539 C.3       0 UNK        -0.1800 
      2 C          -2.4200  -13.1589  -51.1745 C.2       0 UNK         0.5000 
      3 O          -1.3945  -13.1511  -51.8552 O.2       0 UNK        -0.5000 
      4 N          -2.4560  -13.6097  -49.9137 N.am      1 UNK        -0.5000 
      5 CA         -1.3055  -14.1658  -49.1860 C.3       1 UNK         0.1400 
      6 C6         -1.7383  -14.9845  -47.9450 C.3       23 UNK        -0.0398 
      7 S7         -2.8911  -16.3374  -48.3605 S.3       23 UNK        -0.2404 
      8 C8         -4.3567  -15.8608  -47.3898 C.3       23 UNK        -0.0205 
      9 C9         -5.5272  -16.8040  -47.6276 C.ar      23 UNK        -0.0193 
     10 C10        -6.0396  -16.9615  -48.9183 C.ar      23 UNK        -0.1150 
     11 C11        -7.1205  -17.8125  -49.1570 C.ar      23 UNK        -0.0193 
     12 C12        -7.7163  -18.4828  -48.0863 C.ar      23 UNK        -0.1150 
     13 C13        -7.2254  -18.3253  -46.7855 C.ar      23 UNK        -0.0193 
     14 C14        -6.1209  -17.4940  -46.5637 C.ar      23 UNK        -0.1150 
     15 C15        -7.9375  -19.0019  -45.6208 C.3       23 UNK        -0.0205 
     16 S16        -7.9572  -20.8205  -45.7627 S.3       23 UNK        -0.2404 
     17 C17        -6.6734  -21.3501  -44.5780 C.3       23 UNK        -0.0398 
     18 CA         -5.5164  -22.1108  -45.2668 C.3       11 UNK         0.1400 
     19 N          -4.7589  -21.2376  -46.1650 N.am      11 UNK        -0.5000 
     20 C          -3.9025  -21.6626  -47.1002 C.2       10 UNK         0.5000 
     21 O          -3.6336  -22.8454  -47.3081 O.2       10 UNK        -0.5000 
     22 CA         -3.1870  -20.5692  -47.9074 C.3       10 UNK         0.1400 
     23 CB         -4.0967  -20.0676  -49.0322 C.3       10 UNK        -0.1800 
     24 N          -2.7310  -19.4268  -47.1075 N.am      10 UNK        -0.5000 
     25 C          -1.9367  -19.5071  -46.0331 C.2       9 UNK         0.5000 
     26 O          -1.5749  -20.5694  -45.5270 O.2       9 UNK        -0.5000 
     27 CA         -1.4871  -18.1926  -45.3816 C.3       9 UNK         0.1400 
     28 CB         -2.2488  -17.9583  -44.0690 C.3       9 UNK        -0.1800 
     29 N          -0.0533  -18.2475  -45.1104 N.am      9 UNK        -0.5000 
     30 C           0.8907  -18.1142  -46.0527 C.2       8 UNK         0.5000 
     31 O           0.6403  -17.8078  -47.2177 O.2       8 UNK        -0.5000 
     32 CA          2.3538  -18.3611  -45.6505 C.3       8 UNK         0.1400 
     33 CB          3.0479  -17.0391  -45.2888 C.3       8 UNK        -0.1800 
     34 N           2.4949  -19.3081  -44.5381 N.am      8 UNK        -0.5000 
     35 C           3.3470  -20.3449  -44.5357 C.2       7 UNK         0.5000 
     36 O           4.0739  -20.6237  -45.4904 O.2       7 UNK        -0.5000 
     37 CA          3.4205  -21.2187  -43.2661 C.3       7 UNK         0.1400 
     38 CB          4.8723  -21.5793  -42.9025 C.3       7 UNK        -0.1800 
     39 N           2.7998  -20.5667  -42.1125 N.am      7 UNK        -0.5000 
     40 C           1.8154  -21.0861  -41.3691 C.2       6 UNK         0.5000 
     41 O           1.3505  -22.2119  -41.5449 O.2       6 UNK        -0.5000 
     42 CA          1.2406  -20.2051  -40.2361 C.3       6 UNK         0.1400 
     43 CB          1.7699  -20.6796  -38.8739 C.3       6 UNK        -0.1800 
     44 N           1.4849  -18.7611  -40.3591 N.am      6 UNK        -0.5000 
     45 C           1.1172  -17.9928  -41.3914 C.2       5 UNK         0.5000 
     46 O           0.6072  -18.4403  -42.4231 O.2       5 UNK        -0.5000 
     47 CA          1.4159  -16.4898  -41.2825 C.3       5 UNK         0.1400 
     48 CB          2.9371  -16.2354  -41.2444 C.3       5 UNK        -0.1800 
     49 N           0.8195  -15.8308  -42.4404 N.am      5 UNK        -0.5000 
     50 C           0.6625  -14.5186  -42.6263 C.2       4 UNK         0.5000 
     51 O           0.9450  -13.6619  -41.7849 O.2       4 UNK        -0.5000 
     52 CA          0.0687  -14.1004  -43.9861 C.3       4 UNK         0.1400 
     53 CB         -1.4461  -13.8687  -43.8720 C.3       4 UNK        -0.1800 
     54 N           0.6865  -12.8851  -44.5126 N.am      4 UNK        -0.5000 
     55 C           1.9774  -12.7337  -44.8334 C.2       3 UNK         0.5000 
     56 O           2.8085  -13.6415  -44.7757 O.2       3 UNK        -0.5000 
     57 CA          2.3853  -11.3332  -45.3387 C.3       3 UNK         0.1400 
     58 CB          3.9115  -11.1585  -45.4375 C.3       3 UNK        -0.1800 
     59 N           1.7970  -11.0560  -46.6484 N.am      3 UNK        -0.5000 
     60 C           0.5183  -10.7329  -46.8772 C.2       2 UNK         0.5000 
     61 O          -0.3087  -10.5514  -45.9812 O.2       2 UNK        -0.5000 
     62 CA          0.0662  -10.6280  -48.3466 C.3       2 UNK         0.1400 
     63 CB          1.2121  -10.3399  -49.3428 C.3       2 UNK        -0.1800 
     64 N          -0.6956  -11.8143  -48.7485 N.am      2 UNK        -0.5000 
     65 C          -0.2739  -13.0899  -48.7778 C.2       1 UNK         0.5000 
     66 O           0.8721  -13.4410  -48.4961 O.2       1 UNK        -0.5000 
     67 C          -4.6285  -22.8043  -44.2098 C.2       11 UNK         0.5000 
     68 O          -5.0032  -23.8738  -43.7274 O.2       11 UNK        -0.5000 
     69 N          -3.4899  -22.1923  -43.8555 N.am      12 UNK        -0.5000 
     70 CA         -2.5579  -22.7102  -42.8548 C.3       12 UNK         0.1400 
     71 CB         -1.9407  -21.5358  -42.0806 C.3       12 UNK        -0.1800 
     72 C          -1.4661  -23.5751  -43.5046 C.2       12 UNK         0.5000 
     73 O          -1.1732  -24.6621  -43.0054 O.2       12 UNK        -0.5000 
     74 N          -0.8965  -23.0819  -44.6124 N.am      13 UNK        -0.5000 
     75 CA          0.1648  -23.7345  -45.3745 C.3       13 UNK         0.1400 
     76 CB          0.7685  -22.7221  -46.3598 C.3       13 UNK        -0.1800 
     77 C          -0.3275  -24.9773  -46.1327 C.2       13 UNK         0.5000 
     78 O           0.4211  -25.9485  -46.2450 O.2       13 UNK        -0.5000 
     79 N          -1.5638  -24.9136  -46.6521 N.am      14 UNK        -0.5000 
     80 CA         -2.3051  -25.9232  -47.4195 C.3       14 UNK         0.1400 
     81 CB         -2.5234  -27.2049  -46.5944 C.3       14 UNK        -0.1800 
     82 C          -1.7183  -26.2484  -48.8081 C.2       14 UNK         0.5000 
     83 O          -2.4838  -26.3393  -49.7686 O.2       14 UNK        -0.5000 
     84 N          -0.3903  -26.4113  -48.8856 N.am      15 UNK        -0.5000 
     85 CA          0.4253  -26.7888  -50.0426 C.3       15 UNK         0.1400 
     86 CB          1.9074  -26.7015  -49.6422 C.3       15 UNK        -0.1800 
     87 C           0.1354  -25.9440  -51.2964 C.2       15 UNK         0.5000 
     88 O           0.6523  -24.8311  -51.4270 O.2       15 UNK        -0.5000 
     89 N          -0.7404  -26.4765  -52.1610 N.am      16 UNK        -0.5000 
     90 CA         -1.2709  -25.8604  -53.3810 C.3       16 UNK         0.1400 
     91 CB         -0.1800  -25.8219  -54.4715 C.3       16 UNK        -0.1800 
     92 C          -1.9217  -24.4813  -53.1346 C.2       16 UNK         0.5000 
     93 O          -1.8135  -23.6006  -53.9864 O.2       16 UNK        -0.5000 
     94 N          -2.5467  -24.3035  -51.9586 N.am      17 UNK        -0.5000 
     95 CA         -3.1049  -23.0450  -51.4476 C.3       17 UNK         0.1400 
     96 CB         -4.3334  -22.6148  -52.2782 C.3       17 UNK        -0.1800 
     97 C          -2.0309  -21.9396  -51.3397 C.2       17 UNK         0.5000 
     98 O          -2.2197  -20.8394  -51.8614 O.2       17 UNK        -0.5000 
     99 N          -0.9029  -22.2869  -50.6988 N.am      18 UNK        -0.5000 
    100 CA         0.3235  -21.4899  -50.5589 C.3       18 UNK         0.1400 
    101 CB         0.1122  -20.2860  -49.6156 C.3       18 UNK        -0.1800 
    102 C          0.9229  -21.0986  -51.9254 C.2       18 UNK         0.5000 
    103 O          1.2656  -19.9359  -52.1451 O.2       18 UNK        -0.5000 
    104 N          1.0139  -22.0933  -52.8218 N.am      19 UNK        -0.5000 
    105 CA         1.4423  -21.9797  -54.2207 C.3       19 UNK         0.1400 
    106 CB         2.9496  -21.6612  -54.3065 C.3       19 UNK        -0.1800 
    107 C          0.5615  -20.9995  -55.0268 C.2       19 UNK         0.5000 
    108 O          1.0746  -20.0840  -55.6733 O.2       19 UNK        -0.5000 
    109 N         -0.7571  -21.2286  -54.9592 N.am      20 UNK        -0.5000 
    110 CA        -1.8392  -20.4813  -55.6001 C.3       20 UNK         0.1400 
    111 CB        -1.7942  -20.6679  -57.1311 C.3       20 UNK        -0.1800 
    112 C         -1.8897  -19.0032  -55.1654 C.2       20 UNK         0.5000 
    113 O         -1.9198  -18.1080  -56.0128 O.2       20 UNK        -0.5000 
    114 N         -1.9025  -18.7708  -53.8453 N.am      21 UNK        -0.5000 
    115 CA        -2.0598  -17.4392  -53.2560 C.3       21 UNK         0.1400 
    116 CB        -1.6416  -17.4754  -51.7799 C.3       21 UNK        -0.1800 
    117 C         -3.4965  -16.9011  -53.3977 C.2       21 UNK         0.5000 
    118 O         -3.6803  -15.6899  -53.5178 O.2       21 UNK        -0.5000 
    119 N         -4.4839  -17.8057  -53.3897 N.am      22 UNK        -0.5000 
    120 CA        -5.9049  -17.4973  -53.6022 C.3       22 UNK         0.1400 
    121 C         -6.1990  -17.0737  -55.0673 C.2       22 UNK         0.5000 
    122 N         -6.9961  -16.0342  -55.2747 N.am      22 UNK        -0.7600 
    123 O         -5.7492  -17.7100  -56.0176 O.2       22 UNK        -0.5000 
    124 C124       -6.8249  -18.6758  -53.1906 C.3       23 UNK        -0.0398 
    125 S125       -6.5725  -19.1984  -51.4631 S.3       23 UNK        -0.2404 
    126 C126       -7.6250  -18.0093  -50.5758 C.3       23 UNK        -0.0205 
    127 H127       -4.5702  -12.8271  -51.0994 H         1 UNK         0.0600 
    128 H128       -3.9232  -13.0875  -52.7197 H         1 UNK         0.0600 
    129 H129       -3.6525  -11.5466  -51.9010 H         1 UNK         0.0600 
    130 H130       -3.3326  -13.6096  -49.4134 H         1 UNK         0.3000 
    131 H131       -0.7850  -14.8471  -49.8621 H         1 UNK         0.0600 
    132 H132       -0.8654  -15.4341  -47.4678 H         1 UNK         0.0800 
    133 H133       -2.1905  -14.3327  -47.1960 H         1 UNK         0.0800 
    134 H134       -4.6612  -14.8495  -47.6623 H         1 UNK         0.0800 
    135 H135       -4.0907  -15.8339  -46.3318 H         1 UNK         0.0800 
    136 H136       -5.5799  -16.4374  -49.7449 H         1 UNK         0.1150 
    137 H137       -8.5645  -19.1292  -48.2633 H         1 UNK         0.1150 
    138 H138       -5.7436  -17.3595  -45.5597 H         1 UNK         0.1150 
    139 H139       -7.5125  -18.6935  -44.6650 H         1 UNK         0.0800 
    140 H140       -8.9709  -18.6528  -45.6088 H         1 UNK         0.0800 
    141 H141       -7.1700  -21.9906  -43.8465 H         1 UNK         0.0800 
    142 H142       -6.2904  -20.4964  -44.0171 H         1 UNK         0.0800 
    143 H143       -5.9521  -22.9081  -45.8734 H         1 UNK         0.0600 
    144 H144       -4.9285  -20.2463  -46.0825 H         1 UNK         0.3000 
    145 H145       -2.3106  -21.0316  -48.3584 H         1 UNK         0.0600 
    146 H146       -3.5842  -19.3540  -49.6759 H         1 UNK         0.0600 
    147 H147       -4.4354  -20.8903  -49.6604 H         1 UNK         0.0600 
    148 H148       -4.9861  -19.5834  -48.6337 H         1 UNK         0.0600 
    149 H149       -2.9716  -18.5120  -47.4674 H         1 UNK         0.3000 
    150 H150       -1.6867  -17.3555  -46.0475 H         1 UNK         0.0600 
    151 H151       -3.3180  -17.8462  -44.2526 H         1 UNK         0.0600 
    152 H152       -1.9062  -17.0547  -43.5683 H         1 UNK         0.0600 
    153 H153       -2.1196  -18.7862  -43.3718 H         1 UNK         0.0600 
    154 H154        0.2033  -18.5257  -44.1678 H         1 UNK         0.3000 
    155 H155        2.8410  -18.7573  -46.5439 H         1 UNK         0.0600 
    156 H156        2.6064  -16.5786  -44.4068 H         1 UNK         0.0600 
    157 H157        2.9703  -16.3188  -46.1046 H         1 UNK         0.0600 
    158 H158        4.1088  -17.1917  -45.0907 H         1 UNK         0.0600 
    159 H159        1.8917  -19.1690  -43.7357 H         1 UNK         0.3000 
    160 H160        2.8937  -22.1431  -43.5111 H         1 UNK         0.0600 
    161 H161        4.9089  -22.2148  -42.0175 H         1 UNK         0.0600 
    162 H162        5.4681  -20.6884  -42.7003 H         1 UNK         0.0600 
    163 H163        5.3595  -22.1264  -43.7106 H         1 UNK         0.0600 
    164 H164        3.1333  -19.6411  -41.8859 H         1 UNK         0.3000 
    165 H165        0.1586  -20.3448  -40.2442 H         1 UNK         0.0600 
    166 H166        1.2879  -20.1463  -38.0543 H         1 UNK         0.0600 
    167 H167        1.5746  -21.7425  -38.7252 H         1 UNK         0.0600 
    168 H168        2.8467  -20.5286  -38.7877 H         1 UNK         0.0600 
    169 H169        1.9216  -18.3209  -39.5619 H         1 UNK         0.3000 
    170 H170        0.9481  -16.1076  -40.3733 H         1 UNK         0.0600 
    171 H171        3.3957  -16.6996  -40.3709 H         1 UNK         0.0600 
    172 H172        3.4354  -16.6358  -42.1278 H         1 UNK         0.0600 
    173 H173        3.1646  -15.1708  -41.1907 H         1 UNK         0.0600 
    174 H174        0.4940  -16.4830  -43.1415 H         1 UNK         0.3000 
    175 H175        0.2455  -14.9002  -44.7088 H         1 UNK         0.0600 
    176 H176       -1.6734  -13.0394  -43.2009 H         1 UNK         0.0600 
    177 H177       -1.8861  -13.6419  -44.8429 H         1 UNK         0.0600 
    178 H178       -1.9550  -14.7495  -43.4819 H         1 UNK         0.0600 
    179 H179        0.0788  -12.0840  -44.6397 H         1 UNK         0.3000 
    180 H180        2.0133  -10.6008  -44.6190 H         1 UNK         0.0600 
    181 H181        4.3509  -11.8441  -46.1633 H         1 UNK         0.0600 
    182 H182        4.3888  -11.3474  -44.4751 H         1 UNK         0.0600 
    183 H183        4.1731  -10.1429  -45.7351 H         1 UNK         0.0600 
    184 H184        2.3806  -11.2561  -47.4477 H         1 UNK         0.3000 
    185 H185       -0.6245   -9.7846  -48.3937 H         1 UNK         0.0600 
    186 H186        1.7621   -9.4425  -49.0567 H         1 UNK         0.0600 
    187 H187        0.8180  -10.1685  -50.3447 H         1 UNK         0.0600 
    188 H188        1.9280  -11.1592  -49.4104 H         1 UNK         0.0600 
    189 H189       -1.6632  -11.6459  -48.9842 H         1 UNK         0.3000 
    190 H190       -3.2015  -21.3612  -44.3547 H         1 UNK         0.3000 
    191 H191       -3.0977  -23.3294  -42.1350 H         1 UNK         0.0600 
    192 H192       -1.3553  -21.9063  -41.2396 H         1 UNK         0.0600 
    193 H193       -2.7091  -20.8777  -41.6748 H         1 UNK         0.0600 
    194 H194       -1.2772  -20.9360  -42.7051 H         1 UNK         0.0600 
    195 H195       -1.1864  -22.1627  -44.9450 H         1 UNK         0.3000 
    196 H196        0.9444  -24.0457  -44.6759 H         1 UNK         0.0600 
    197 H197        1.6223  -23.1483  -46.8880 H         1 UNK         0.0600 
    198 H198        1.1141  -21.8258  -45.8458 H         1 UNK         0.0600 
    199 H199        0.0382  -22.4131  -47.1080 H         1 UNK         0.0600 
    200 H200       -2.0725  -24.0443  -46.5343 H         1 UNK         0.3000 
    201 H201       -3.2892  -25.4876  -47.5978 H         1 UNK         0.0600 
    202 H202       -3.0047  -26.9814  -45.6422 H         1 UNK         0.0600 
    203 H203       -1.5868  -27.7216  -46.3836 H         1 UNK         0.0600 
    204 H204       -3.1673  -27.9050  -47.1281 H         1 UNK         0.0600 
    205 H205        0.1149  -26.3076  -48.0088 H         1 UNK         0.3000 
    206 H206        0.2037  -27.8325  -50.2728 H         1 UNK         0.0600 
    207 H207        2.1352  -27.3832  -48.8225 H         1 UNK         0.0600 
    208 H208        2.5557  -26.9692  -50.4776 H         1 UNK         0.0600 
    209 H209        2.1797  -25.6944  -49.3234 H         1 UNK         0.0600 
    210 H210       -1.1533  -27.3667  -51.9183 H         1 UNK         0.3000 
    211 H211       -2.0720  -26.5101  -53.7357 H         1 UNK         0.0600 
    212 H212        0.6601  -25.1923  -54.1799 H         1 UNK         0.0600 
    213 H213       -0.5723  -25.4352  -55.4128 H         1 UNK         0.0600 
    214 H214        0.2082  -26.8205  -54.6716 H         1 UNK         0.0600 
    215 H215       -2.5682  -25.0880  -51.3124 H         1 UNK         0.3000 
    216 H216       -3.4459  -23.2451  -50.4305 H         1 UNK         0.0600 
    217 H217       -4.8099  -21.7343  -51.8477 H         1 UNK         0.0600 
    218 H218       -5.0832  -23.4051  -52.3097 H         1 UNK         0.0600 
    219 H219       -4.0666  -22.3653  -53.3054 H         1 UNK         0.0600 
    220 H220       -0.8182  -23.2467  -50.3939 H         1 UNK         0.3000 
    221 H221        1.0619  -22.1415  -50.0893 H         1 UNK         0.0600 
    222 H222       -0.7016  -19.6417  -49.9463 H         1 UNK         0.0600 
    223 H223       -0.1072  -20.6111  -48.6007 H         1 UNK         0.0600 
    224 H224        1.0094  -19.6693  -49.5518 H         1 UNK         0.0600 
    225 H225        0.7237  -23.0180  -52.5212 H         1 UNK         0.3000 
    226 H226        1.2919  -22.9612  -54.6708 H         1 UNK         0.0600 
    227 H227        3.2932  -21.6816  -55.3413 H         1 UNK         0.0600 
    228 H228        3.1813  -20.6741  -53.9053 H         1 UNK         0.0600 
    229 H229        3.5384  -22.3940  -53.7549 H         1 UNK         0.0600 
    230 H230       -1.0708  -22.0363  -54.4223 H         1 UNK         0.3000 
    231 H231       -2.7667  -20.9328  -55.2447 H         1 UNK         0.0600 
    232 H232       -1.8052  -21.7245  -57.3987 H         1 UNK         0.0600 
    233 H233       -0.9021  -20.2198  -57.5696 H         1 UNK         0.0600 
    234 H234       -2.6601  -20.2046  -57.6055 H         1 UNK         0.0600 
    235 H235       -1.8784  -19.5551  -53.1962 H         1 UNK         0.3000 
    236 H236       -1.3925  -16.7493  -53.7769 H         1 UNK         0.0600 
    237 H237       -0.6065  -17.7984  -51.6692 H         1 UNK         0.0600 
    238 H238       -1.7264  -16.4863  -51.3299 H         1 UNK         0.0600 
    239 H239       -2.2700  -18.1515  -51.2011 H         1 UNK         0.0600 
    240 H240       -4.2459  -18.7800  -53.2816 H         1 UNK         0.3000 
    241 H241       -6.1437  -16.6499  -52.9567 H         1 UNK         0.0600 
    242 H242       -7.3813  -15.4994  -54.5116 H         1 UNK         0.3800 
    243 H243       -7.2067  -15.7616  -56.2225 H         1 UNK         0.3800 
    244 H244       -7.8756  -18.4128  -53.3264 H         1 UNK         0.0800 
    245 H245       -6.6434  -19.5406  -53.8312 H         1 UNK         0.0800 
    246 H246       -7.6284  -17.0478  -51.0905 H         1 UNK         0.0800 
    247 H247       -8.6562  -18.3656  -50.5771 H         1 UNK         0.0800 
@<TRIPOS>BOND
     1    1    2 1    
     2    1  127 1    
     3    1  128 1    
     4    1  129 1    
     5    2    3 2    
     6    2    4 am   BACKBONE|DICT|INTERRES
     7    4    5 1    
     8    4  130 1    
     9    5    6 1    
    10    5   65 1    
    11    5  131 1    
    12    6    7 1    
    13    6  132 1    
    14    6  133 1    
    15    7    8 1    
    16    8    9 1    
    17    8  134 1    
    18    8  135 1    
    19    9   10 ar   
    20    9   14 ar   
    21   10   11 ar   
    22   10  136 1    
    23   11   12 ar   
    24   11  126 1    
    25   12   13 ar   
    26   12  137 1    
    27   13   14 ar   
    28   13   15 1    
    29   14  138 1    
    30   15   16 1    
    31   15  139 1    
    32   15  140 1    
    33   16   17 1    
    34   17   18 1    
    35   17  141 1    
    36   17  142 1    
    37   18   19 1    
    38   18   67 1    
    39   18  143 1    
    40   19   20 am   BACKBONE|DICT|INTERRES
    41   19  144 1    
    42   20   21 2    
    43   20   22 1    
    44   22   23 1    
    45   22   24 1    
    46   22  145 1    
    47   23  146 1    
    48   23  147 1    
    49   23  148 1    
    50   24   25 am   BACKBONE|DICT|INTERRES
    51   24  149 1    
    52   25   26 2    
    53   25   27 1    
    54   27   28 1    
    55   27   29 1    
    56   27  150 1    
    57   28  151 1    
    58   28  152 1    
    59   28  153 1    
    60   29   30 am   BACKBONE|DICT|INTERRES
    61   29  154 1    
    62   30   31 2    
    63   30   32 1    
    64   32   33 1    
    65   32   34 1    
    66   32  155 1    
    67   33  156 1    
    68   33  157 1    
    69   33  158 1    
    70   34   35 am   BACKBONE|DICT|INTERRES
    71   34  159 1    
    72   35   36 2    
    73   35   37 1    
    74   37   38 1    
    75   37   39 1    
    76   37  160 1    
    77   38  161 1    
    78   38  162 1    
    79   38  163 1    
    80   39   40 am   BACKBONE|DICT|INTERRES
    81   39  164 1    
    82   40   41 2    
    83   40   42 1    
    84   42   43 1    
    85   42   44 1    
    86   42  165 1    
    87   43  166 1    
    88   43  167 1    
    89   43  168 1    
    90   44   45 am   BACKBONE|DICT|INTERRES
    91   44  169 1    
    92   45   46 2    
    93   45   47 1    
    94   47   48 1    
    95   47   49 1    
    96   47  170 1    
    97   48  171 1    
    98   48  172 1    
    99   48  173 1    
   100   49   50 am   BACKBONE|DICT|INTERRES
   101   49  174 1    
   102   50   51 2    
   103   50   52 1    
   104   52   53 1    
   105   52   54 1    
   106   52  175 1    
   107   53  176 1    
   108   53  177 1    
   109   53  178 1    
   110   54   55 am   BACKBONE|DICT|INTERRES
   111   54  179 1    
   112   55   56 2    
   113   55   57 1    
   114   57   58 1    
   115   57   59 1    
   116   57  180 1    
   117   58  181 1    
   118   58  182 1    
   119   58  183 1    
   120   59   60 am   BACKBONE|DICT|INTERRES
   121   59  184 1    
   122   60   61 2    
   123   60   62 1    
   124   62   63 1    
   125   62   64 1    
   126   62  185 1    
   127   63  186 1    
   128   63  187 1    
   129   63  188 1    
   130   64   65 am   BACKBONE|DICT|INTERRES
   131   64  189 1    
   132   65   66 2    
   133   67   68 2    
   134   67   69 am   BACKBONE|DICT|INTERRES
   135   69   70 1    
   136   69  190 1    
   137   70   71 1    
   138   70   72 1    
   139   70  191 1    
   140   71  192 1    
   141   71  193 1    
   142   71  194 1    
   143   72   73 2    
   144   72   74 am   BACKBONE|DICT|INTERRES
   145   74   75 1    
   146   74  195 1    
   147   75   76 1    
   148   75   77 1    
   149   75  196 1    
   150   76  197 1    
   151   76  198 1    
   152   76  199 1    
   153   77   78 2    
   154   77   79 am   BACKBONE|DICT|INTERRES
   155   79   80 1    
   156   79  200 1    
   157   80   81 1    
   158   80   82 1    
   159   80  201 1    
   160   81  202 1    
   161   81  203 1    
   162   81  204 1    
   163   82   83 2    
   164   82   84 am   BACKBONE|DICT|INTERRES
   165   84   85 1    
   166   84  205 1    
   167   85   86 1    
   168   85   87 1    
   169   85  206 1    
   170   86  207 1    
   171   86  208 1    
   172   86  209 1    
   173   87   88 2    
   174   87   89 am   BACKBONE|DICT|INTERRES
   175   89   90 1    
   176   89  210 1    
   177   90   91 1    
   178   90   92 1    
   179   90  211 1    
   180   91  212 1    
   181   91  213 1    
   182   91  214 1    
   183   92   93 2    
   184   92   94 am   BACKBONE|DICT|INTERRES
   185   94   95 1    
   186   94  215 1    
   187   95   96 1    
   188   95   97 1    
   189   95  216 1    
   190   96  217 1    
   191   96  218 1    
   192   96  219 1    
   193   97   98 2    
   194   97   99 am   BACKBONE|DICT|INTERRES
   195   99  100 1    
   196   99  220 1    
   197  100  101 1    
   198  100  102 1    
   199  100  221 1    
   200  101  222 1    
   201  101  223 1    
   202  101  224 1    
   203  102  103 2    
   204  102  104 am   BACKBONE|DICT|INTERRES
   205  104  105 1    
   206  104  225 1    
   207  105  106 1    
   208  105  107 1    
   209  105  226 1    
   210  106  227 1    
   211  106  228 1    
   212  106  229 1    
   213  107  108 2    
   214  107  109 am   BACKBONE|DICT|INTERRES
   215  109  110 1    
   216  109  230 1    
   217  110  111 1    
   218  110  112 1    
   219  110  231 1    
   220  111  232 1    
   221  111  233 1    
   222  111  234 1    
   223  112  113 2    
   224  112  114 am   BACKBONE|DICT|INTERRES
   225  114  115 1    
   226  114  235 1    
   227  115  116 1    
   228  115  117 1    
   229  115  236 1    
   230  116  237 1    
   231  116  238 1    
   232  116  239 1    
   233  117  118 2    
   234  117  119 am   BACKBONE|DICT|INTERRES
   235  119  120 1    
   236  119  240 1    
   237  120  121 1    
   238  120  124 1    
   239  120  241 1    
   240  121  122 am   BACKBONE|DICT|INTERRES
   241  121  123 2    
   242  122  242 1    
   243  122  243 1    
   244  124  125 1    
   245  124  244 1    
   246  124  245 1    
   247  125  126 1    
   248  126  246 1    
   249  126  247 1    
@<TRIPOS>SUBSTRUCTURE
     1 UNK         1 GROUP             0       ****    0 ROOT    
