@<TRIPOS>MOLECULE
3R540
247   249    1
SMALL
USER_CHARGES


@<TRIPOS>ATOM
      1 CA          2.5005  -10.4332  -48.8122 C.3       0 UNK        -0.1800 
      2 C           1.8830  -11.8022  -48.5654 C.2       0 UNK         0.5000 
      3 O           2.0726  -12.3747  -47.4907 O.2       0 UNK        -0.5000 
      4 N           1.1489  -12.3268  -49.5559 N.am      1 UNK        -0.5000 
      5 CA          0.4731  -13.6279  -49.5325 C.3       1 UNK         0.1400 
      6 C6         -0.2003  -13.9601  -50.8889 C.3       23 UNK        -0.0398 
      7 S7          0.9690  -14.1041  -52.2883 S.3       23 UNK        -0.2404 
      8 C8          2.0576  -15.4969  -51.8259 C.3       23 UNK        -0.0205 
      9 C9          1.3730  -16.8571  -51.8882 C.ar      23 UNK        -0.0193 
     10 C10         1.6467  -17.7343  -52.9417 C.ar      23 UNK        -0.1150 
     11 C11         1.0859  -19.0151  -52.9689 C.ar      23 UNK        -0.0193 
     12 C12         0.2145  -19.4061  -51.9472 C.ar      23 UNK        -0.1150 
     13 C13        -0.0753  -18.5353  -50.8916 C.ar      23 UNK        -0.0193 
     14 C14         0.5190  -17.2713  -50.8627 C.ar      23 UNK        -0.1150 
     15 C15        -1.0288  -18.9553  -49.7825 C.3       23 UNK        -0.0205 
     16 S16        -0.2345  -18.9207  -48.1449 S.3       23 UNK        -0.2404 
     17 C17        -1.4871  -19.7779  -47.1348 C.3       23 UNK        -0.0398 
     18 CA         -1.0383  -21.2156  -46.7830 C.3       11 UNK         0.1400 
     19 N           0.0609  -21.2509  -45.8165 N.am      11 UNK        -0.5000 
     20 C           0.7371  -22.3545  -45.4688 C.2       10 UNK         0.5000 
     21 O           0.5347  -23.4646  -45.9616 O.2       10 UNK        -0.5000 
     22 CA          1.7745  -22.2044  -44.3417 C.3       10 UNK         0.1400 
     23 CB          3.0713  -21.5690  -44.8646 C.3       10 UNK        -0.1800 
     24 N           1.2614  -21.4303  -43.2099 N.am      10 UNK        -0.5000 
     25 C           0.2323  -21.8123  -42.4392 C.2       9 UNK         0.5000 
     26 O          -0.3658  -22.8802  -42.5771 O.2       9 UNK        -0.5000 
     27 CA         -0.2365  -20.8188  -41.3602 C.3       9 UNK         0.1400 
     28 CB          0.6830  -20.8721  -40.1312 C.3       9 UNK        -0.1800 
     29 N          -0.3217  -19.4436  -41.8535 N.am      9 UNK        -0.5000 
     30 C          -1.1464  -19.0365  -42.8292 C.2       8 UNK         0.5000 
     31 O          -1.9575  -19.7703  -43.3912 O.2       8 UNK        -0.5000 
     32 CA         -1.0038  -17.5807  -43.3036 C.3       8 UNK         0.1400 
     33 CB         -1.7241  -16.6152  -42.3521 C.3       8 UNK        -0.1800 
     34 N           0.3909  -17.1725  -43.4623 N.am      8 UNK        -0.5000 
     35 C           1.2620  -17.7509  -44.3009 C.2       7 UNK         0.5000 
     36 O           0.9740  -18.6785  -45.0524 O.2       7 UNK        -0.5000 
     37 CA          2.7108  -17.2447  -44.2513 C.3       7 UNK         0.1400 
     38 CB          2.8611  -15.9222  -45.0205 C.3       7 UNK        -0.1800 
     39 N           3.1734  -17.0851  -42.8733 N.am      7 UNK        -0.5000 
     40 C           3.3721  -18.1040  -42.0236 C.2       6 UNK         0.5000 
     41 O           3.2359  -19.2891  -42.3292 O.2       6 UNK        -0.5000 
     42 CA          3.7426  -17.7295  -40.5773 C.3       6 UNK         0.1400 
     43 CB          5.2489  -17.4549  -40.4561 C.3       6 UNK        -0.1800 
     44 N           2.9955  -16.5672  -40.0933 N.am      6 UNK        -0.5000 
     45 C           1.6728  -16.5568  -39.8747 C.2       5 UNK         0.5000 
     46 O           0.9469  -17.5389  -40.0255 O.2       5 UNK        -0.5000 
     47 CA          1.0519  -15.2073  -39.4674 C.3       5 UNK         0.1400 
     48 CB          1.1659  -14.9949  -37.9506 C.3       5 UNK        -0.1800 
     49 N           1.6440  -14.0625  -40.1675 N.am      5 UNK        -0.5000 
     50 C           1.5939  -13.8811  -41.4931 C.2       4 UNK         0.5000 
     51 O           1.0741  -14.6828  -42.2726 O.2       4 UNK        -0.5000 
     52 CA          2.2911  -12.6299  -42.0481 C.3       4 UNK         0.1400 
     53 CB          3.7593  -12.9419  -42.3772 C.3       4 UNK        -0.1800 
     54 N           1.6177  -12.1863  -43.2657 N.am      4 UNK        -0.5000 
     55 C           0.5500  -11.3789  -43.2933 C.2       3 UNK         0.5000 
     56 O           0.0881  -10.8151  -42.3003 O.2       3 UNK        -0.5000 
     57 CA         -0.1229  -11.1847  -44.6632 C.3       3 UNK         0.1400 
     58 CB          0.5906  -10.0886  -45.4683 C.3       3 UNK        -0.1800 
     59 N          -0.1496  -12.4282  -45.4373 N.am      3 UNK        -0.5000 
     60 C          -1.0223  -13.4247  -45.2183 C.2       2 UNK         0.5000 
     61 O          -1.9113  -13.3639  -44.3678 O.2       2 UNK        -0.5000 
     62 CA         -0.8778  -14.7025  -46.0770 C.3       2 UNK         0.1400 
     63 CB         -2.2182  -15.4306  -46.3110 C.3       2 UNK        -0.1800 
     64 N          -0.1672  -14.4975  -47.3433 N.am      2 UNK        -0.5000 
     65 C          -0.5370  -13.7189  -48.3713 C.2       1 UNK         0.5000 
     66 O          -1.5829  -13.0693  -48.4186 O.2       1 UNK        -0.5000 
     67 C          -2.2308  -22.0727  -46.3230 C.2       11 UNK         0.5000 
     68 O          -2.7552  -22.8308  -47.1350 O.2       11 UNK        -0.5000 
     69 N          -2.6131  -21.9861  -45.0411 N.am      12 UNK        -0.5000 
     70 CA         -3.6777  -22.7949  -44.4429 C.3       12 UNK         0.1400 
     71 CB         -3.9497  -22.3264  -43.0057 C.3       12 UNK        -0.1800 
     72 C          -3.3760  -24.3040  -44.4806 C.2       12 UNK         0.5000 
     73 O          -4.2556  -25.0852  -44.8440 O.2       12 UNK        -0.5000 
     74 N          -2.1305  -24.6817  -44.1579 N.am      13 UNK        -0.5000 
     75 CA         -1.6375  -26.0600  -44.2223 C.3       13 UNK         0.1400 
     76 CB         -0.2428  -26.1330  -43.5826 C.3       13 UNK        -0.1800 
     77 C          -1.6119  -26.6279  -45.6555 C.2       13 UNK         0.5000 
     78 O          -1.9279  -27.8019  -45.8511 O.2       13 UNK        -0.5000 
     79 N          -1.2644  -25.7793  -46.6313 N.am      14 UNK        -0.5000 
     80 CA         -1.2393  -26.1029  -48.0594 C.3       14 UNK         0.1400 
     81 CB         -0.2564  -25.1445  -48.7529 C.3       14 UNK        -0.1800 
     82 C          -2.6216  -26.0226  -48.7409 C.2       14 UNK         0.5000 
     83 O          -2.7162  -26.3288  -49.9311 O.2       14 UNK        -0.5000 
     84 N          -3.6481  -25.5448  -48.0176 N.am      15 UNK        -0.5000 
     85 CA         -4.9900  -25.1856  -48.5029 C.3       15 UNK         0.1400 
     86 CB         -5.7848  -26.4507  -48.8850 C.3       15 UNK        -0.1800 
     87 C          -4.9484  -24.1401  -49.6425 C.2       15 UNK         0.5000 
     88 O          -5.7674  -24.1822  -50.5620 O.2       15 UNK        -0.5000 
     89 N          -3.9329  -23.2660  -49.5875 N.am      16 UNK        -0.5000 
     90 CA         -3.5078  -22.2719  -50.5757 C.3       16 UNK         0.1400 
     91 CB         -4.4728  -21.0720  -50.5673 C.3       16 UNK        -0.1800 
     92 C          -3.2623  -22.8376  -51.9928 C.2       16 UNK         0.5000 
     93 O          -3.3262  -22.0871  -52.9637 O.2       16 UNK        -0.5000 
     94 N          -3.0034  -24.1512  -52.0944 N.am      17 UNK        -0.5000 
     95 CA         -2.9371  -24.9384  -53.3309 C.3       17 UNK         0.1400 
     96 CB         -1.7452  -24.5020  -54.2079 C.3       17 UNK        -0.1800 
     97 C          -4.2778  -24.9676  -54.1039 C.2       17 UNK         0.5000 
     98 O          -4.2767  -25.1177  -55.3267 O.2       17 UNK        -0.5000 
     99 N          -5.3949  -24.8427  -53.3690 N.am      18 UNK        -0.5000 
    100 CA        -6.7856  -24.8821  -53.8311 C.3       18 UNK         0.1400 
    101 CB        -7.1346  -26.2710  -54.4070 C.3       18 UNK        -0.1800 
    102 C         -7.1749  -23.7201  -54.7713 C.2       18 UNK         0.5000 
    103 O         -8.0465  -23.8908  -55.6264 O.2       18 UNK        -0.5000 
    104 N         -6.5547  -22.5495  -54.5844 N.am      19 UNK        -0.5000 
    105 CA        -6.8603  -21.3125  -55.2974 C.3       19 UNK         0.1400 
    106 CB        -6.1112  -21.2841  -56.6408 C.3       19 UNK        -0.1800 
    107 C         -6.4808  -20.1174  -54.4131 C.2       19 UNK         0.5000 
    108 O         -5.6447  -20.2612  -53.5202 O.2       19 UNK        -0.5000 
    109 N         -7.0932  -18.9548  -54.6713 N.am      20 UNK        -0.5000 
    110 CA        -6.8376  -17.7016  -53.9571 C.3       20 UNK         0.1400 
    111 CB        -7.8451  -16.6385  -54.4242 C.3       20 UNK        -0.1800 
    112 C         -5.3864  -17.2320  -54.1681 C.2       20 UNK         0.5000 
    113 O         -5.0360  -16.8393  -55.2836 O.2       20 UNK        -0.5000 
    114 N         -4.5634  -17.3532  -53.1140 N.am      21 UNK        -0.5000 
    115 CA        -3.1132  -17.1093  -53.0945 C.3       21 UNK         0.1400 
    116 CB        -2.8246  -15.5948  -53.1307 C.3       21 UNK        -0.1800 
    117 C         -2.3663  -17.8945  -54.1962 C.2       21 UNK         0.5000 
    118 O         -1.5159  -17.3312  -54.8848 O.2       21 UNK        -0.5000 
    119 N         -2.7752  -19.1591  -54.3742 N.am      22 UNK        -0.5000 
    120 CA        -2.3823  -20.0953  -55.4389 C.3       22 UNK         0.1400 
    121 C         -2.6624  -19.6429  -56.9066 C.2       22 UNK         0.5000 
    122 N         -3.4570  -18.6059  -57.1492 N.am      22 UNK        -0.7600 
    123 O         -2.1980  -20.2754  -57.8513 O.2       22 UNK        -0.5000 
    124 C124       -0.9991  -20.7703  -55.2117 C.3       23 UNK        -0.0398 
    125 S125        0.4820  -19.7666  -55.5834 S.3       23 UNK        -0.2404 
    126 C126        1.4740  -19.9872  -54.0742 C.3       23 UNK        -0.0205 
    127 H127        2.0848   -9.7013  -48.1203 H         1 UNK         0.0600 
    128 H128        2.3172  -10.0832  -49.8284 H         1 UNK         0.0600 
    129 H129        3.5786  -10.4758  -48.6574 H         1 UNK         0.0600 
    130 H130        1.0301  -11.7986  -50.4085 H         1 UNK         0.3000 
    131 H131        1.2421  -14.3752  -49.3401 H         1 UNK         0.0600 
    132 H132       -0.7890  -14.8748  -50.8290 H         1 UNK         0.0800 
    133 H133       -0.9192  -13.1796  -51.1447 H         1 UNK         0.0800 
    134 H134        2.9072  -15.4874  -52.5103 H         1 UNK         0.0800 
    135 H135        2.4919  -15.3433  -50.8392 H         1 UNK         0.0800 
    136 H136        2.3215  -17.4327  -53.7305 H         1 UNK         0.1150 
    137 H137       -0.2250  -20.3933  -51.9676 H         1 UNK         0.1150 
    138 H138        0.3259  -16.6215  -50.0230 H         1 UNK         0.1150 
    139 H139       -1.4049  -19.9594  -49.9719 H         1 UNK         0.0800 
    140 H140       -1.8937  -18.2906  -49.7788 H         1 UNK         0.0800 
    141 H141       -2.4339  -19.7806  -47.6786 H         1 UNK         0.0800 
    142 H142       -1.6624  -19.1976  -46.2276 H         1 UNK         0.0800 
    143 H143       -0.6677  -21.6805  -47.6994 H         1 UNK         0.0600 
    144 H144        0.3283  -20.3583  -45.4056 H         1 UNK         0.3000 
    145 H145        2.0131  -23.2058  -43.9775 H         1 UNK         0.0600 
    146 H146        3.8321  -21.5294  -44.0849 H         1 UNK         0.0600 
    147 H147        3.4827  -22.1477  -45.6925 H         1 UNK         0.0600 
    148 H148        2.9089  -20.5527  -45.2235 H         1 UNK         0.0600 
    149 H149        1.7206  -20.5468  -43.0164 H         1 UNK         0.3000 
    150 H150       -1.2378  -21.1205  -41.0463 H         1 UNK         0.0600 
    151 H151        0.7536  -21.8875  -39.7393 H         1 UNK         0.0600 
    152 H152        0.3036  -20.2393  -39.3287 H         1 UNK         0.0600 
    153 H153        1.6937  -20.5393  -40.3686 H         1 UNK         0.0600 
    154 H154        0.2829  -18.7609  -41.4059 H         1 UNK         0.3000 
    155 H155       -1.4783  -17.5092  -44.2835 H         1 UNK         0.0600 
    156 H156       -2.7808  -16.8700  -42.2648 H         1 UNK         0.0600 
    157 H157       -1.6651  -15.5884  -42.7126 H         1 UNK         0.0600 
    158 H158       -1.2956  -16.6415  -41.3505 H         1 UNK         0.0600 
    159 H159        0.7015  -16.3835  -42.8995 H         1 UNK         0.3000 
    160 H160        3.3431  -17.9912  -44.7366 H         1 UNK         0.0600 
    161 H161        2.2429  -15.1296  -44.6000 H         1 UNK         0.0600 
    162 H162        2.5666  -16.0466  -46.0632 H         1 UNK         0.0600 
    163 H163        3.8957  -15.5793  -45.0161 H         1 UNK         0.0600 
    164 H164        3.2577  -16.1423  -42.5261 H         1 UNK         0.3000 
    165 H165        3.4979  -18.5816  -39.9395 H         1 UNK         0.0600 
    166 H166        5.5322  -17.2631  -39.4210 H         1 UNK         0.0600 
    167 H167        5.8299  -18.3129  -40.7972 H         1 UNK         0.0600 
    168 H168        5.5529  -16.5941  -41.0530 H         1 UNK         0.0600 
    169 H169        3.5166  -15.7164  -39.9422 H         1 UNK         0.3000 
    170 H170       -0.0083  -15.2422  -39.7260 H         1 UNK         0.0600 
    171 H171        0.7159  -15.8258  -37.4055 H         1 UNK         0.0600 
    172 H172        2.2056  -14.9168  -37.6303 H         1 UNK         0.0600 
    173 H173        0.6491  -14.0868  -37.6396 H         1 UNK         0.0600 
    174 H174        2.0993  -13.3685  -39.5920 H         1 UNK         0.3000 
    175 H175        2.2597  -11.8373  -41.2975 H         1 UNK         0.0600 
    176 H176        3.8500  -13.7333  -43.1217 H         1 UNK         0.0600 
    177 H177        4.2698  -12.0602  -42.7651 H         1 UNK         0.0600 
    178 H178        4.3015  -13.2638  -41.4873 H         1 UNK         0.0600 
    179 H179        1.8934  -12.6408  -44.1230 H         1 UNK         0.3000 
    180 H180       -1.1501  -10.8562  -44.4903 H         1 UNK         0.0600 
    181 H181        1.6365  -10.3376  -45.6506 H         1 UNK         0.0600 
    182 H182        0.5695   -9.1379  -44.9342 H         1 UNK         0.0600 
    183 H183        0.1074   -9.9308  -46.4326 H         1 UNK         0.0600 
    184 H184        0.5560  -12.5350  -46.1594 H         1 UNK         0.3000 
    185 H185       -0.2476  -15.3702  -45.4912 H         1 UNK         0.0600 
    186 H186       -2.6969  -15.6906  -45.3665 H         1 UNK         0.0600 
    187 H187       -2.9223  -14.8148  -46.8706 H         1 UNK         0.0600 
    188 H188       -2.0694  -16.3587  -46.8633 H         1 UNK         0.0600 
    189 H189        0.7372  -14.9440  -47.3983 H         1 UNK         0.3000 
    190 H190       -2.1685  -21.3022  -44.4329 H         1 UNK         0.3000 
    191 H191       -4.5846  -22.6273  -45.0276 H         1 UNK         0.0600 
    192 H192       -3.0649  -22.4205  -42.3761 H         1 UNK         0.0600 
    193 H193       -4.2651  -21.2832  -42.9852 H         1 UNK         0.0600 
    194 H194       -4.7448  -22.9149  -42.5461 H         1 UNK         0.0600 
    195 H195       -1.4742  -23.9776  -43.8329 H         1 UNK         0.3000 
    196 H196       -2.3135  -26.6828  -43.6329 H         1 UNK         0.0600 
    197 H197        0.1410  -27.1538  -43.5958 H         1 UNK         0.0600 
    198 H198       -0.2695  -25.8084  -42.5422 H         1 UNK         0.0600 
    199 H199        0.4755  -25.5042  -44.1094 H         1 UNK         0.0600 
    200 H200       -0.9621  -24.8449  -46.3752 H         1 UNK         0.3000 
    201 H201       -0.8704  -27.1225  -48.1872 H         1 UNK         0.0600 
    202 H202       -0.1596  -25.3758  -49.8145 H         1 UNK         0.0600 
    203 H203        0.7391  -25.2160  -48.3144 H         1 UNK         0.0600 
    204 H204       -0.5832  -24.1071  -48.6706 H         1 UNK         0.0600 
    205 H205       -3.4563  -25.2871  -47.0580 H         1 UNK         0.3000 
    206 H206       -5.5011  -24.7072  -47.6664 H         1 UNK         0.0600 
    207 H207       -5.8003  -27.1678  -48.0643 H         1 UNK         0.0600 
    208 H208       -6.8210  -26.2055  -49.1204 H         1 UNK         0.0600 
    209 H209       -5.3605  -26.9482  -49.7576 H         1 UNK         0.0600 
    210 H210       -3.3715  -23.2855  -48.7366 H         1 UNK         0.3000 
    211 H211       -2.5358  -21.9207  -50.2320 H         1 UNK         0.0600 
    212 H212       -4.5916  -20.6688  -49.5617 H         1 UNK         0.0600 
    213 H213       -4.1017  -20.2631  -51.1976 H         1 UNK         0.0600 
    214 H214       -5.4599  -21.3512  -50.9370 H         1 UNK         0.0600 
    215 H215       -2.9651  -24.6982  -51.2409 H         1 UNK         0.3000 
    216 H216       -2.7513  -25.9661  -53.0159 H         1 UNK         0.0600 
    217 H217       -1.5741  -25.2152  -55.0148 H         1 UNK         0.0600 
    218 H218       -1.9199  -23.5303  -54.6676 H         1 UNK         0.0600 
    219 H219       -0.8251  -24.4414  -53.6269 H         1 UNK         0.0600 
    220 H220       -5.2944  -24.6791  -52.3706 H         1 UNK         0.3000 
    221 H221       -7.3926  -24.7455  -52.9350 H         1 UNK         0.0600 
    222 H222       -6.6196  -26.4607  -55.3490 H         1 UNK         0.0600 
    223 H223       -6.8657  -27.0654  -53.7107 H         1 UNK         0.0600 
    224 H224       -8.2048  -26.3587  -54.5974 H         1 UNK         0.0600 
    225 H225       -5.8590  -22.4516  -53.8533 H         1 UNK         0.3000 
    226 H226       -7.9353  -21.2569  -55.4822 H         1 UNK         0.0600 
    227 H227       -6.4894  -22.0510  -57.3166 H         1 UNK         0.0600 
    228 H228       -6.2278  -20.3229  -57.1430 H         1 UNK         0.0600 
    229 H229       -5.0449  -21.4610  -56.5074 H         1 UNK         0.0600 
    230 H230       -7.7463  -18.9047  -55.4395 H         1 UNK         0.3000 
    231 H231       -7.0031  -17.8772  -52.8920 H         1 UNK         0.0600 
    232 H232       -7.6777  -15.6913  -53.9100 H         1 UNK         0.0600 
    233 H233       -8.8694  -16.9459  -54.2128 H         1 UNK         0.0600 
    234 H234       -7.7661  -16.4487  -55.4955 H         1 UNK         0.0600 
    235 H235       -4.9474  -17.7396  -52.2630 H         1 UNK         0.3000 
    236 H236       -2.7412  -17.4940  -52.1441 H         1 UNK         0.0600 
    237 H237       -3.3024  -15.0815  -52.2965 H         1 UNK         0.0600 
    238 H238       -1.7541  -15.4012  -53.0618 H         1 UNK         0.0600 
    239 H239       -3.1791  -15.1381  -54.0551 H         1 UNK         0.0600 
    240 H240       -3.5192  -19.5060  -53.7794 H         1 UNK         0.3000 
    241 H241       -3.1024  -20.9030  -55.3116 H         1 UNK         0.0600 
    242 H242       -3.6366  -18.3394  -58.1037 H         1 UNK         0.3800 
    243 H243       -3.8558  -18.0564  -56.3958 H         1 UNK         0.3800 
    244 H244       -0.9480  -21.1315  -54.1846 H         1 UNK         0.0800 
    245 H245       -0.9327  -21.6661  -55.8303 H         1 UNK         0.0800 
    246 H246        1.4005  -21.0184  -53.7252 H         1 UNK         0.0800 
    247 H247        2.5240  -19.8366  -54.3295 H         1 UNK         0.0800 
@<TRIPOS>BOND
     1    1    2 1    
     2    1  127 1    
     3    1  128 1    
     4    1  129 1    
     5    2    3 2    
     6    2    4 am   BACKBONE|DICT|INTERRES
     7    4    5 1    
     8    4  130 1    
     9    5    6 1    
    10    5   65 1    
    11    5  131 1    
    12    6    7 1    
    13    6  132 1    
    14    6  133 1    
    15    7    8 1    
    16    8    9 1    
    17    8  134 1    
    18    8  135 1    
    19    9   10 ar   
    20    9   14 ar   
    21   10   11 ar   
    22   10  136 1    
    23   11   12 ar   
    24   11  126 1    
    25   12   13 ar   
    26   12  137 1    
    27   13   14 ar   
    28   13   15 1    
    29   14  138 1    
    30   15   16 1    
    31   15  139 1    
    32   15  140 1    
    33   16   17 1    
    34   17   18 1    
    35   17  141 1    
    36   17  142 1    
    37   18   19 1    
    38   18   67 1    
    39   18  143 1    
    40   19   20 am   BACKBONE|DICT|INTERRES
    41   19  144 1    
    42   20   21 2    
    43   20   22 1    
    44   22   23 1    
    45   22   24 1    
    46   22  145 1    
    47   23  146 1    
    48   23  147 1    
    49   23  148 1    
    50   24   25 am   BACKBONE|DICT|INTERRES
    51   24  149 1    
    52   25   26 2    
    53   25   27 1    
    54   27   28 1    
    55   27   29 1    
    56   27  150 1    
    57   28  151 1    
    58   28  152 1    
    59   28  153 1    
    60   29   30 am   BACKBONE|DICT|INTERRES
    61   29  154 1    
    62   30   31 2    
    63   30   32 1    
    64   32   33 1    
    65   32   34 1    
    66   32  155 1    
    67   33  156 1    
    68   33  157 1    
    69   33  158 1    
    70   34   35 am   BACKBONE|DICT|INTERRES
    71   34  159 1    
    72   35   36 2    
    73   35   37 1    
    74   37   38 1    
    75   37   39 1    
    76   37  160 1    
    77   38  161 1    
    78   38  162 1    
    79   38  163 1    
    80   39   40 am   BACKBONE|DICT|INTERRES
    81   39  164 1    
    82   40   41 2    
    83   40   42 1    
    84   42   43 1    
    85   42   44 1    
    86   42  165 1    
    87   43  166 1    
    88   43  167 1    
    89   43  168 1    
    90   44   45 am   BACKBONE|DICT|INTERRES
    91   44  169 1    
    92   45   46 2    
    93   45   47 1    
    94   47   48 1    
    95   47   49 1    
    96   47  170 1    
    97   48  171 1    
    98   48  172 1    
    99   48  173 1    
   100   49   50 am   BACKBONE|DICT|INTERRES
   101   49  174 1    
   102   50   51 2    
   103   50   52 1    
   104   52   53 1    
   105   52   54 1    
   106   52  175 1    
   107   53  176 1    
   108   53  177 1    
   109   53  178 1    
   110   54   55 am   BACKBONE|DICT|INTERRES
   111   54  179 1    
   112   55   56 2    
   113   55   57 1    
   114   57   58 1    
   115   57   59 1    
   116   57  180 1    
   117   58  181 1    
   118   58  182 1    
   119   58  183 1    
   120   59   60 am   BACKBONE|DICT|INTERRES
   121   59  184 1    
   122   60   61 2    
   123   60   62 1    
   124   62   63 1    
   125   62   64 1    
   126   62  185 1    
   127   63  186 1    
   128   63  187 1    
   129   63  188 1    
   130   64   65 am   BACKBONE|DICT|INTERRES
   131   64  189 1    
   132   65   66 2    
   133   67   68 2    
   134   67   69 am   BACKBONE|DICT|INTERRES
   135   69   70 1    
   136   69  190 1    
   137   70   71 1    
   138   70   72 1    
   139   70  191 1    
   140   71  192 1    
   141   71  193 1    
   142   71  194 1    
   143   72   73 2    
   144   72   74 am   BACKBONE|DICT|INTERRES
   145   74   75 1    
   146   74  195 1    
   147   75   76 1    
   148   75   77 1    
   149   75  196 1    
   150   76  197 1    
   151   76  198 1    
   152   76  199 1    
   153   77   78 2    
   154   77   79 am   BACKBONE|DICT|INTERRES
   155   79   80 1    
   156   79  200 1    
   157   80   81 1    
   158   80   82 1    
   159   80  201 1    
   160   81  202 1    
   161   81  203 1    
   162   81  204 1    
   163   82   83 2    
   164   82   84 am   BACKBONE|DICT|INTERRES
   165   84   85 1    
   166   84  205 1    
   167   85   86 1    
   168   85   87 1    
   169   85  206 1    
   170   86  207 1    
   171   86  208 1    
   172   86  209 1    
   173   87   88 2    
   174   87   89 am   BACKBONE|DICT|INTERRES
   175   89   90 1    
   176   89  210 1    
   177   90   91 1    
   178   90   92 1    
   179   90  211 1    
   180   91  212 1    
   181   91  213 1    
   182   91  214 1    
   183   92   93 2    
   184   92   94 am   BACKBONE|DICT|INTERRES
   185   94   95 1    
   186   94  215 1    
   187   95   96 1    
   188   95   97 1    
   189   95  216 1    
   190   96  217 1    
   191   96  218 1    
   192   96  219 1    
   193   97   98 2    
   194   97   99 am   BACKBONE|DICT|INTERRES
   195   99  100 1    
   196   99  220 1    
   197  100  101 1    
   198  100  102 1    
   199  100  221 1    
   200  101  222 1    
   201  101  223 1    
   202  101  224 1    
   203  102  103 2    
   204  102  104 am   BACKBONE|DICT|INTERRES
   205  104  105 1    
   206  104  225 1    
   207  105  106 1    
   208  105  107 1    
   209  105  226 1    
   210  106  227 1    
   211  106  228 1    
   212  106  229 1    
   213  107  108 2    
   214  107  109 am   BACKBONE|DICT|INTERRES
   215  109  110 1    
   216  109  230 1    
   217  110  111 1    
   218  110  112 1    
   219  110  231 1    
   220  111  232 1    
   221  111  233 1    
   222  111  234 1    
   223  112  113 2    
   224  112  114 am   BACKBONE|DICT|INTERRES
   225  114  115 1    
   226  114  235 1    
   227  115  116 1    
   228  115  117 1    
   229  115  236 1    
   230  116  237 1    
   231  116  238 1    
   232  116  239 1    
   233  117  118 2    
   234  117  119 am   BACKBONE|DICT|INTERRES
   235  119  120 1    
   236  119  240 1    
   237  120  121 1    
   238  120  124 1    
   239  120  241 1    
   240  121  122 am   BACKBONE|DICT|INTERRES
   241  121  123 2    
   242  122  242 1    
   243  122  243 1    
   244  124  125 1    
   245  124  244 1    
   246  124  245 1    
   247  125  126 1    
   248  126  246 1    
   249  126  247 1    
@<TRIPOS>SUBSTRUCTURE
     1 UNK         1 GROUP             0       ****    0 ROOT    
