@<TRIPOS>MOLECULE
3R540
247   249    1
SMALL
USER_CHARGES


@<TRIPOS>ATOM
      1 CA         -1.2910  -13.6219  -52.3726 C.3       0 UNK        -0.1800 
      2 C          -0.4485  -13.3490  -51.1351 C.2       0 UNK         0.5000 
      3 O          -0.7757  -12.4582  -50.3517 O.2       0 UNK        -0.5000 
      4 N           0.6256  -14.1251  -50.9463 N.am      1 UNK        -0.5000 
      5 CA          1.5448  -14.0657  -49.8017 C.3       1 UNK         0.1400 
      6 C6          2.7408  -15.0293  -49.9679 C.3       23 UNK        -0.0398 
      7 S7          3.6472  -14.8241  -51.5429 S.3       23 UNK        -0.2404 
      8 C8          5.1476  -15.8207  -51.2435 C.3       23 UNK        -0.0205 
      9 C9          4.8167  -17.1659  -50.6148 C.ar      23 UNK        -0.0193 
     10 C10         4.1988  -18.1647  -51.3690 C.ar      23 UNK        -0.1150 
     11 C11         3.7792  -19.3504  -50.7612 C.ar      23 UNK        -0.0193 
     12 C12         4.0320  -19.5547  -49.4017 C.ar      23 UNK        -0.1150 
     13 C13         4.6667  -18.5681  -48.6339 C.ar      23 UNK        -0.0193 
     14 C14         5.0585  -17.3802  -49.2559 C.ar      23 UNK        -0.1150 
     15 C15         4.9350  -18.7023  -47.1337 C.3       23 UNK        -0.0205 
     16 S16         4.4095  -20.2589  -46.3419 S.3       23 UNK        -0.2404 
     17 C17         2.5884  -20.0953  -46.3077 C.3       23 UNK        -0.0398 
     18 CA          1.8711  -21.4195  -46.6677 C.3       11 UNK         0.1400 
     19 N           2.3390  -22.5398  -45.8496 N.am      11 UNK        -0.5000 
     20 C           2.3889  -23.8184  -46.2389 C.2       10 UNK         0.5000 
     21 O           2.0754  -24.2018  -47.3653 O.2       10 UNK        -0.5000 
     22 CA          2.8721  -24.8468  -45.1957 C.3       10 UNK         0.1400 
     23 CB          4.3565  -25.1746  -45.4179 C.3       10 UNK        -0.1800 
     24 N           2.6898  -24.3990  -43.8126 N.am      10 UNK        -0.5000 
     25 C           1.5048  -24.2958  -43.1953 C.2       9 UNK         0.5000 
     26 O           0.4350  -24.6137  -43.7148 O.2       9 UNK        -0.5000 
     27 CA          1.5160  -23.6866  -41.7773 C.3       9 UNK         0.1400 
     28 CB          1.7297  -24.7834  -40.7236 C.3       9 UNK        -0.1800 
     29 N           2.5152  -22.6261  -41.5829 N.am      9 UNK        -0.5000 
     30 C           2.5791  -21.4966  -42.3010 C.2       8 UNK         0.5000 
     31 O           1.8341  -21.2649  -43.2532 O.2       8 UNK        -0.5000 
     32 CA          3.6936  -20.4971  -41.9368 C.3       8 UNK         0.1400 
     33 CB          5.0484  -20.9924  -42.4671 C.3       8 UNK        -0.1800 
     34 N           3.4341  -19.1636  -42.4871 N.am      8 UNK        -0.5000 
     35 C           2.5065  -18.3153  -42.0224 C.2       7 UNK         0.5000 
     36 O           1.8334  -18.5405  -41.0135 O.2       7 UNK        -0.5000 
     37 CA          2.3141  -16.9726  -42.7686 C.3       7 UNK         0.1400 
     38 CB          3.0696  -16.8525  -44.1108 C.3       7 UNK        -0.1800 
     39 N           0.8990  -16.6366  -42.9434 N.am      7 UNK        -0.5000 
     40 C          -0.0404  -17.3628  -43.5673 C.2       6 UNK         0.5000 
     41 O           0.2018  -18.3955  -44.1896 O.2       6 UNK        -0.5000 
     42 CA         -1.4957  -16.8474  -43.5421 C.3       6 UNK         0.1400 
     43 CB         -2.4337  -17.8187  -42.7996 C.3       6 UNK        -0.1800 
     44 N          -1.6624  -15.4690  -43.0613 N.am      6 UNK        -0.5000 
     45 C          -1.5249  -14.9894  -41.8165 C.2       5 UNK         0.5000 
     46 O          -1.2392  -15.6854  -40.8416 O.2       5 UNK        -0.5000 
     47 CA         -1.6938  -13.4619  -41.6567 C.3       5 UNK         0.1400 
     48 CB         -1.2290  -12.9484  -40.2781 C.3       5 UNK        -0.1800 
     49 N          -1.0481  -12.6887  -42.7256 N.am      5 UNK        -0.5000 
     50 C           0.2370  -12.7294  -43.1089 C.2       4 UNK         0.5000 
     51 O           1.0722  -13.4862  -42.6097 O.2       4 UNK        -0.5000 
     52 CA          0.6405  -11.7720  -44.2549 C.3       4 UNK         0.1400 
     53 CB          2.1084  -11.9503  -44.6829 C.3       4 UNK        -0.1800 
     54 N          -0.2151  -11.9323  -45.4333 N.am      4 UNK        -0.5000 
     55 C          -1.4590  -11.4466  -45.5704 C.2       3 UNK         0.5000 
     56 O          -2.0011  -10.7354  -44.7234 O.2       3 UNK        -0.5000 
     57 CA         -2.2578  -11.8670  -46.8237 C.3       3 UNK         0.1400 
     58 CB         -2.1814  -10.7736  -47.8986 C.3       3 UNK        -0.1800 
     59 N          -1.8159  -13.1420  -47.3953 N.am      3 UNK        -0.5000 
     60 C          -1.8361  -14.3156  -46.7442 C.2       2 UNK         0.5000 
     61 O          -2.3715  -14.4590  -45.6451 O.2       2 UNK        -0.5000 
     62 CA         -1.1001  -15.5174  -47.3773 C.3       2 UNK         0.1400 
     63 CB         -2.1028  -16.5878  -47.8353 C.3       2 UNK        -0.1800 
     64 N          -0.2183  -15.1797  -48.4972 N.am      2 UNK        -0.5000 
     65 C           0.8367  -14.3511  -48.4586 C.2       1 UNK         0.5000 
     66 O           1.2218  -13.7866  -47.4339 O.2       1 UNK        -0.5000 
     67 C           0.3452  -21.2832  -46.5152 C.2       11 UNK         0.5000 
     68 O          -0.3603  -21.1331  -47.5122 O.2       11 UNK        -0.5000 
     69 N          -0.1411  -21.4147  -45.2711 N.am      12 UNK        -0.5000 
     70 CA         -1.5538  -21.4018  -44.8844 C.3       12 UNK         0.1400 
     71 CB         -1.6511  -21.5152  -43.3559 C.3       12 UNK        -0.1800 
     72 C          -2.3843  -22.5123  -45.5550 C.2       12 UNK         0.5000 
     73 O          -3.5819  -22.3288  -45.7755 O.2       12 UNK        -0.5000 
     74 N          -1.7202  -23.6183  -45.9222 N.am      13 UNK        -0.5000 
     75 CA         -2.2576  -24.7370  -46.6986 C.3       13 UNK         0.1400 
     76 CB         -1.1650  -25.8038  -46.8585 C.3       13 UNK        -0.1800 
     77 C          -2.8330  -24.3431  -48.0759 C.2       13 UNK         0.5000 
     78 O          -3.6514  -25.0908  -48.6113 O.2       13 UNK        -0.5000 
     79 N          -2.4620  -23.1629  -48.6025 N.am      14 UNK        -0.5000 
     80 CA         -3.0488  -22.5484  -49.7979 C.3       14 UNK         0.1400 
     81 CB         -2.3435  -21.2162  -50.0911 C.3       14 UNK        -0.1800 
     82 C          -4.5708  -22.3242  -49.7022 C.2       14 UNK         0.5000 
     83 O          -5.2345  -22.2838  -50.7382 O.2       14 UNK        -0.5000 
     84 N          -5.1148  -22.2315  -48.4787 N.am      15 UNK        -0.5000 
     85 CA         -6.5513  -22.1585  -48.2016 C.3       15 UNK         0.1400 
     86 CB         -6.7670  -21.9707  -46.6936 C.3       15 UNK        -0.1800 
     87 C          -7.3461  -23.3789  -48.7117 C.2       15 UNK         0.5000 
     88 O          -8.5172  -23.2262  -49.0590 O.2       15 UNK        -0.5000 
     89 N          -6.6954  -24.5494  -48.8136 N.am      16 UNK        -0.5000 
     90 CA         -7.2653  -25.7628  -49.4103 C.3       16 UNK         0.1400 
     91 CB         -6.3785  -26.9674  -49.0619 C.3       16 UNK        -0.1800 
     92 C          -7.4528  -25.6526  -50.9383 C.2       16 UNK         0.5000 
     93 O          -8.2873  -26.3633  -51.4985 O.2       16 UNK        -0.5000 
     94 N          -6.7019  -24.7435  -51.5743 N.am      17 UNK        -0.5000 
     95 CA         -6.8191  -24.3626  -52.9813 C.3       17 UNK         0.1400 
     96 CB         -5.4041  -24.2642  -53.5821 C.3       17 UNK        -0.1800 
     97 C          -7.5915  -23.0350  -53.1358 C.2       17 UNK         0.5000 
     98 O          -7.4563  -22.3737  -54.1647 O.2       17 UNK        -0.5000 
     99 N          -8.3527  -22.6356  -52.1030 N.am      18 UNK        -0.5000 
    100 CA        -9.1350  -21.3965  -52.0023 C.3       18 UNK         0.1400 
    101 CB       -10.3140  -21.4176  -52.9974 C.3       18 UNK        -0.1800 
    102 C         -8.2751  -20.1181  -52.1188 C.2       18 UNK         0.5000 
    103 O         -8.7533  -19.0968  -52.6140 O.2       18 UNK        -0.5000 
    104 N         -7.0120  -20.2144  -51.6759 N.am      19 UNK        -0.5000 
    105 CA        -5.9507  -19.2056  -51.7347 C.3       19 UNK         0.1400 
    106 CB        -6.3439  -17.9191  -50.9804 C.3       19 UNK        -0.1800 
    107 C         -5.4223  -18.9233  -53.1567 C.2       19 UNK         0.5000 
    108 O         -4.6146  -18.0077  -53.3179 O.2       19 UNK        -0.5000 
    109 N         -5.8198  -19.7228  -54.1588 N.am      20 UNK        -0.5000 
    110 CA        -5.3826  -19.5681  -55.5503 C.3       20 UNK         0.1400 
    111 CB        -6.2706  -20.4247  -56.4648 C.3       20 UNK        -0.1800 
    112 C         -3.8963  -19.9132  -55.7685 C.2       20 UNK         0.5000 
    113 O         -3.2996  -19.4230  -56.7280 O.2       20 UNK        -0.5000 
    114 N         -3.3296  -20.7462  -54.8833 N.am      21 UNK        -0.5000 
    115 CA        -1.9229  -21.1434  -54.8975 C.3       21 UNK         0.1400 
    116 CB        -1.7186  -22.3367  -53.9492 C.3       21 UNK        -0.1800 
    117 C         -0.9800  -19.9790  -54.5402 C.2       21 UNK         0.5000 
    118 O         -0.0485  -19.7005  -55.2963 O.2       21 UNK        -0.5000 
    119 N         -1.2469  -19.3218  -53.4048 N.am      22 UNK        -0.5000 
    120 CA        -0.4385  -18.2296  -52.8387 C.3       22 UNK         0.1400 
    121 C         -1.1466  -17.4933  -51.6638 C.2       22 UNK         0.5000 
    122 N         -2.4707  -17.4620  -51.5949 N.am      22 UNK        -0.7600 
    123 O         -0.4965  -16.9094  -50.8025 O.2       22 UNK        -0.5000 
    124 C124        1.0319  -18.6348  -52.5163 C.3       23 UNK        -0.0398 
    125 S125        1.2137  -20.1165  -51.4604 S.3       23 UNK        -0.2404 
    126 C126        3.0130  -20.3937  -51.5601 C.3       23 UNK        -0.0205 
    127 H127       -0.8579  -14.4082  -52.9915 H         1 UNK         0.0600 
    128 H128       -1.3751  -12.7190  -52.9773 H         1 UNK         0.0600 
    129 H129       -2.2934  -13.9347  -52.0802 H         1 UNK         0.0600 
    130 H130        0.8200  -14.8627  -51.6078 H         1 UNK         0.3000 
    131 H131        1.9328  -13.0463  -49.7527 H         1 UNK         0.0600 
    132 H132        2.3935  -16.0636  -49.9119 H         1 UNK         0.0800 
    133 H133        3.4465  -14.8924  -49.1463 H         1 UNK         0.0800 
    134 H134        5.6703  -15.9756  -52.1883 H         1 UNK         0.0800 
    135 H135        5.8281  -15.2550  -50.6052 H         1 UNK         0.0800 
    136 H136        3.9959  -17.9937  -52.4168 H         1 UNK         0.1150 
    137 H137        3.7077  -20.4799  -48.9521 H         1 UNK         0.1150 
    138 H138        5.5281  -16.6028  -48.6690 H         1 UNK         0.1150 
    139 H139        6.0083  -18.5967  -46.9700 H         1 UNK         0.0800 
    140 H140        4.4634  -17.8684  -46.6127 H         1 UNK         0.0800 
    141 H141        2.2770  -19.3025  -46.9900 H         1 UNK         0.0800 
    142 H142        2.3033  -19.7652  -45.3092 H         1 UNK         0.0800 
    143 H143        2.0770  -21.6377  -47.7176 H         1 UNK         0.0600 
    144 H144        2.5627  -22.3119  -44.8897 H         1 UNK         0.3000 
    145 H145        2.2925  -25.7610  -45.3413 H         1 UNK         0.0600 
    146 H146        4.6972  -25.9496  -44.7311 H         1 UNK         0.0600 
    147 H147        4.5281  -25.5412  -46.4309 H         1 UNK         0.0600 
    148 H148        4.9877  -24.2963  -45.2756 H         1 UNK         0.0600 
    149 H149        3.5189  -24.1145  -43.3122 H         1 UNK         0.3000 
    150 H150        0.5338  -23.2421  -41.6071 H         1 UNK         0.0600 
    151 H151        2.7151  -25.2421  -40.8135 H         1 UNK         0.0600 
    152 H152        0.9876  -25.5761  -40.8287 H         1 UNK         0.0600 
    153 H153        1.6350  -24.3845  -39.7134 H         1 UNK         0.0600 
    154 H154        3.1705  -22.7624  -40.8266 H         1 UNK         0.3000 
    155 H155        3.7482  -20.4216  -40.8488 H         1 UNK         0.0600 
    156 H156        5.0357  -21.1228  -43.5493 H         1 UNK         0.0600 
    157 H157        5.3173  -21.9530  -42.0261 H         1 UNK         0.0600 
    158 H158        5.8477  -20.2922  -42.2235 H         1 UNK         0.0600 
    159 H159        3.9230  -18.9269  -43.3370 H         1 UNK         0.3000 
    160 H160        2.7187  -16.2086  -42.1035 H         1 UNK         0.0600 
    161 H161        2.7091  -17.5666  -44.8483 H         1 UNK         0.0600 
    162 H162        4.1417  -17.0067  -43.9848 H         1 UNK         0.0600 
    163 H163        2.9416  -15.8563  -44.5353 H         1 UNK         0.0600 
    164 H164        0.5977  -15.7973  -42.4655 H         1 UNK         0.3000 
    165 H165       -1.8200  -16.8329  -44.5825 H         1 UNK         0.0600 
    166 H166       -3.4514  -17.4312  -42.7535 H         1 UNK         0.0600 
    167 H167       -2.4788  -18.7773  -43.3145 H         1 UNK         0.0600 
    168 H168       -2.0975  -18.0122  -41.7806 H         1 UNK         0.0600 
    169 H169       -1.8892  -14.8094  -43.8011 H         1 UNK         0.3000 
    170 H170       -2.7638  -13.2660  -41.7385 H         1 UNK         0.0600 
    171 H171       -1.7819  -13.4322  -39.4721 H         1 UNK         0.0600 
    172 H172       -0.1688  -13.1422  -40.1114 H         1 UNK         0.0600 
    173 H173       -1.3923  -11.8749  -40.1821 H         1 UNK         0.0600 
    174 H174       -1.6480  -12.0385  -43.2235 H         1 UNK         0.3000 
    175 H175        0.5287  -10.7539  -43.8767 H         1 UNK         0.0600 
    176 H176        2.3023  -12.9618  -45.0423 H         1 UNK         0.0600 
    177 H177        2.3751  -11.2554  -45.4793 H         1 UNK         0.0600 
    178 H178        2.7853  -11.7627  -43.8485 H         1 UNK         0.0600 
    179 H179        0.1518  -12.5342  -46.1635 H         1 UNK         0.3000 
    180 H180       -3.3016  -11.9812  -46.5244 H         1 UNK         0.0600 
    181 H181       -1.1577  -10.6215  -48.2433 H         1 UNK         0.0600 
    182 H182       -2.5442   -9.8197  -47.5137 H         1 UNK         0.0600 
    183 H183       -2.7923  -11.0281  -48.7649 H         1 UNK         0.0600 
    184 H184       -1.3690  -13.0954  -48.3035 H         1 UNK         0.3000 
    185 H185       -0.4735  -15.9512  -46.5957 H         1 UNK         0.0600 
    186 H186       -2.7534  -16.8962  -47.0161 H         1 UNK         0.0600 
    187 H187       -2.7393  -16.2191  -48.6401 H         1 UNK         0.0600 
    188 H188       -1.5903  -17.4812  -48.1940 H         1 UNK         0.0600 
    189 H189       -0.4226  -15.6408  -49.3816 H         1 UNK         0.3000 
    190 H190        0.5269  -21.4624  -44.5044 H         1 UNK         0.3000 
    191 H191       -1.9686  -20.4401  -45.1921 H         1 UNK         0.0600 
    192 H192       -1.0583  -20.7445  -42.8621 H         1 UNK         0.0600 
    193 H193       -2.6827  -21.4013  -43.0211 H         1 UNK         0.0600 
    194 H194       -1.2972  -22.4842  -43.0042 H         1 UNK         0.0600 
    195 H195       -0.7483  -23.6867  -45.6524 H         1 UNK         0.3000 
    196 H196       -3.0759  -25.1685  -46.1192 H         1 UNK         0.0600 
    197 H197       -1.5529  -26.6871  -47.3674 H         1 UNK         0.0600 
    198 H198       -0.7820  -26.1284  -45.8906 H         1 UNK         0.0600 
    199 H199       -0.3252  -25.4308  -47.4451 H         1 UNK         0.0600 
    200 H200       -1.7797  -22.6009  -48.1049 H         1 UNK         0.3000 
    201 H201       -2.8729  -23.2244  -50.6368 H         1 UNK         0.0600 
    202 H202       -2.7494  -20.7409  -50.9842 H         1 UNK         0.0600 
    203 H203       -1.2771  -21.3656  -50.2582 H         1 UNK         0.0600 
    204 H204       -2.4561  -20.5107  -49.2668 H         1 UNK         0.0600 
    205 H205       -4.5046  -22.2730  -47.6691 H         1 UNK         0.3000 
    206 H206       -6.9410  -21.2769  -48.7147 H         1 UNK         0.0600 
    207 H207       -6.2698  -21.0699  -46.3332 H         1 UNK         0.0600 
    208 H208       -7.8276  -21.8734  -46.4582 H         1 UNK         0.0600 
    209 H209       -6.3792  -22.8168  -46.1248 H         1 UNK         0.0600 
    210 H210       -5.7180  -24.5976  -48.5475 H         1 UNK         0.3000 
    211 H211       -8.2501  -25.9273  -48.9678 H         1 UNK         0.0600 
    212 H212       -5.3948  -26.8909  -49.5262 H         1 UNK         0.0600 
    213 H213       -6.8312  -27.8968  -49.4098 H         1 UNK         0.0600 
    214 H214       -6.2365  -27.0577  -47.9849 H         1 UNK         0.0600 
    215 H215       -6.0698  -24.1708  -51.0277 H         1 UNK         0.3000 
    216 H216       -7.3718  -25.1236  -53.5353 H         1 UNK         0.0600 
    217 H217       -5.4433  -24.0562  -54.6521 H         1 UNK         0.0600 
    218 H218       -4.8573  -25.1987  -53.4560 H         1 UNK         0.0600 
    219 H219       -4.8203  -23.4703  -53.1157 H         1 UNK         0.0600 
    220 H220       -8.3813  -23.2244  -51.2802 H         1 UNK         0.3000 
    221 H221       -9.5549  -21.3838  -50.9956 H         1 UNK         0.0600 
    222 H222       -9.9727  -21.3626  -54.0316 H         1 UNK         0.0600 
    223 H223      -10.9062  -22.3260  -52.8873 H         1 UNK         0.0600 
    224 H224      -10.9841  -20.5737  -52.8295 H         1 UNK         0.0600 
    225 H225       -6.6984  -21.1173  -51.3326 H         1 UNK         0.3000 
    226 H226       -5.1066  -19.6371  -51.1967 H         1 UNK         0.0600 
    227 H227       -7.1227  -17.3620  -51.5012 H         1 UNK         0.0600 
    228 H228       -6.7041  -18.1451  -49.9768 H         1 UNK         0.0600 
    229 H229       -5.4883  -17.2517  -50.8727 H         1 UNK         0.0600 
    230 H230       -6.4715  -20.4761  -53.9700 H         1 UNK         0.3000 
    231 H231       -5.5212  -18.5216  -55.8301 H         1 UNK         0.0600 
    232 H232       -6.1243  -21.4901  -56.2839 H         1 UNK         0.0600 
    233 H233       -6.0416  -20.2386  -57.5148 H         1 UNK         0.0600 
    234 H234       -7.3271  -20.2000  -56.3167 H         1 UNK         0.0600 
    235 H235       -3.9054  -21.1118  -54.1406 H         1 UNK         0.3000 
    236 H236       -1.6743  -21.4737  -55.9085 H         1 UNK         0.0600 
    237 H237       -0.6730  -22.6471  -53.9333 H         1 UNK         0.0600 
    238 H238       -2.0037  -22.0979  -52.9251 H         1 UNK         0.0600 
    239 H239       -2.3075  -23.1973  -54.2674 H         1 UNK         0.0600 
    240 H240       -2.0344  -19.6058  -52.8433 H         1 UNK         0.3000 
    241 H241       -0.3816  -17.4652  -53.6152 H         1 UNK         0.0600 
    242 H242       -3.0688  -17.7609  -52.3605 H         1 UNK         0.3800 
    243 H243       -2.8866  -16.9710  -50.8230 H         1 UNK         0.3800 
    244 H244        1.5703  -18.8187  -53.4459 H         1 UNK         0.0800 
    245 H245        1.5572  -17.8023  -52.0473 H         1 UNK         0.0800 
    246 H246        3.2372  -21.3902  -51.1768 H         1 UNK         0.0800 
    247 H247        3.3324  -20.3899  -52.6034 H         1 UNK         0.0800 
@<TRIPOS>BOND
     1    1    2 1    
     2    1  127 1    
     3    1  128 1    
     4    1  129 1    
     5    2    3 2    
     6    2    4 am   BACKBONE|DICT|INTERRES
     7    4    5 1    
     8    4  130 1    
     9    5    6 1    
    10    5   65 1    
    11    5  131 1    
    12    6    7 1    
    13    6  132 1    
    14    6  133 1    
    15    7    8 1    
    16    8    9 1    
    17    8  134 1    
    18    8  135 1    
    19    9   10 ar   
    20    9   14 ar   
    21   10   11 ar   
    22   10  136 1    
    23   11   12 ar   
    24   11  126 1    
    25   12   13 ar   
    26   12  137 1    
    27   13   14 ar   
    28   13   15 1    
    29   14  138 1    
    30   15   16 1    
    31   15  139 1    
    32   15  140 1    
    33   16   17 1    
    34   17   18 1    
    35   17  141 1    
    36   17  142 1    
    37   18   19 1    
    38   18   67 1    
    39   18  143 1    
    40   19   20 am   BACKBONE|DICT|INTERRES
    41   19  144 1    
    42   20   21 2    
    43   20   22 1    
    44   22   23 1    
    45   22   24 1    
    46   22  145 1    
    47   23  146 1    
    48   23  147 1    
    49   23  148 1    
    50   24   25 am   BACKBONE|DICT|INTERRES
    51   24  149 1    
    52   25   26 2    
    53   25   27 1    
    54   27   28 1    
    55   27   29 1    
    56   27  150 1    
    57   28  151 1    
    58   28  152 1    
    59   28  153 1    
    60   29   30 am   BACKBONE|DICT|INTERRES
    61   29  154 1    
    62   30   31 2    
    63   30   32 1    
    64   32   33 1    
    65   32   34 1    
    66   32  155 1    
    67   33  156 1    
    68   33  157 1    
    69   33  158 1    
    70   34   35 am   BACKBONE|DICT|INTERRES
    71   34  159 1    
    72   35   36 2    
    73   35   37 1    
    74   37   38 1    
    75   37   39 1    
    76   37  160 1    
    77   38  161 1    
    78   38  162 1    
    79   38  163 1    
    80   39   40 am   BACKBONE|DICT|INTERRES
    81   39  164 1    
    82   40   41 2    
    83   40   42 1    
    84   42   43 1    
    85   42   44 1    
    86   42  165 1    
    87   43  166 1    
    88   43  167 1    
    89   43  168 1    
    90   44   45 am   BACKBONE|DICT|INTERRES
    91   44  169 1    
    92   45   46 2    
    93   45   47 1    
    94   47   48 1    
    95   47   49 1    
    96   47  170 1    
    97   48  171 1    
    98   48  172 1    
    99   48  173 1    
   100   49   50 am   BACKBONE|DICT|INTERRES
   101   49  174 1    
   102   50   51 2    
   103   50   52 1    
   104   52   53 1    
   105   52   54 1    
   106   52  175 1    
   107   53  176 1    
   108   53  177 1    
   109   53  178 1    
   110   54   55 am   BACKBONE|DICT|INTERRES
   111   54  179 1    
   112   55   56 2    
   113   55   57 1    
   114   57   58 1    
   115   57   59 1    
   116   57  180 1    
   117   58  181 1    
   118   58  182 1    
   119   58  183 1    
   120   59   60 am   BACKBONE|DICT|INTERRES
   121   59  184 1    
   122   60   61 2    
   123   60   62 1    
   124   62   63 1    
   125   62   64 1    
   126   62  185 1    
   127   63  186 1    
   128   63  187 1    
   129   63  188 1    
   130   64   65 am   BACKBONE|DICT|INTERRES
   131   64  189 1    
   132   65   66 2    
   133   67   68 2    
   134   67   69 am   BACKBONE|DICT|INTERRES
   135   69   70 1    
   136   69  190 1    
   137   70   71 1    
   138   70   72 1    
   139   70  191 1    
   140   71  192 1    
   141   71  193 1    
   142   71  194 1    
   143   72   73 2    
   144   72   74 am   BACKBONE|DICT|INTERRES
   145   74   75 1    
   146   74  195 1    
   147   75   76 1    
   148   75   77 1    
   149   75  196 1    
   150   76  197 1    
   151   76  198 1    
   152   76  199 1    
   153   77   78 2    
   154   77   79 am   BACKBONE|DICT|INTERRES
   155   79   80 1    
   156   79  200 1    
   157   80   81 1    
   158   80   82 1    
   159   80  201 1    
   160   81  202 1    
   161   81  203 1    
   162   81  204 1    
   163   82   83 2    
   164   82   84 am   BACKBONE|DICT|INTERRES
   165   84   85 1    
   166   84  205 1    
   167   85   86 1    
   168   85   87 1    
   169   85  206 1    
   170   86  207 1    
   171   86  208 1    
   172   86  209 1    
   173   87   88 2    
   174   87   89 am   BACKBONE|DICT|INTERRES
   175   89   90 1    
   176   89  210 1    
   177   90   91 1    
   178   90   92 1    
   179   90  211 1    
   180   91  212 1    
   181   91  213 1    
   182   91  214 1    
   183   92   93 2    
   184   92   94 am   BACKBONE|DICT|INTERRES
   185   94   95 1    
   186   94  215 1    
   187   95   96 1    
   188   95   97 1    
   189   95  216 1    
   190   96  217 1    
   191   96  218 1    
   192   96  219 1    
   193   97   98 2    
   194   97   99 am   BACKBONE|DICT|INTERRES
   195   99  100 1    
   196   99  220 1    
   197  100  101 1    
   198  100  102 1    
   199  100  221 1    
   200  101  222 1    
   201  101  223 1    
   202  101  224 1    
   203  102  103 2    
   204  102  104 am   BACKBONE|DICT|INTERRES
   205  104  105 1    
   206  104  225 1    
   207  105  106 1    
   208  105  107 1    
   209  105  226 1    
   210  106  227 1    
   211  106  228 1    
   212  106  229 1    
   213  107  108 2    
   214  107  109 am   BACKBONE|DICT|INTERRES
   215  109  110 1    
   216  109  230 1    
   217  110  111 1    
   218  110  112 1    
   219  110  231 1    
   220  111  232 1    
   221  111  233 1    
   222  111  234 1    
   223  112  113 2    
   224  112  114 am   BACKBONE|DICT|INTERRES
   225  114  115 1    
   226  114  235 1    
   227  115  116 1    
   228  115  117 1    
   229  115  236 1    
   230  116  237 1    
   231  116  238 1    
   232  116  239 1    
   233  117  118 2    
   234  117  119 am   BACKBONE|DICT|INTERRES
   235  119  120 1    
   236  119  240 1    
   237  120  121 1    
   238  120  124 1    
   239  120  241 1    
   240  121  122 am   BACKBONE|DICT|INTERRES
   241  121  123 2    
   242  122  242 1    
   243  122  243 1    
   244  124  125 1    
   245  124  244 1    
   246  124  245 1    
   247  125  126 1    
   248  126  246 1    
   249  126  247 1    
@<TRIPOS>SUBSTRUCTURE
     1 UNK         1 GROUP             0       ****    0 ROOT    
