@<TRIPOS>MOLECULE
3R540
247   249    1
SMALL
USER_CHARGES


@<TRIPOS>ATOM
      1 CA          5.5289  -15.3526  -47.5593 C.3       0 UNK        -0.1800 
      2 C           5.2577  -16.4253  -48.6041 C.2       0 UNK         0.5000 
      3 O           6.1989  -17.0255  -49.1229 O.2       0 UNK        -0.5000 
      4 N           3.9783  -16.6646  -48.9156 N.am      1 UNK        -0.5000 
      5 CA          3.5303  -17.6823  -49.8768 C.3       1 UNK         0.1400 
      6 C6          2.0884  -17.4440  -50.3914 C.3       23 UNK        -0.0398 
      7 S7          1.8168  -15.7652  -51.0537 S.3       23 UNK        -0.2404 
      8 C8          1.0025  -14.9502  -49.6427 C.3       23 UNK        -0.0205 
      9 C9         -0.4662  -15.3328  -49.5283 C.ar      23 UNK        -0.0193 
     10 C10        -1.4221  -14.6338  -50.2696 C.ar      23 UNK        -0.1150 
     11 C11        -2.7713  -14.9868  -50.1989 C.ar      23 UNK        -0.0193 
     12 C12        -3.1630  -16.0501  -49.3819 C.ar      23 UNK        -0.1150 
     13 C13        -2.2204  -16.7573  -48.6299 C.ar      23 UNK        -0.0193 
     14 C14        -0.8750  -16.3777  -48.6912 C.ar      23 UNK        -0.1150 
     15 C15        -2.6812  -17.9142  -47.7515 C.3       23 UNK        -0.0205 
     16 S16        -1.6299  -19.4025  -47.8790 S.3       23 UNK        -0.2404 
     17 C17        -2.7472  -20.6135  -47.1068 C.3       23 UNK        -0.0398 
     18 CA         -2.0432  -21.9105  -46.6346 C.3       11 UNK         0.1400 
     19 N          -1.1873  -21.6763  -45.4585 N.am      11 UNK        -0.5000 
     20 C          -0.5634  -22.5917  -44.6961 C.2       10 UNK         0.5000 
     21 O          -0.6607  -23.8054  -44.8825 O.2       10 UNK        -0.5000 
     22 CA          0.3075  -22.0862  -43.5248 C.3       10 UNK         0.1400 
     23 CB          1.6622  -22.8140  -43.4762 C.3       10 UNK        -0.1800 
     24 N           0.5527  -20.6459  -43.5761 N.am      10 UNK        -0.5000 
     25 C          -0.2621  -19.6949  -43.1119 C.2       9 UNK         0.5000 
     26 O          -1.3250  -19.9226  -42.5301 O.2       9 UNK        -0.5000 
     27 CA          0.1569  -18.2569  -43.4588 C.3       9 UNK         0.1400 
     28 CB         -0.2034  -17.9638  -44.9202 C.3       9 UNK        -0.1800 
     29 N          -0.4880  -17.2586  -42.6103 N.am      9 UNK        -0.5000 
     30 C          -0.1578  -17.0217  -41.3336 C.2       8 UNK         0.5000 
     31 O           0.7230  -17.6401  -40.7342 O.2       8 UNK        -0.5000 
     32 CA         -0.8965  -15.8815  -40.6056 C.3       8 UNK         0.1400 
     33 CB          0.0164  -14.6515  -40.4755 C.3       8 UNK        -0.1800 
     34 N          -2.1351  -15.4811  -41.2737 N.am      8 UNK        -0.5000 
     35 C          -3.2983  -16.1374  -41.1640 C.2       7 UNK         0.5000 
     36 O          -3.4579  -17.1201  -40.4392 O.2       7 UNK        -0.5000 
     37 CA         -4.4892  -15.6162  -41.9953 C.3       7 UNK         0.1400 
     38 CB         -5.4621  -14.8292  -41.1033 C.3       7 UNK        -0.1800 
     39 N          -4.1150  -14.7768  -43.1376 N.am      7 UNK        -0.5000 
     40 C          -3.4257  -15.1920  -44.2084 C.2       6 UNK         0.5000 
     41 O          -2.9930  -16.3389  -44.3264 O.2       6 UNK        -0.5000 
     42 CA         -3.1714  -14.1665  -45.3357 C.3       6 UNK         0.1400 
     43 CB         -3.5160  -12.7083  -44.9566 C.3       6 UNK        -0.1800 
     44 N          -1.8048  -14.2444  -45.8588 N.am      6 UNK        -0.5000 
     45 C          -0.6671  -14.0937  -45.1668 C.2       5 UNK         0.5000 
     46 O          -0.6098  -13.8500  -43.9584 O.2       5 UNK        -0.5000 
     47 CA          0.6243  -14.2282  -45.9839 C.3       5 UNK         0.1400 
     48 CB          0.9577  -12.9119  -46.7039 C.3       5 UNK        -0.1800 
     49 N           1.7386  -14.5925  -45.1157 N.am      5 UNK        -0.5000 
     50 C           2.5697  -15.6200  -45.3179 C.2       4 UNK         0.5000 
     51 O           2.5090  -16.3688  -46.3006 O.2       4 UNK        -0.5000 
     52 CA          3.6612  -15.8442  -44.2556 C.3       4 UNK         0.1400 
     53 CB          3.1956  -15.5457  -42.8160 C.3       4 UNK        -0.1800 
     54 N           4.1322  -17.2198  -44.3549 N.am      4 UNK        -0.5000 
     55 C           5.3455  -17.6740  -44.0341 C.2       3 UNK         0.5000 
     56 O           6.2279  -16.9675  -43.5454 O.2       3 UNK        -0.5000 
     57 CA          5.6494  -19.1574  -44.3363 C.3       3 UNK         0.1400 
     58 CB          5.3701  -20.0429  -43.1055 C.3       3 UNK        -0.1800 
     59 N           4.9943  -19.6850  -45.5452 N.am      3 UNK        -0.5000 
     60 C           3.6963  -19.9470  -45.7454 C.2       2 UNK         0.5000 
     61 O           2.8174  -19.7509  -44.9065 O.2       2 UNK        -0.5000 
     62 CA          3.3114  -20.3855  -47.1600 C.3       2 UNK         0.1400 
     63 CB          1.9385  -21.0791  -47.2261 C.3       2 UNK        -0.1800 
     64 N           3.2858  -19.1761  -47.9661 N.am      2 UNK        -0.5000 
     65 C           3.6269  -19.0883  -49.2562 C.2       1 UNK         0.5000 
     66 O           4.0078  -20.0395  -49.9384 O.2       1 UNK        -0.5000 
     67 C          -3.1118  -23.0058  -46.4295 C.2       11 UNK         0.5000 
     68 O          -3.3883  -23.7540  -47.3649 O.2       11 UNK        -0.5000 
     69 N          -3.6664  -23.1052  -45.2132 N.am      12 UNK        -0.5000 
     70 CA         -4.6612  -24.1080  -44.8242 C.3       12 UNK         0.1400 
     71 CB         -5.1500  -23.7935  -43.4020 C.3       12 UNK        -0.1800 
     72 C          -4.1633  -25.5668  -44.9109 C.2       12 UNK         0.5000 
     73 O          -4.9850  -26.4678  -45.0850 O.2       12 UNK        -0.5000 
     74 N          -2.8450  -25.7724  -44.7920 N.am      13 UNK        -0.5000 
     75 CA         -2.1888  -27.0736  -44.9064 C.3       13 UNK         0.1400 
     76 CB         -1.3018  -27.2945  -43.6704 C.3       13 UNK        -0.1800 
     77 C          -1.3475  -27.1653  -46.1901 C.2       13 UNK         0.5000 
     78 O          -1.3598  -28.2051  -46.8498 O.2       13 UNK        -0.5000 
     79 N          -0.6173  -26.0896  -46.5127 N.am      14 UNK        -0.5000 
     80 CA          0.3496  -26.0421  -47.6086 C.3       14 UNK         0.1400 
     81 CB          1.3237  -24.8820  -47.3507 C.3       14 UNK        -0.1800 
     82 C          -0.2863  -25.8792  -48.9991 C.2       14 UNK         0.5000 
     83 O           0.3238  -26.2976  -49.9845 O.2       14 UNK        -0.5000 
     84 N          -1.4627  -25.2369  -49.0629 N.am      15 UNK        -0.5000 
     85 CA         -2.1709  -24.7493  -50.2532 C.3       15 UNK         0.1400 
     86 CB         -2.5687  -25.8921  -51.2079 C.3       15 UNK        -0.1800 
     87 C          -1.4049  -23.6242  -50.9761 C.2       15 UNK         0.5000 
     88 O          -1.8896  -22.4929  -51.0278 O.2       15 UNK        -0.5000 
     89 N          -0.2208  -23.9628  -51.5091 N.am      16 UNK        -0.5000 
     90 CA          0.7784  -23.0900  -52.1397 C.3       16 UNK         0.1400 
     91 CB          1.4474  -22.2135  -51.0615 C.3       16 UNK        -0.1800 
     92 C           0.2417  -22.2510  -53.3199 C.2       16 UNK         0.5000 
     93 O           0.7578  -21.1632  -53.5805 O.2       16 UNK        -0.5000 
     94 N          -0.8265  -22.7383  -53.9706 N.am      17 UNK        -0.5000 
     95 CA         -1.6930  -22.0790  -54.9609 C.3       17 UNK         0.1400 
     96 CB         -0.9127  -21.6731  -56.2248 C.3       17 UNK        -0.1800 
     97 C          -2.5006  -20.8885  -54.3993 C.2       17 UNK         0.5000 
     98 O          -3.6676  -20.7298  -54.7584 O.2       17 UNK        -0.5000 
     99 N          -1.8873  -20.1002  -53.5081 N.am      18 UNK        -0.5000 
    100 CA        -2.4241  -18.9249  -52.8247 C.3       18 UNK         0.1400 
    101 CB        -1.3727  -18.4115  -51.8326 C.3       18 UNK        -0.1800 
    102 C         -3.7714  -19.1624  -52.1207 C.2       18 UNK         0.5000 
    103 O         -4.6395  -18.2920  -52.1817 O.2       18 UNK        -0.5000 
    104 N         -3.9587  -20.3522  -51.5291 N.am      19 UNK        -0.5000 
    105 CA        -5.2114  -20.7755  -50.8945 C.3       19 UNK         0.1400 
    106 CB        -5.0187  -22.1617  -50.2638 C.3       19 UNK        -0.1800 
    107 C         -6.4236  -20.8066  -51.8483 C.2       19 UNK         0.5000 
    108 O         -7.5482  -20.5894  -51.3964 O.2       19 UNK        -0.5000 
    109 N         -6.1760  -21.0727  -53.1375 N.am      20 UNK        -0.5000 
    110 CA        -7.1880  -21.0732  -54.1913 C.3       20 UNK         0.1400 
    111 CB        -6.9058  -22.2347  -55.1574 C.3       20 UNK        -0.1800 
    112 C         -7.2090  -19.7357  -54.9495 C.2       20 UNK         0.5000 
    113 O         -8.2880  -19.2584  -55.3028 O.2       20 UNK        -0.5000 
    114 N         -6.0229  -19.1650  -55.2031 N.am      21 UNK        -0.5000 
    115 CA        -5.8360  -17.9540  -56.0021 C.3       21 UNK         0.1400 
    116 CB        -4.3527  -17.8205  -56.3780 C.3       21 UNK        -0.1800 
    117 C         -6.3363  -16.6659  -55.3232 C.2       21 UNK         0.5000 
    118 O         -6.7840  -15.7585  -56.0267 O.2       21 UNK        -0.5000 
    119 N         -6.2510  -16.5946  -53.9902 N.am      22 UNK        -0.5000 
    120 CA        -6.6264  -15.4080  -53.2044 C.3       22 UNK         0.1400 
    121 C         -7.1126  -15.7169  -51.7618 C.2       22 UNK         0.5000 
    122 N         -6.7406  -16.8333  -51.1506 N.am      22 UNK        -0.7600 
    123 O         -7.8645  -14.9319  -51.1904 O.2       22 UNK        -0.5000 
    124 C124       -5.5363  -14.3007  -53.2360 C.3       23 UNK        -0.0398 
    125 S125       -3.8842  -14.8827  -52.7124 S.3       23 UNK        -0.2404 
    126 C126       -3.8059  -14.2341  -51.0164 C.3       23 UNK        -0.0205 
    127 H127        4.6443  -14.7461  -47.3655 H         1 UNK         0.0600 
    128 H128        6.3229  -14.6878  -47.8992 H         1 UNK         0.0600 
    129 H129        5.8454  -15.8130  -46.6237 H         1 UNK         0.0600 
    130 H130        3.2520  -16.1844  -48.4015 H         1 UNK         0.3000 
    131 H131        4.1999  -17.6529  -50.7393 H         1 UNK         0.0600 
    132 H132        1.8640  -18.1496  -51.1935 H         1 UNK         0.0800 
    133 H133        1.3583  -17.6519  -49.6107 H         1 UNK         0.0800 
    134 H134        1.5387  -15.1924  -48.7264 H         1 UNK         0.0800 
    135 H135        1.0888  -13.8697  -49.7668 H         1 UNK         0.0800 
    136 H136       -1.1140  -13.8250  -50.9174 H         1 UNK         0.1150 
    137 H137       -4.2059  -16.3326  -49.3433 H         1 UNK         0.1150 
    138 H138       -0.1460  -16.9132  -48.0997 H         1 UNK         0.1150 
    139 H139       -2.7218  -17.5752  -46.7174 H         1 UNK         0.0800 
    140 H140       -3.7005  -18.1948  -48.0217 H         1 UNK         0.0800 
    141 H141       -3.5172  -20.8281  -47.8488 H         1 UNK         0.0800 
    142 H142       -3.2633  -20.1414  -46.2685 H         1 UNK         0.0800 
    143 H143       -1.3888  -22.2597  -47.4362 H         1 UNK         0.0600 
    144 H144       -1.0354  -20.7075  -45.2235 H         1 UNK         0.3000 
    145 H145       -0.2317  -22.3220  -42.6054 H         1 UNK         0.0600 
    146 H146        2.2548  -22.4821  -42.6235 H         1 UNK         0.0600 
    147 H147        1.5295  -23.8920  -43.3759 H         1 UNK         0.0600 
    148 H148        2.2502  -22.6378  -44.3764 H         1 UNK         0.0600 
    149 H149        1.4009  -20.3563  -44.0646 H         1 UNK         0.3000 
    150 H150        1.2379  -18.1647  -43.3373 H         1 UNK         0.0600 
    151 H151        0.4144  -18.5428  -45.6061 H         1 UNK         0.0600 
    152 H152       -0.0620  -16.9163  -45.1693 H         1 UNK         0.0600 
    153 H153       -1.2443  -18.2117  -45.1205 H         1 UNK         0.0600 
    154 H154       -1.2668  -16.7565  -43.0187 H         1 UNK         0.3000 
    155 H155       -1.1333  -16.2332  -39.5992 H         1 UNK         0.0600 
    156 H156        0.3046  -14.2584  -41.4508 H         1 UNK         0.0600 
    157 H157        0.9338  -14.9003  -39.9404 H         1 UNK         0.0600 
    158 H158       -0.4749  -13.8512  -39.9221 H         1 UNK         0.0600 
    159 H159       -2.0752  -14.6964  -41.9083 H         1 UNK         0.3000 
    160 H160       -5.0150  -16.4905  -42.3846 H         1 UNK         0.0600 
    161 H161       -4.9987  -13.9269  -40.7021 H         1 UNK         0.0600 
    162 H162       -5.7929  -15.4323  -40.2566 H         1 UNK         0.0600 
    163 H163       -6.3539  -14.5330  -41.6559 H         1 UNK         0.0600 
    164 H164       -4.4224  -13.8155  -43.1072 H         1 UNK         0.3000 
    165 H165       -3.8268  -14.4580  -46.1577 H         1 UNK         0.0600 
    166 H166       -3.3081  -12.0325  -45.7864 H         1 UNK         0.0600 
    167 H167       -4.5744  -12.5976  -44.7183 H         1 UNK         0.0600 
    168 H168       -2.9395  -12.3609  -44.0983 H         1 UNK         0.0600 
    169 H169       -1.7398  -14.4746  -46.8404 H         1 UNK         0.3000 
    170 H170        0.4578  -15.0097  -46.7219 H         1 UNK         0.0600 
    171 H171        0.1609  -12.6277  -47.3924 H         1 UNK         0.0600 
    172 H172        1.0920  -12.0914  -45.9979 H         1 UNK         0.0600 
    173 H173        1.8741  -13.0032  -47.2871 H         1 UNK         0.0600 
    174 H174        1.7932  -14.0703  -44.2520 H         1 UNK         0.3000 
    175 H175        4.4834  -15.1712  -44.5055 H         1 UNK         0.0600 
    176 H176        2.3228  -16.1382  -42.5491 H         1 UNK         0.0600 
    177 H177        3.9795  -15.7702  -42.0927 H         1 UNK         0.0600 
    178 H178        2.9381  -14.4945  -42.6845 H         1 UNK         0.0600 
    179 H179        3.4740  -17.8743  -44.7646 H         1 UNK         0.3000 
    180 H180        6.7199  -19.2150  -44.5394 H         1 UNK         0.0600 
    181 H181        5.6124  -21.0865  -43.3059 H         1 UNK         0.0600 
    182 H182        4.3270  -19.9941  -42.7917 H         1 UNK         0.0600 
    183 H183        5.9762  -19.7256  -42.2562 H         1 UNK         0.0600 
    184 H184        5.6163  -19.8165  -46.3310 H         1 UNK         0.3000 
    185 H185        4.0754  -21.0755  -47.5246 H         1 UNK         0.0600 
    186 H186        1.7047  -21.3954  -48.2414 H         1 UNK         0.0600 
    187 H187        1.9231  -21.9675  -46.5972 H         1 UNK         0.0600 
    188 H188        1.1344  -20.4234  -46.8937 H         1 UNK         0.0600 
    189 H189        3.0235  -18.3295  -47.4744 H         1 UNK         0.3000 
    190 H190       -3.3701  -22.4610  -44.4946 H         1 UNK         0.3000 
    191 H191       -5.5089  -24.0141  -45.5060 H         1 UNK         0.0600 
    192 H192       -5.9157  -24.5030  -43.0854 H         1 UNK         0.0600 
    193 H193       -5.5897  -22.7975  -43.3461 H         1 UNK         0.0600 
    194 H194       -4.3361  -23.8439  -42.6775 H         1 UNK         0.0600 
    195 H195       -2.2348  -24.9692  -44.6830 H         1 UNK         0.3000 
    196 H196       -2.9262  -27.8782  -44.9379 H         1 UNK         0.0600 
    197 H197       -0.5424  -26.5172  -43.5731 H         1 UNK         0.0600 
    198 H198       -1.8964  -27.2961  -42.7568 H         1 UNK         0.0600 
    199 H199       -0.7864  -28.2542  -43.7249 H         1 UNK         0.0600 
    200 H200       -0.6448  -25.2740  -45.9047 H         1 UNK         0.3000 
    201 H201        0.9205  -26.9732  -47.6096 H         1 UNK         0.0600 
    202 H202        0.8063  -23.9224  -47.3631 H         1 UNK         0.0600 
    203 H203        2.1022  -24.8444  -48.1139 H         1 UNK         0.0600 
    204 H204        1.8180  -24.9844  -46.3844 H         1 UNK         0.0600 
    205 H205       -1.8865  -24.9445  -48.1897 H         1 UNK         0.3000 
    206 H206       -3.0986  -24.3123  -49.8868 H         1 UNK         0.0600 
    207 H207       -3.1632  -26.6441  -50.6892 H         1 UNK         0.0600 
    208 H208       -3.1740  -25.5126  -52.0319 H         1 UNK         0.0600 
    209 H209       -1.7056  -26.3941  -51.6447 H         1 UNK         0.0600 
    210 H210        0.0802  -24.9197  -51.3461 H         1 UNK         0.3000 
    211 H211        1.5424  -23.7470  -52.5572 H         1 UNK         0.0600 
    212 H212        2.2833  -21.6476  -51.4742 H         1 UNK         0.0600 
    213 H213        1.8435  -22.8234  -50.2497 H         1 UNK         0.0600 
    214 H214        0.7464  -21.4962  -50.6325 H         1 UNK         0.0600 
    215 H215       -1.1676  -23.6316  -53.6454 H         1 UNK         0.3000 
    216 H216       -2.4241  -22.8326  -55.2577 H         1 UNK         0.0600 
    217 H217       -0.1863  -20.8854  -56.0240 H         1 UNK         0.0600 
    218 H218       -1.5904  -21.2988  -56.9931 H         1 UNK         0.0600 
    219 H219       -0.3785  -22.5234  -56.6484 H         1 UNK         0.0600 
    220 H220       -0.9166  -20.3236  -53.3111 H         1 UNK         0.3000 
    221 H221       -2.5778  -18.1524  -53.5782 H         1 UNK         0.0600 
    222 H222       -0.4267  -18.2003  -52.3308 H         1 UNK         0.0600 
    223 H223       -1.1813  -19.1307  -51.0350 H         1 UNK         0.0600 
    224 H224       -1.7036  -17.4828  -51.3709 H         1 UNK         0.0600 
    225 H225       -3.1894  -21.0157  -51.5069 H         1 UNK         0.3000 
    226 H226       -5.4329  -20.0618  -50.0984 H         1 UNK         0.0600 
    227 H227       -4.8154  -22.9191  -51.0216 H         1 UNK         0.0600 
    228 H228       -4.1901  -22.1657  -49.5586 H         1 UNK         0.0600 
    229 H229       -5.9102  -22.4730  -49.7180 H         1 UNK         0.0600 
    230 H230       -5.2146  -21.1877  -53.4357 H         1 UNK         0.3000 
    231 H231       -8.1798  -21.2306  -53.7620 H         1 UNK         0.0600 
    232 H232       -5.9265  -22.1419  -55.6286 H         1 UNK         0.0600 
    233 H233       -7.6511  -22.2701  -55.9530 H         1 UNK         0.0600 
    234 H234       -6.9378  -23.1932  -54.6391 H         1 UNK         0.0600 
    235 H235       -5.1774  -19.6530  -54.9202 H         1 UNK         0.3000 
    236 H236       -6.4042  -18.0769  -56.9266 H         1 UNK         0.0600 
    237 H237       -3.7284  -17.6758  -55.4973 H         1 UNK         0.0600 
    238 H238       -3.9946  -18.7067  -56.9023 H         1 UNK         0.0600 
    239 H239       -4.1924  -16.9654  -57.0359 H         1 UNK         0.0600 
    240 H240       -5.8374  -17.3621  -53.4727 H         1 UNK         0.3000 
    241 H241       -7.5114  -14.9847  -53.6841 H         1 UNK         0.0600 
    242 H242       -7.0910  -17.0232  -50.2264 H         1 UNK         0.3800 
    243 H243       -6.0214  -17.4344  -51.5494 H         1 UNK         0.3800 
    244 H244       -5.4385  -13.9234  -54.2544 H         1 UNK         0.0800 
    245 H245       -5.8373  -13.4383  -52.6387 H         1 UNK         0.0800 
    246 H246       -3.5647  -13.1706  -51.0444 H         1 UNK         0.0800 
    247 H247       -4.7832  -14.3172  -50.5390 H         1 UNK         0.0800 
@<TRIPOS>BOND
     1    1    2 1    
     2    1  127 1    
     3    1  128 1    
     4    1  129 1    
     5    2    3 2    
     6    2    4 am   BACKBONE|DICT|INTERRES
     7    4    5 1    
     8    4  130 1    
     9    5    6 1    
    10    5   65 1    
    11    5  131 1    
    12    6    7 1    
    13    6  132 1    
    14    6  133 1    
    15    7    8 1    
    16    8    9 1    
    17    8  134 1    
    18    8  135 1    
    19    9   10 ar   
    20    9   14 ar   
    21   10   11 ar   
    22   10  136 1    
    23   11   12 ar   
    24   11  126 1    
    25   12   13 ar   
    26   12  137 1    
    27   13   14 ar   
    28   13   15 1    
    29   14  138 1    
    30   15   16 1    
    31   15  139 1    
    32   15  140 1    
    33   16   17 1    
    34   17   18 1    
    35   17  141 1    
    36   17  142 1    
    37   18   19 1    
    38   18   67 1    
    39   18  143 1    
    40   19   20 am   BACKBONE|DICT|INTERRES
    41   19  144 1    
    42   20   21 2    
    43   20   22 1    
    44   22   23 1    
    45   22   24 1    
    46   22  145 1    
    47   23  146 1    
    48   23  147 1    
    49   23  148 1    
    50   24   25 am   BACKBONE|DICT|INTERRES
    51   24  149 1    
    52   25   26 2    
    53   25   27 1    
    54   27   28 1    
    55   27   29 1    
    56   27  150 1    
    57   28  151 1    
    58   28  152 1    
    59   28  153 1    
    60   29   30 am   BACKBONE|DICT|INTERRES
    61   29  154 1    
    62   30   31 2    
    63   30   32 1    
    64   32   33 1    
    65   32   34 1    
    66   32  155 1    
    67   33  156 1    
    68   33  157 1    
    69   33  158 1    
    70   34   35 am   BACKBONE|DICT|INTERRES
    71   34  159 1    
    72   35   36 2    
    73   35   37 1    
    74   37   38 1    
    75   37   39 1    
    76   37  160 1    
    77   38  161 1    
    78   38  162 1    
    79   38  163 1    
    80   39   40 am   BACKBONE|DICT|INTERRES
    81   39  164 1    
    82   40   41 2    
    83   40   42 1    
    84   42   43 1    
    85   42   44 1    
    86   42  165 1    
    87   43  166 1    
    88   43  167 1    
    89   43  168 1    
    90   44   45 am   BACKBONE|DICT|INTERRES
    91   44  169 1    
    92   45   46 2    
    93   45   47 1    
    94   47   48 1    
    95   47   49 1    
    96   47  170 1    
    97   48  171 1    
    98   48  172 1    
    99   48  173 1    
   100   49   50 am   BACKBONE|DICT|INTERRES
   101   49  174 1    
   102   50   51 2    
   103   50   52 1    
   104   52   53 1    
   105   52   54 1    
   106   52  175 1    
   107   53  176 1    
   108   53  177 1    
   109   53  178 1    
   110   54   55 am   BACKBONE|DICT|INTERRES
   111   54  179 1    
   112   55   56 2    
   113   55   57 1    
   114   57   58 1    
   115   57   59 1    
   116   57  180 1    
   117   58  181 1    
   118   58  182 1    
   119   58  183 1    
   120   59   60 am   BACKBONE|DICT|INTERRES
   121   59  184 1    
   122   60   61 2    
   123   60   62 1    
   124   62   63 1    
   125   62   64 1    
   126   62  185 1    
   127   63  186 1    
   128   63  187 1    
   129   63  188 1    
   130   64   65 am   BACKBONE|DICT|INTERRES
   131   64  189 1    
   132   65   66 2    
   133   67   68 2    
   134   67   69 am   BACKBONE|DICT|INTERRES
   135   69   70 1    
   136   69  190 1    
   137   70   71 1    
   138   70   72 1    
   139   70  191 1    
   140   71  192 1    
   141   71  193 1    
   142   71  194 1    
   143   72   73 2    
   144   72   74 am   BACKBONE|DICT|INTERRES
   145   74   75 1    
   146   74  195 1    
   147   75   76 1    
   148   75   77 1    
   149   75  196 1    
   150   76  197 1    
   151   76  198 1    
   152   76  199 1    
   153   77   78 2    
   154   77   79 am   BACKBONE|DICT|INTERRES
   155   79   80 1    
   156   79  200 1    
   157   80   81 1    
   158   80   82 1    
   159   80  201 1    
   160   81  202 1    
   161   81  203 1    
   162   81  204 1    
   163   82   83 2    
   164   82   84 am   BACKBONE|DICT|INTERRES
   165   84   85 1    
   166   84  205 1    
   167   85   86 1    
   168   85   87 1    
   169   85  206 1    
   170   86  207 1    
   171   86  208 1    
   172   86  209 1    
   173   87   88 2    
   174   87   89 am   BACKBONE|DICT|INTERRES
   175   89   90 1    
   176   89  210 1    
   177   90   91 1    
   178   90   92 1    
   179   90  211 1    
   180   91  212 1    
   181   91  213 1    
   182   91  214 1    
   183   92   93 2    
   184   92   94 am   BACKBONE|DICT|INTERRES
   185   94   95 1    
   186   94  215 1    
   187   95   96 1    
   188   95   97 1    
   189   95  216 1    
   190   96  217 1    
   191   96  218 1    
   192   96  219 1    
   193   97   98 2    
   194   97   99 am   BACKBONE|DICT|INTERRES
   195   99  100 1    
   196   99  220 1    
   197  100  101 1    
   198  100  102 1    
   199  100  221 1    
   200  101  222 1    
   201  101  223 1    
   202  101  224 1    
   203  102  103 2    
   204  102  104 am   BACKBONE|DICT|INTERRES
   205  104  105 1    
   206  104  225 1    
   207  105  106 1    
   208  105  107 1    
   209  105  226 1    
   210  106  227 1    
   211  106  228 1    
   212  106  229 1    
   213  107  108 2    
   214  107  109 am   BACKBONE|DICT|INTERRES
   215  109  110 1    
   216  109  230 1    
   217  110  111 1    
   218  110  112 1    
   219  110  231 1    
   220  111  232 1    
   221  111  233 1    
   222  111  234 1    
   223  112  113 2    
   224  112  114 am   BACKBONE|DICT|INTERRES
   225  114  115 1    
   226  114  235 1    
   227  115  116 1    
   228  115  117 1    
   229  115  236 1    
   230  116  237 1    
   231  116  238 1    
   232  116  239 1    
   233  117  118 2    
   234  117  119 am   BACKBONE|DICT|INTERRES
   235  119  120 1    
   236  119  240 1    
   237  120  121 1    
   238  120  124 1    
   239  120  241 1    
   240  121  122 am   BACKBONE|DICT|INTERRES
   241  121  123 2    
   242  122  242 1    
   243  122  243 1    
   244  124  125 1    
   245  124  244 1    
   246  124  245 1    
   247  125  126 1    
   248  126  246 1    
   249  126  247 1    
@<TRIPOS>SUBSTRUCTURE
     1 UNK         1 GROUP             0       ****    0 ROOT    
