@<TRIPOS>MOLECULE
3R540
247   249    1
SMALL
USER_CHARGES


@<TRIPOS>ATOM
      1 CA          5.5771  -17.5352  -43.5091 C.3       0 UNK        -0.1800 
      2 C           5.3725  -17.2125  -44.9815 C.2       0 UNK         0.5000 
      3 O           6.3213  -16.8114  -45.6557 O.2       0 UNK        -0.5000 
      4 N           4.1370  -17.3760  -45.4777 N.am      1 UNK        -0.5000 
      5 CA          3.6735  -17.1400  -46.8540 C.3       1 UNK         0.1400 
      6 C6          4.3822  -18.0469  -47.9177 C.3       23 UNK        -0.0398 
      7 S7          4.4903  -17.4379  -49.6463 S.3       23 UNK        -0.2404 
      8 C8          3.5930  -18.7225  -50.5905 C.3       23 UNK        -0.0205 
      9 C9          2.0643  -18.6539  -50.5531 C.ar      23 UNK        -0.0193 
     10 C10         1.3410  -19.4707  -51.4284 C.ar      23 UNK        -0.1150 
     11 C11        -0.0571  -19.4751  -51.4193 C.ar      23 UNK        -0.0193 
     12 C12        -0.7406  -18.6524  -50.5210 C.ar      23 UNK        -0.1150 
     13 C13        -0.0352  -17.8253  -49.6441 C.ar      23 UNK        -0.0193 
     14 C14         1.3593  -17.8214  -49.6765 C.ar      23 UNK        -0.1150 
     15 C15        -0.7675  -16.9490  -48.6399 C.3       23 UNK        -0.0205 
     16 S16        -0.5941  -17.5895  -46.9423 S.3       23 UNK        -0.2404 
     17 C17        -1.3845  -19.2238  -47.1012 C.3       23 UNK        -0.0398 
     18 CA         -0.3577  -20.3799  -47.1709 C.3       11 UNK         0.1400 
     19 N           0.4484  -20.5107  -45.9520 N.am      11 UNK        -0.5000 
     20 C           1.4782  -21.3590  -45.8119 C.2       10 UNK         0.5000 
     21 O           1.9268  -22.0475  -46.7273 O.2       10 UNK        -0.5000 
     22 CA          2.0675  -21.5138  -44.4005 C.3       10 UNK         0.1400 
     23 CB          3.1725  -20.4800  -44.1464 C.3       10 UNK        -0.1800 
     24 N           1.0344  -21.4063  -43.3698 N.am      10 UNK        -0.5000 
     25 C           0.1453  -22.3727  -43.0971 C.2       9 UNK         0.5000 
     26 O           0.1385  -23.4671  -43.6587 O.2       9 UNK        -0.5000 
     27 CA         -0.9435  -22.0533  -42.0541 C.3       9 UNK         0.1400 
     28 CB         -0.4370  -22.3536  -40.6358 C.3       9 UNK        -0.1800 
     29 N          -1.4054  -20.6664  -42.1190 N.am      9 UNK        -0.5000 
     30 C          -2.0496  -20.1299  -43.1645 C.2       8 UNK         0.5000 
     31 O          -2.3884  -20.7757  -44.1557 O.2       8 UNK        -0.5000 
     32 CA         -2.3159  -18.6115  -43.1229 C.3       8 UNK         0.1400 
     33 CB         -3.7271  -18.3317  -42.5870 C.3       8 UNK        -0.1800 
     34 N          -1.3381  -17.8417  -42.3456 N.am      8 UNK        -0.5000 
     35 C          -0.0157  -17.8157  -42.5732 C.2       7 UNK         0.5000 
     36 O           0.5375  -18.5032  -43.4334 O.2       7 UNK        -0.5000 
     37 CA          0.8121  -16.8698  -41.6868 C.3       7 UNK         0.1400 
     38 CB          2.2506  -16.6812  -42.1978 C.3       7 UNK        -0.1800 
     39 N           0.1447  -15.5741  -41.6070 N.am      7 UNK        -0.5000 
     40 C          -0.0748  -14.8733  -40.4866 C.2       6 UNK         0.5000 
     41 O           0.3343  -15.2207  -39.3781 O.2       6 UNK        -0.5000 
     42 CA         -0.9057  -13.5760  -40.6043 C.3       6 UNK         0.1400 
     43 CB         -0.0219  -12.3349  -40.4161 C.3       6 UNK        -0.1800 
     44 N          -1.6304  -13.4609  -41.8721 N.am      6 UNK        -0.5000 
     45 C          -2.7128  -14.1854  -42.1899 C.2       5 UNK         0.5000 
     46 O          -3.2577  -14.9643  -41.4074 O.2       5 UNK        -0.5000 
     47 CA         -3.2624  -14.0562  -43.6261 C.3       5 UNK         0.1400 
     48 CB         -4.4846  -13.1263  -43.6502 C.3       5 UNK        -0.1800 
     49 N          -2.2925  -13.5911  -44.6238 N.am      5 UNK        -0.5000 
     50 C          -1.1341  -14.1921  -44.9295 C.2       4 UNK         0.5000 
     51 O          -0.7182  -15.1920  -44.3458 O.2       4 UNK        -0.5000 
     52 CA         -0.2751  -13.5720  -46.0496 C.3       4 UNK         0.1400 
     53 CB         -0.8902  -12.3186  -46.7115 C.3       4 UNK        -0.1800 
     54 N           1.0879  -13.2948  -45.5923 N.am      4 UNK        -0.5000 
     55 C           1.4595  -12.5004  -44.5750 C.2       3 UNK         0.5000 
     56 O           0.6607  -11.8784  -43.8728 O.2       3 UNK        -0.5000 
     57 CA          2.9708  -12.3755  -44.2763 C.3       3 UNK         0.1400 
     58 CB          3.3048  -12.9283  -42.8825 C.3       3 UNK        -0.1800 
     59 N           3.8143  -13.0586  -45.2578 N.am      3 UNK        -0.5000 
     60 C           4.1377  -12.5774  -46.4654 C.2       2 UNK         0.5000 
     61 O           3.8153  -11.4580  -46.8642 O.2       2 UNK        -0.5000 
     62 CA          4.9348  -13.5158  -47.3934 C.3       2 UNK         0.1400 
     63 CB          6.4321  -13.1772  -47.3449 C.3       2 UNK        -0.1800 
     64 N           4.7625  -14.9402  -47.0919 N.am      2 UNK        -0.5000 
     65 C           3.6179  -15.6291  -47.1849 C.2       1 UNK         0.5000 
     66 O           2.5401  -15.1094  -47.4755 O.2       1 UNK        -0.5000 
     67 C          -1.0631  -21.7074  -47.5111 C.2       11 UNK         0.5000 
     68 O          -0.9315  -22.1907  -48.6339 O.2       11 UNK        -0.5000 
     69 N          -1.7448  -22.2966  -46.5173 N.am      12 UNK        -0.5000 
     70 CA         -2.4303  -23.5859  -46.6221 C.3       12 UNK         0.1400 
     71 CB         -3.2366  -23.8366  -45.3395 C.3       12 UNK        -0.1800 
     72 C          -1.4822  -24.7670  -46.9058 C.2       12 UNK         0.5000 
     73 O          -1.8697  -25.6939  -47.6171 O.2       12 UNK        -0.5000 
     74 N          -0.2577  -24.7129  -46.3625 N.am      13 UNK        -0.5000 
     75 CA          0.8051  -25.6805  -46.6359 C.3       13 UNK         0.1400 
     76 CB          1.9371  -25.5151  -45.6112 C.3       13 UNK        -0.1800 
     77 C           1.3504  -25.5703  -48.0721 C.2       13 UNK         0.5000 
     78 O           1.6687  -26.5974  -48.6729 O.2       13 UNK        -0.5000 
     79 N           1.4409  -24.3402  -48.5994 N.am      14 UNK        -0.5000 
     80 CA          1.8500  -24.0579  -49.9751 C.3       14 UNK         0.1400 
     81 CB          2.1664  -22.5638  -50.1346 C.3       14 UNK        -0.1800 
     82 C           0.8012  -24.5286  -50.9996 C.2       14 UNK         0.5000 
     83 O           1.1666  -25.1963  -51.9684 O.2       14 UNK        -0.5000 
     84 N          -0.4781  -24.2241  -50.7474 N.am      15 UNK        -0.5000 
     85 CA         -1.6171  -24.7608  -51.4855 C.3       15 UNK         0.1400 
     86 CB         -1.7951  -24.0394  -52.8350 C.3       15 UNK        -0.1800 
     87 C          -2.8785  -24.6100  -50.6312 C.2       15 UNK         0.5000 
     88 O          -3.1464  -23.5178  -50.1323 O.2       15 UNK        -0.5000 
     89 N          -3.6759  -25.6807  -50.5247 N.am      16 UNK        -0.5000 
     90 CA         -4.9480  -25.6873  -49.7903 C.3       16 UNK         0.1400 
     91 CB         -5.4738  -27.1281  -49.7098 C.3       16 UNK        -0.1800 
     92 C          -6.0140  -24.7533  -50.4023 C.2       16 UNK         0.5000 
     93 O          -6.9143  -24.3027  -49.6945 O.2       16 UNK        -0.5000 
     94 N          -5.8661  -24.4549  -51.6991 N.am      17 UNK        -0.5000 
     95 CA         -6.6904  -23.5329  -52.4754 C.3       17 UNK         0.1400 
     96 CB         -6.7471  -24.0405  -53.9270 C.3       17 UNK        -0.1800 
     97 C          -6.1978  -22.0710  -52.4007 C.2       17 UNK         0.5000 
     98 O          -6.5214  -21.2886  -53.2929 O.2       17 UNK        -0.5000 
     99 N          -5.4301  -21.7002  -51.3625 N.am      18 UNK        -0.5000 
    100 CA        -4.8886  -20.3527  -51.1224 C.3       18 UNK         0.1400 
    101 CB        -4.1696  -20.3250  -49.7649 C.3       18 UNK        -0.1800 
    102 C         -5.9277  -19.2141  -51.1921 C.2       18 UNK         0.5000 
    103 O         -5.6172  -18.1389  -51.7048 O.2       18 UNK        -0.5000 
    104 N         -7.1537  -19.4910  -50.7267 N.am      19 UNK        -0.5000 
    105 CA        -8.3062  -18.5874  -50.7914 C.3       19 UNK         0.1400 
    106 CB        -9.4192  -19.1464  -49.8916 C.3       19 UNK        -0.1800 
    107 C         -8.8403  -18.3496  -52.2213 C.2       19 UNK         0.5000 
    108 O         -9.5421  -17.3628  -52.4443 O.2       19 UNK        -0.5000 
    109 N         -8.4961  -19.2401  -53.1596 N.am      20 UNK        -0.5000 
    110 CA        -8.8409  -19.1852  -54.5782 C.3       20 UNK         0.1400 
    111 CB        -9.5644  -20.4895  -54.9605 C.3       20 UNK        -0.1800 
    112 C         -7.5684  -18.9464  -55.4150 C.2       20 UNK         0.5000 
    113 O         -7.3767  -19.5846  -56.4522 O.2       20 UNK        -0.5000 
    114 N         -6.7031  -18.0432  -54.9275 N.am      21 UNK        -0.5000 
    115 CA        -5.4446  -17.5954  -55.5380 C.3       21 UNK         0.1400 
    116 CB        -5.7287  -16.7699  -56.8104 C.3       21 UNK        -0.1800 
    117 C         -4.4297  -18.7351  -55.7753 C.2       21 UNK         0.5000 
    118 O         -3.6978  -18.7156  -56.7666 O.2       21 UNK        -0.5000 
    119 N         -4.4165  -19.7073  -54.8548 N.am      22 UNK        -0.5000 
    120 CA        -3.5855  -20.9247  -54.8703 C.3       22 UNK         0.1400 
    121 C         -4.0480  -21.9975  -55.9027 C.2       22 UNK         0.5000 
    122 N         -5.2122  -21.8668  -56.5294 N.am      22 UNK        -0.7600 
    123 O         -3.3546  -22.9874  -56.1181 O.2       22 UNK        -0.5000 
    124 C124       -2.0520  -20.6589  -54.9388 C.3       23 UNK        -0.0398 
    125 S125       -1.4581  -19.3779  -53.7780 S.3       23 UNK        -0.2404 
    126 C126       -0.8299  -20.3602  -52.3832 C.3       23 UNK        -0.0205 
    127 H127        4.8659  -18.2824  -43.1600 H         1 UNK         0.0600 
    128 H128        5.4594  -16.6346  -42.9064 H         1 UNK         0.0600 
    129 H129        6.5802  -17.9287  -43.3437 H         1 UNK         0.0600 
    130 H130        3.4077  -17.6731  -44.8454 H         1 UNK         0.3000 
    131 H131        2.6297  -17.4586  -46.8361 H         1 UNK         0.0600 
    132 H132        5.4129  -18.2398  -47.6222 H         1 UNK         0.0800 
    133 H133        3.9068  -19.0287  -47.9126 H         1 UNK         0.0800 
    134 H134        3.9123  -18.6419  -51.6306 H         1 UNK         0.0800 
    135 H135        3.9137  -19.7082  -50.2506 H         1 UNK         0.0800 
    136 H136        1.8705  -20.1099  -52.1208 H         1 UNK         0.1150 
    137 H137       -1.8205  -18.6538  -50.5129 H         1 UNK         0.1150 
    138 H138        1.8784  -17.1672  -48.9982 H         1 UNK         0.1150 
    139 H139       -0.3592  -15.9385  -48.6819 H         1 UNK         0.0800 
    140 H140       -1.8257  -16.8651  -48.8922 H         1 UNK         0.0800 
    141 H141       -2.0176  -19.2214  -47.9882 H         1 UNK         0.0800 
    142 H142       -2.0652  -19.3551  -46.2623 H         1 UNK         0.0800 
    143 H143        0.3327  -20.1702  -47.9907 H         1 UNK         0.0600 
    144 H144        0.1738  -19.9455  -45.1585 H         1 UNK         0.3000 
    145 H145        2.5200  -22.5052  -44.3337 H         1 UNK         0.0600 
    146 H146        3.6233  -20.6185  -43.1637 H         1 UNK         0.0600 
    147 H147        2.7894  -19.4631  -44.1998 H         1 UNK         0.0600 
    148 H148        3.9685  -20.5698  -44.8868 H         1 UNK         0.0600 
    149 H149        0.9212  -20.4956  -42.9420 H         1 UNK         0.3000 
    150 H150       -1.7976  -22.7030  -42.2569 H         1 UNK         0.0600 
    151 H151       -0.1041  -23.3891  -40.5520 H         1 UNK         0.0600 
    152 H152       -1.2241  -22.2057  -39.8962 H         1 UNK         0.0600 
    153 H153        0.4046  -21.7151  -40.3642 H         1 UNK         0.0600 
    154 H154       -1.1672  -20.0667  -41.3433 H         1 UNK         0.3000 
    155 H155       -2.2652  -18.2449  -44.1496 H         1 UNK         0.0600 
    156 H156       -4.4770  -18.8945  -43.1448 H         1 UNK         0.0600 
    157 H157       -3.9833  -17.2769  -42.6802 H         1 UNK         0.0600 
    158 H158       -3.8210  -18.6095  -41.5365 H         1 UNK         0.0600 
    159 H159       -1.7125  -17.2326  -41.6318 H         1 UNK         0.3000 
    160 H160        0.8571  -17.3353  -40.7004 H         1 UNK         0.0600 
    161 H161        2.2653  -16.2553  -43.2018 H         1 UNK         0.0600 
    162 H162        2.7754  -17.6357  -42.2311 H         1 UNK         0.0600 
    163 H163        2.8191  -16.0248  -41.5393 H         1 UNK         0.0600 
    164 H164       -0.2454  -15.2448  -42.4875 H         1 UNK         0.3000 
    165 H165       -1.6363  -13.5900  -39.7927 H         1 UNK         0.0600 
    166 H166       -0.6192  -11.4230  -40.4090 H         1 UNK         0.0600 
    167 H167        0.5190  -12.3764  -39.4698 H         1 UNK         0.0600 
    168 H168        0.7148  -12.2450  -41.2120 H         1 UNK         0.0600 
    169 H169       -1.2214  -12.8606  -42.5767 H         1 UNK         0.3000 
    170 H170       -3.5864  -15.0527  -43.9329 H         1 UNK         0.0600 
    171 H171       -4.2153  -12.1028  -43.3863 H         1 UNK         0.0600 
    172 H172       -4.9494  -13.1090  -44.6362 H         1 UNK         0.0600 
    173 H173       -5.2443  -13.4591  -42.9414 H         1 UNK         0.0600 
    174 H174       -2.5415  -12.7545  -45.1310 H         1 UNK         0.3000 
    175 H175       -0.1857  -14.3403  -46.8180 H         1 UNK         0.0600 
    176 H176       -1.0230  -11.4997  -46.0036 H         1 UNK         0.0600 
    177 H177       -0.2511  -11.9548  -47.5163 H         1 UNK         0.0600 
    178 H178       -1.8615  -12.5415  -47.1548 H         1 UNK         0.0600 
    179 H179        1.8085  -13.7946  -46.1015 H         1 UNK         0.3000 
    180 H180        3.2171  -11.3117  -44.2851 H         1 UNK         0.0600 
    181 H181        4.3767  -12.8928  -42.6867 H         1 UNK         0.0600 
    182 H182        2.9757  -13.9602  -42.7713 H         1 UNK         0.0600 
    183 H183        2.8202  -12.3408  -42.1036 H         1 UNK         0.0600 
    184 H184        4.1270  -13.9879  -45.0196 H         1 UNK         0.3000 
    185 H185        4.5769  -13.3474  -48.4112 H         1 UNK         0.0600 
    186 H186        6.9946  -13.7743  -48.0629 H         1 UNK         0.0600 
    187 H187        6.6053  -12.1283  -47.5894 H         1 UNK         0.0600 
    188 H188        6.8525  -13.3586  -46.3549 H         1 UNK         0.0600 
    189 H189        5.5856  -15.4499  -46.7818 H         1 UNK         0.3000 
    190 H190       -1.8305  -21.8134  -45.6264 H         1 UNK         0.3000 
    191 H191       -3.1321  -23.5186  -47.4552 H         1 UNK         0.0600 
    192 H192       -3.9666  -23.0444  -45.1717 H         1 UNK         0.0600 
    193 H193       -2.5901  -23.8868  -44.4627 H         1 UNK         0.0600 
    194 H194       -3.7848  -24.7776  -45.3998 H         1 UNK         0.0600 
    195 H195       -0.0399  -23.9629  -45.7174 H         1 UNK         0.3000 
    196 H196        0.3881  -26.6826  -46.5152 H         1 UNK         0.0600 
    197 H197        1.5716  -25.6485  -44.5930 H         1 UNK         0.0600 
    198 H198        2.3998  -24.5309  -45.6771 H         1 UNK         0.0600 
    199 H199        2.7207  -26.2560  -45.7742 H         1 UNK         0.0600 
    200 H200        1.2009  -23.5401  -48.0248 H         1 UNK         0.3000 
    201 H201        2.7716  -24.6112  -50.1679 H         1 UNK         0.0600 
    202 H202        2.9524  -22.2507  -49.4472 H         1 UNK         0.0600 
    203 H203        1.2931  -21.9414  -49.9444 H         1 UNK         0.0600 
    204 H204        2.5116  -22.3462  -51.1457 H         1 UNK         0.0600 
    205 H205       -0.7118  -23.6388  -49.9462 H         1 UNK         0.3000 
    206 H206       -1.4424  -25.8231  -51.6692 H         1 UNK         0.0600 
    207 H207       -2.0329  -22.9862  -52.6953 H         1 UNK         0.0600 
    208 H208       -0.8982  -24.1027  -53.4508 H         1 UNK         0.0600 
    209 H209       -2.6111  -24.4810  -53.4082 H         1 UNK         0.0600 
    210 H210       -3.4008  -26.5501  -50.9584 H         1 UNK         0.3000 
    211 H211       -4.7505  -25.3375  -48.7746 H         1 UNK         0.0600 
    212 H212       -5.6680  -27.5420  -50.7001 H         1 UNK         0.0600 
    213 H213       -6.4067  -27.1728  -49.1462 H         1 UNK         0.0600 
    214 H214       -4.7602  -27.7802  -49.2056 H         1 UNK         0.0600 
    215 H215       -5.0830  -24.8664  -52.1845 H         1 UNK         0.3000 
    216 H216       -7.7078  -23.5413  -52.0796 H         1 UNK         0.0600 
    217 H217       -7.3947  -23.4158  -54.5434 H         1 UNK         0.0600 
    218 H218       -7.1432  -25.0550  -53.9736 H         1 UNK         0.0600 
    219 H219       -5.7595  -24.0457  -54.3890 H         1 UNK         0.0600 
    220 H220       -5.1517  -22.4106  -50.6982 H         1 UNK         0.3000 
    221 H221       -4.1471  -20.1522  -51.8967 H         1 UNK         0.0600 
    222 H222       -4.8031  -20.7073  -48.9639 H         1 UNK         0.0600 
    223 H223       -3.2595  -20.9237  -49.7882 H         1 UNK         0.0600 
    224 H224       -3.8794  -19.3094  -49.4944 H         1 UNK         0.0600 
    225 H225       -7.3182  -20.4053  -50.3312 H         1 UNK         0.3000 
    226 H226       -7.9988  -17.6180  -50.3938 H         1 UNK         0.0600 
    227 H227       -9.0806  -19.2466  -48.8602 H         1 UNK         0.0600 
    228 H228      -10.2863  -18.4845  -49.8839 H         1 UNK         0.0600 
    229 H229       -9.7572  -20.1260  -50.2321 H         1 UNK         0.0600 
    230 H230       -7.8569  -19.9905  -52.9137 H         1 UNK         0.3000 
    231 H231       -9.5155  -18.3511  -54.7796 H         1 UNK         0.0600 
    232 H232       -9.8839  -20.4709  -56.0031 H         1 UNK         0.0600 
    233 H233      -10.4559  -20.6376  -54.3512 H         1 UNK         0.0600 
    234 H234       -8.9198  -21.3592  -54.8277 H         1 UNK         0.0600 
    235 H235       -6.9264  -17.6187  -54.0377 H         1 UNK         0.3000 
    236 H236       -4.9772  -16.9288  -54.8117 H         1 UNK         0.0600 
    237 H237       -6.1499  -17.3856  -57.6058 H         1 UNK         0.0600 
    238 H238       -6.4288  -15.9597  -56.6068 H         1 UNK         0.0600 
    239 H239       -4.8148  -16.3168  -57.1964 H         1 UNK         0.0600 
    240 H240       -5.1162  -19.6750  -54.1260 H         1 UNK         0.3000 
    241 H241       -3.7640  -21.3967  -53.9057 H         1 UNK         0.0600 
    242 H242       -5.5005  -22.5734  -57.1865 H         1 UNK         0.3800 
    243 H243       -5.8098  -21.0664  -56.3621 H         1 UNK         0.3800 
    244 H244       -1.7721  -20.3432  -55.9446 H         1 UNK         0.0800 
    245 H245       -1.4983  -21.5815  -54.7594 H         1 UNK         0.0800 
    246 H246       -1.6622  -20.8316  -51.8590 H         1 UNK         0.0800 
    247 H247       -0.1923  -21.1657  -52.7509 H         1 UNK         0.0800 
@<TRIPOS>BOND
     1    1    2 1    
     2    1  127 1    
     3    1  128 1    
     4    1  129 1    
     5    2    3 2    
     6    2    4 am   BACKBONE|DICT|INTERRES
     7    4    5 1    
     8    4  130 1    
     9    5    6 1    
    10    5   65 1    
    11    5  131 1    
    12    6    7 1    
    13    6  132 1    
    14    6  133 1    
    15    7    8 1    
    16    8    9 1    
    17    8  134 1    
    18    8  135 1    
    19    9   10 ar   
    20    9   14 ar   
    21   10   11 ar   
    22   10  136 1    
    23   11   12 ar   
    24   11  126 1    
    25   12   13 ar   
    26   12  137 1    
    27   13   14 ar   
    28   13   15 1    
    29   14  138 1    
    30   15   16 1    
    31   15  139 1    
    32   15  140 1    
    33   16   17 1    
    34   17   18 1    
    35   17  141 1    
    36   17  142 1    
    37   18   19 1    
    38   18   67 1    
    39   18  143 1    
    40   19   20 am   BACKBONE|DICT|INTERRES
    41   19  144 1    
    42   20   21 2    
    43   20   22 1    
    44   22   23 1    
    45   22   24 1    
    46   22  145 1    
    47   23  146 1    
    48   23  147 1    
    49   23  148 1    
    50   24   25 am   BACKBONE|DICT|INTERRES
    51   24  149 1    
    52   25   26 2    
    53   25   27 1    
    54   27   28 1    
    55   27   29 1    
    56   27  150 1    
    57   28  151 1    
    58   28  152 1    
    59   28  153 1    
    60   29   30 am   BACKBONE|DICT|INTERRES
    61   29  154 1    
    62   30   31 2    
    63   30   32 1    
    64   32   33 1    
    65   32   34 1    
    66   32  155 1    
    67   33  156 1    
    68   33  157 1    
    69   33  158 1    
    70   34   35 am   BACKBONE|DICT|INTERRES
    71   34  159 1    
    72   35   36 2    
    73   35   37 1    
    74   37   38 1    
    75   37   39 1    
    76   37  160 1    
    77   38  161 1    
    78   38  162 1    
    79   38  163 1    
    80   39   40 am   BACKBONE|DICT|INTERRES
    81   39  164 1    
    82   40   41 2    
    83   40   42 1    
    84   42   43 1    
    85   42   44 1    
    86   42  165 1    
    87   43  166 1    
    88   43  167 1    
    89   43  168 1    
    90   44   45 am   BACKBONE|DICT|INTERRES
    91   44  169 1    
    92   45   46 2    
    93   45   47 1    
    94   47   48 1    
    95   47   49 1    
    96   47  170 1    
    97   48  171 1    
    98   48  172 1    
    99   48  173 1    
   100   49   50 am   BACKBONE|DICT|INTERRES
   101   49  174 1    
   102   50   51 2    
   103   50   52 1    
   104   52   53 1    
   105   52   54 1    
   106   52  175 1    
   107   53  176 1    
   108   53  177 1    
   109   53  178 1    
   110   54   55 am   BACKBONE|DICT|INTERRES
   111   54  179 1    
   112   55   56 2    
   113   55   57 1    
   114   57   58 1    
   115   57   59 1    
   116   57  180 1    
   117   58  181 1    
   118   58  182 1    
   119   58  183 1    
   120   59   60 am   BACKBONE|DICT|INTERRES
   121   59  184 1    
   122   60   61 2    
   123   60   62 1    
   124   62   63 1    
   125   62   64 1    
   126   62  185 1    
   127   63  186 1    
   128   63  187 1    
   129   63  188 1    
   130   64   65 am   BACKBONE|DICT|INTERRES
   131   64  189 1    
   132   65   66 2    
   133   67   68 2    
   134   67   69 am   BACKBONE|DICT|INTERRES
   135   69   70 1    
   136   69  190 1    
   137   70   71 1    
   138   70   72 1    
   139   70  191 1    
   140   71  192 1    
   141   71  193 1    
   142   71  194 1    
   143   72   73 2    
   144   72   74 am   BACKBONE|DICT|INTERRES
   145   74   75 1    
   146   74  195 1    
   147   75   76 1    
   148   75   77 1    
   149   75  196 1    
   150   76  197 1    
   151   76  198 1    
   152   76  199 1    
   153   77   78 2    
   154   77   79 am   BACKBONE|DICT|INTERRES
   155   79   80 1    
   156   79  200 1    
   157   80   81 1    
   158   80   82 1    
   159   80  201 1    
   160   81  202 1    
   161   81  203 1    
   162   81  204 1    
   163   82   83 2    
   164   82   84 am   BACKBONE|DICT|INTERRES
   165   84   85 1    
   166   84  205 1    
   167   85   86 1    
   168   85   87 1    
   169   85  206 1    
   170   86  207 1    
   171   86  208 1    
   172   86  209 1    
   173   87   88 2    
   174   87   89 am   BACKBONE|DICT|INTERRES
   175   89   90 1    
   176   89  210 1    
   177   90   91 1    
   178   90   92 1    
   179   90  211 1    
   180   91  212 1    
   181   91  213 1    
   182   91  214 1    
   183   92   93 2    
   184   92   94 am   BACKBONE|DICT|INTERRES
   185   94   95 1    
   186   94  215 1    
   187   95   96 1    
   188   95   97 1    
   189   95  216 1    
   190   96  217 1    
   191   96  218 1    
   192   96  219 1    
   193   97   98 2    
   194   97   99 am   BACKBONE|DICT|INTERRES
   195   99  100 1    
   196   99  220 1    
   197  100  101 1    
   198  100  102 1    
   199  100  221 1    
   200  101  222 1    
   201  101  223 1    
   202  101  224 1    
   203  102  103 2    
   204  102  104 am   BACKBONE|DICT|INTERRES
   205  104  105 1    
   206  104  225 1    
   207  105  106 1    
   208  105  107 1    
   209  105  226 1    
   210  106  227 1    
   211  106  228 1    
   212  106  229 1    
   213  107  108 2    
   214  107  109 am   BACKBONE|DICT|INTERRES
   215  109  110 1    
   216  109  230 1    
   217  110  111 1    
   218  110  112 1    
   219  110  231 1    
   220  111  232 1    
   221  111  233 1    
   222  111  234 1    
   223  112  113 2    
   224  112  114 am   BACKBONE|DICT|INTERRES
   225  114  115 1    
   226  114  235 1    
   227  115  116 1    
   228  115  117 1    
   229  115  236 1    
   230  116  237 1    
   231  116  238 1    
   232  116  239 1    
   233  117  118 2    
   234  117  119 am   BACKBONE|DICT|INTERRES
   235  119  120 1    
   236  119  240 1    
   237  120  121 1    
   238  120  124 1    
   239  120  241 1    
   240  121  122 am   BACKBONE|DICT|INTERRES
   241  121  123 2    
   242  122  242 1    
   243  122  243 1    
   244  124  125 1    
   245  124  244 1    
   246  124  245 1    
   247  125  126 1    
   248  126  246 1    
   249  126  247 1    
@<TRIPOS>SUBSTRUCTURE
     1 UNK         1 GROUP             0       ****    0 ROOT    
