@<TRIPOS>MOLECULE
3R540
247   249    1
SMALL
USER_CHARGES


@<TRIPOS>ATOM
      1 CA          3.5644  -12.6629  -43.7003 C.3       0 UNK        -0.1800 
      2 C           2.8469  -12.9692  -45.0062 C.2       0 UNK         0.5000 
      3 O           2.0903  -12.1348  -45.5007 O.2       0 UNK        -0.5000 
      4 N           3.1027  -14.1501  -45.5850 N.am      1 UNK        -0.5000 
      5 CA          2.4726  -14.6724  -46.8085 C.3       1 UNK         0.1400 
      6 C6          2.6574  -16.2027  -46.9400 C.3       23 UNK        -0.0398 
      7 S7          4.3927  -16.7759  -46.9978 S.3       23 UNK        -0.2404 
      8 C8          4.6570  -17.0827  -48.7760 C.3       23 UNK        -0.0205 
      9 C9          3.7789  -18.2032  -49.3158 C.ar      23 UNK        -0.0193 
     10 C10         2.6416  -17.8999  -50.0688 C.ar      23 UNK        -0.1150 
     11 C11         1.8154  -18.9169  -50.5545 C.ar      23 UNK        -0.0193 
     12 C12         2.1517  -20.2505  -50.3062 C.ar      23 UNK        -0.1150 
     13 C13         3.3012  -20.5698  -49.5777 C.ar      23 UNK        -0.0193 
     14 C14         4.1081  -19.5414  -49.0796 C.ar      23 UNK        -0.1150 
     15 C15         3.6859  -22.0247  -49.3519 C.3       23 UNK        -0.0205 
     16 S16         3.3244  -22.5712  -47.6561 S.3       23 UNK        -0.2404 
     17 C17         1.4990  -22.6278  -47.6448 C.3       23 UNK        -0.0398 
     18 CA          0.9564  -23.9663  -47.0891 C.3       11 UNK         0.1400 
     19 N           1.4829  -24.2662  -45.7546 N.am      11 UNK        -0.5000 
     20 C           1.4047  -25.4532  -45.1417 C.2       10 UNK         0.5000 
     21 O           0.8557  -26.4399  -45.6286 O.2       10 UNK        -0.5000 
     22 CA          2.0062  -25.5347  -43.7280 C.3       10 UNK         0.1400 
     23 CB          3.5309  -25.7065  -43.7964 C.3       10 UNK        -0.1800 
     24 N           1.6830  -24.3578  -42.9203 N.am      10 UNK        -0.5000 
     25 C           0.4475  -24.0518  -42.5012 C.2       9 UNK         0.5000 
     26 O          -0.5412  -24.7529  -42.7176 O.2       9 UNK        -0.5000 
     27 CA          0.2828  -22.7152  -41.7529 C.3       9 UNK         0.1400 
     28 CB          0.5978  -22.8912  -40.2599 C.3       9 UNK        -0.1800 
     29 N           1.0894  -21.6138  -42.2939 N.am      9 UNK        -0.5000 
     30 C           1.0163  -21.1610  -43.5523 C.2       8 UNK         0.5000 
     31 O           0.3476  -21.7020  -44.4349 O.2       8 UNK        -0.5000 
     32 CA          1.8403  -19.9079  -43.8969 C.3       8 UNK         0.1400 
     33 CB          3.2483  -20.2953  -44.3700 C.3       8 UNK        -0.1800 
     34 N           1.1754  -19.1471  -44.9548 N.am      8 UNK        -0.5000 
     35 C           0.0785  -18.4076  -44.7578 C.2       7 UNK         0.5000 
     36 O          -0.3961  -18.1627  -43.6447 O.2       7 UNK        -0.5000 
     37 CA         -0.6177  -17.8641  -46.0109 C.3       7 UNK         0.1400 
     38 CB         -1.6311  -18.8805  -46.5596 C.3       7 UNK        -0.1800 
     39 N          -1.2988  -16.6300  -45.6430 N.am      7 UNK        -0.5000 
     40 C          -1.5224  -15.5928  -46.4518 C.2       6 UNK         0.5000 
     41 O          -1.2139  -15.5737  -47.6429 O.2       6 UNK        -0.5000 
     42 CA         -2.1572  -14.3586  -45.7937 C.3       6 UNK         0.1400 
     43 CB         -1.0808  -13.4915  -45.1229 C.3       6 UNK        -0.1800 
     44 N          -2.8547  -13.5471  -46.7869 N.am      6 UNK        -0.5000 
     45 C          -4.1753  -13.5809  -47.0046 C.2       5 UNK         0.5000 
     46 O          -4.9482  -14.3044  -46.3746 O.2       5 UNK        -0.5000 
     47 CA         -4.7525  -12.6333  -48.0756 C.3       5 UNK         0.1400 
     48 CB         -5.5438  -11.4943  -47.4123 C.3       5 UNK        -0.1800 
     49 N          -3.7330  -12.0430  -48.9422 N.am      5 UNK        -0.5000 
     50 C          -3.2076  -12.6457  -50.0149 C.2       4 UNK         0.5000 
     51 O          -3.5376  -13.7666  -50.4047 O.2       4 UNK        -0.5000 
     52 CA         -2.1320  -11.8598  -50.7892 C.3       4 UNK         0.1400 
     53 CB         -2.7803  -11.0550  -51.9260 C.3       4 UNK        -0.1800 
     54 N          -1.3096  -10.9554  -49.9776 N.am      4 UNK        -0.5000 
     55 C          -0.5311  -11.3356  -48.9570 C.2       3 UNK         0.5000 
     56 O          -0.5373  -12.4688  -48.4763 O.2       3 UNK        -0.5000 
     57 CA          0.4090  -10.2727  -48.3652 C.3       3 UNK         0.1400 
     58 CB         -0.0822   -9.8187  -46.9820 C.3       3 UNK        -0.1800 
     59 N           1.7529  -10.8332  -48.2459 N.am      3 UNK        -0.5000 
     60 C           2.5957  -10.9919  -49.2791 C.2       2 UNK         0.5000 
     61 O           2.4004  -10.5094  -50.3955 O.2       2 UNK        -0.5000 
     62 CA          3.8563  -11.8509  -49.0410 C.3       2 UNK         0.1400 
     63 CB          5.0497  -10.9660  -48.6513 C.3       2 UNK        -0.1800 
     64 N           3.6524  -12.8604  -48.0035 N.am      2 UNK        -0.5000 
     65 C           2.8280  -13.9121  -48.1097 C.2       1 UNK         0.5000 
     66 O           2.3325  -14.2706  -49.1784 O.2       1 UNK        -0.5000 
     67 C          -0.5840  -23.9717  -47.0899 C.2       11 UNK         0.5000 
     68 O          -1.1985  -24.4926  -48.0215 O.2       11 UNK        -0.5000 
     69 N          -1.1836  -23.4161  -46.0293 N.am      12 UNK        -0.5000 
     70 CA         -2.6229  -23.4130  -45.7820 C.3       12 UNK         0.1400 
     71 CB         -2.9229  -22.5439  -44.5529 C.3       12 UNK        -0.1800 
     72 C          -3.2042  -24.8275  -45.6094 C.2       12 UNK         0.5000 
     73 O          -4.3284  -25.0712  -46.0447 O.2       12 UNK        -0.5000 
     74 N          -2.4252  -25.7330  -45.0050 N.am      13 UNK        -0.5000 
     75 CA         -2.7750  -27.1401  -44.8442 C.3       13 UNK         0.1400 
     76 CB         -1.9661  -27.7383  -43.6817 C.3       13 UNK        -0.1800 
     77 C          -2.5609  -27.9448  -46.1391 C.2       13 UNK         0.5000 
     78 O          -3.4861  -28.6189  -46.5930 O.2       13 UNK        -0.5000 
     79 N          -1.3414  -27.8896  -46.6918 N.am      14 UNK        -0.5000 
     80 CA         -0.8971  -28.7711  -47.7724 C.3       14 UNK         0.1400 
     81 CB          0.6365  -28.8678  -47.7511 C.3       14 UNK        -0.1800 
     82 C          -1.3804  -28.3440  -49.1672 C.2       14 UNK         0.5000 
     83 O          -1.7606  -29.2070  -49.9597 O.2       14 UNK        -0.5000 
     84 N          -1.3309  -27.0378  -49.4560 N.am      15 UNK        -0.5000 
     85 CA         -1.6081  -26.4753  -50.7813 C.3       15 UNK         0.1400 
     86 CB         -0.4602  -25.5216  -51.1595 C.3       15 UNK        -0.1800 
     87 C          -2.9617  -25.7465  -50.8467 C.2       15 UNK         0.5000 
     88 O          -3.3390  -25.2910  -51.9269 O.2       15 UNK        -0.5000 
     89 N          -3.6526  -25.6254  -49.7016 N.am      16 UNK        -0.5000 
     90 CA         -4.8920  -24.8651  -49.4931 C.3       16 UNK         0.1400 
     91 CB         -6.0610  -25.4634  -50.3032 C.3       16 UNK        -0.1800 
     92 C          -4.7085  -23.3517  -49.7373 C.2       16 UNK         0.5000 
     93 O          -5.6542  -22.6726  -50.1407 O.2       16 UNK        -0.5000 
     94 N          -3.4915  -22.8448  -49.4852 N.am      17 UNK        -0.5000 
     95 CA         -3.0508  -21.4844  -49.8083 C.3       17 UNK         0.1400 
     96 CB         -1.5759  -21.3349  -49.4154 C.3       17 UNK        -0.1800 
     97 C          -3.8997  -20.3636  -49.1788 C.2       17 UNK         0.5000 
     98 O          -4.0822  -19.3207  -49.8032 O.2       17 UNK        -0.5000 
     99 N          -4.4412  -20.6110  -47.9785 N.am      18 UNK        -0.5000 
    100 CA        -5.3336  -19.6891  -47.2729 C.3       18 UNK         0.1400 
    101 CB        -5.5021  -20.1631  -45.8216 C.3       18 UNK        -0.1800 
    102 C         -6.7099  -19.5307  -47.9500 C.2       18 UNK         0.5000 
    103 O         -7.3188  -18.4672  -47.8319 O.2       18 UNK        -0.5000 
    104 N         -7.1736  -20.5803  -48.6420 N.am      19 UNK        -0.5000 
    105 CA        -8.4264  -20.5829  -49.3960 C.3       19 UNK         0.1400 
    106 CB        -9.0311  -21.9958  -49.3733 C.3       19 UNK        -0.1800 
    107 C         -8.2047  -20.1092  -50.8415 C.2       19 UNK         0.5000 
    108 O         -9.0278  -19.3605  -51.3692 O.2       19 UNK        -0.5000 
    109 N         -7.0969  -20.5513  -51.4525 N.am      20 UNK        -0.5000 
    110 CA        -6.7112  -20.2223  -52.8254 C.3       20 UNK         0.1400 
    111 CB        -5.6067  -21.1921  -53.2732 C.3       20 UNK        -0.1800 
    112 C         -6.2511  -18.7622  -53.0082 C.2       20 UNK         0.5000 
    113 O         -6.4069  -18.2232  -54.1050 O.2       20 UNK        -0.5000 
    114 N         -5.6995  -18.1700  -51.9380 N.am      21 UNK        -0.5000 
    115 CA        -5.0220  -16.8719  -51.8477 C.3       21 UNK         0.1400 
    116 CB        -5.8962  -15.7187  -52.3825 C.3       21 UNK        -0.1800 
    117 C         -3.6248  -16.8933  -52.4999 C.2       21 UNK         0.5000 
    118 O         -3.3254  -17.7515  -53.3345 O.2       21 UNK        -0.5000 
    119 N         -2.7852  -15.9410  -52.0855 N.am      22 UNK        -0.5000 
    120 CA        -1.3654  -15.8354  -52.4625 C.3       22 UNK         0.1400 
    121 C         -1.0503  -14.5784  -53.3222 C.2       22 UNK         0.5000 
    122 N         -2.0428  -13.8568  -53.8284 N.am      22 UNK        -0.7600 
    123 O          0.1115  -14.2608  -53.5593 O.2       22 UNK        -0.5000 
    124 C124       -0.4436  -15.9548  -51.2187 C.3       23 UNK        -0.0398 
    125 S125       -0.6166  -17.5841  -50.4104 S.3       23 UNK        -0.2404 
    126 C126        0.5729  -18.5800  -51.3646 C.3       23 UNK        -0.0205 
    127 H127        2.8376  -12.4888  -42.9070 H         1 UNK         0.0600 
    128 H128        4.1738  -11.7657  -43.8087 H         1 UNK         0.0600 
    129 H129        4.2148  -13.4820  -43.3928 H         1 UNK         0.0600 
    130 H130        3.7703  -14.7738  -45.1528 H         1 UNK         0.3000 
    131 H131        1.4002  -14.5086  -46.6884 H         1 UNK         0.0600 
    132 H132        2.2088  -16.6763  -46.0679 H         1 UNK         0.0800 
    133 H133        2.0936  -16.5828  -47.7910 H         1 UNK         0.0800 
    134 H134        4.4887  -16.1599  -49.3329 H         1 UNK         0.0800 
    135 H135        5.7049  -17.3417  -48.9336 H         1 UNK         0.0800 
    136 H136        2.3875  -16.8671  -50.2618 H         1 UNK         0.1150 
    137 H137        1.5252  -21.0422  -50.6921 H         1 UNK         0.1150 
    138 H138        4.9929  -19.7831  -48.5073 H         1 UNK         0.1150 
    139 H139        3.1804  -22.6791  -50.0638 H         1 UNK         0.0800 
    140 H140        4.7543  -22.1443  -49.5374 H         1 UNK         0.0800 
    141 H141        1.1391  -21.7827  -47.0555 H         1 UNK         0.0800 
    142 H142        1.1296  -22.4726  -48.6588 H         1 UNK         0.0800 
    143 H143        1.2809  -24.7648  -47.7601 H         1 UNK         0.0600 
    144 H144        1.9087  -23.4946  -45.2635 H         1 UNK         0.3000 
    145 H145        1.5846  -26.4140  -43.2361 H         1 UNK         0.0600 
    146 H146        3.9577  -25.8379  -42.8020 H         1 UNK         0.0600 
    147 H147        3.7976  -26.5871  -44.3825 H         1 UNK         0.0600 
    148 H148        4.0152  -24.8455  -44.2591 H         1 UNK         0.0600 
    149 H149        2.4383  -23.7250  -42.7022 H         1 UNK         0.3000 
    150 H150       -0.7651  -22.4226  -41.8437 H         1 UNK         0.0600 
    151 H151       -0.0019  -23.6925  -39.8257 H         1 UNK         0.0600 
    152 H152        0.3761  -21.9826  -39.6997 H         1 UNK         0.0600 
    153 H153        1.6469  -23.1403  -40.0957 H         1 UNK         0.0600 
    154 H154        1.6759  -21.1249  -41.6331 H         1 UNK         0.3000 
    155 H155        1.9283  -19.2817  -43.0065 H         1 UNK         0.0600 
    156 H156        3.8378  -19.4120  -44.6175 H         1 UNK         0.0600 
    157 H157        3.2145  -20.9307  -45.2538 H         1 UNK         0.0600 
    158 H158        3.7878  -20.8397  -43.5942 H         1 UNK         0.0600 
    159 H159        1.4819  -19.3375  -45.8971 H         1 UNK         0.3000 
    160 H160        0.1339  -17.6632  -46.7759 H         1 UNK         0.0600 
    161 H161       -2.4391  -19.0634  -45.8514 H         1 UNK         0.0600 
    162 H162       -1.1503  -19.8373  -46.7616 H         1 UNK         0.0600 
    163 H163       -2.0723  -18.5295  -47.4927 H         1 UNK         0.0600 
    164 H164       -1.5229  -16.5669  -44.6573 H         1 UNK         0.3000 
    165 H165       -2.8528  -14.6953  -45.0220 H         1 UNK         0.0600 
    166 H166       -0.3704  -13.1056  -45.8530 H         1 UNK         0.0600 
    167 H167       -1.5248  -12.6386  -44.6097 H         1 UNK         0.0600 
    168 H168       -0.5156  -14.0595  -44.3830 H         1 UNK         0.0600 
    169 H169       -2.2580  -13.0320  -47.4251 H         1 UNK         0.3000 
    170 H170       -5.4456  -13.2157  -48.6867 H         1 UNK         0.0600 
    171 H171       -6.3439  -11.8871  -46.7835 H         1 UNK         0.0600 
    172 H172       -4.9050  -10.8747  -46.7817 H         1 UNK         0.0600 
    173 H173       -6.0076  -10.8492  -48.1588 H         1 UNK         0.0600 
    174 H174       -3.3977  -11.1240  -48.6936 H         1 UNK         0.3000 
    175 H175       -1.4567  -12.5947  -51.2291 H         1 UNK         0.0600 
    176 H176       -3.4005  -10.2444  -51.5414 H         1 UNK         0.0600 
    177 H177       -2.0256  -10.6208  -52.5819 H         1 UNK         0.0600 
    178 H178       -3.4191  -11.6881  -52.5430 H         1 UNK         0.0600 
    179 H179       -1.2540   -9.9998  -50.2996 H         1 UNK         0.3000 
    180 H180        0.4399   -9.4018  -49.0234 H         1 UNK         0.0600 
    181 H181       -0.1418  -10.6515  -46.2804 H         1 UNK         0.0600 
    182 H182       -1.0755   -9.3733  -47.0474 H         1 UNK         0.0600 
    183 H183        0.5842   -9.0698  -46.5539 H         1 UNK         0.0600 
    184 H184        1.9586  -11.3008  -47.3688 H         1 UNK         0.3000 
    185 H185        4.0952  -12.3619  -49.9761 H         1 UNK         0.0600 
    186 H186        5.9588  -11.5570  -48.5379 H         1 UNK         0.0600 
    187 H187        5.2446  -10.2148  -49.4178 H         1 UNK         0.0600 
    188 H188        4.8710  -10.4393  -47.7130 H         1 UNK         0.0600 
    189 H189        4.0153  -12.6445  -47.0868 H         1 UNK         0.3000 
    190 H190       -0.6038  -22.9476  -45.3347 H         1 UNK         0.3000 
    191 H191       -3.1077  -22.9593  -46.6468 H         1 UNK         0.0600 
    192 H192       -3.9955  -22.4879  -44.3646 H         1 UNK         0.0600 
    193 H193       -2.5583  -21.5258  -44.6911 H         1 UNK         0.0600 
    194 H194       -2.4537  -22.9454  -43.6548 H         1 UNK         0.0600 
    195 H195       -1.5319  -25.4370  -44.6317 H         1 UNK         0.3000 
    196 H196       -3.8324  -27.2095  -44.5794 H         1 UNK         0.0600 
    197 H197       -2.2067  -28.7925  -43.5392 H         1 UNK         0.0600 
    198 H198       -2.1873  -27.2245  -42.7460 H         1 UNK         0.0600 
    199 H199       -0.8916  -27.6658  -43.8525 H         1 UNK         0.0600 
    200 H200       -0.6234  -27.3101  -46.2610 H         1 UNK         0.3000 
    201 H201       -1.2904  -29.7720  -47.5807 H         1 UNK         0.0600 
    202 H202        0.9958  -29.2260  -46.7861 H         1 UNK         0.0600 
    203 H203        1.1043  -27.9016  -47.9441 H         1 UNK         0.0600 
    204 H204        0.9953  -29.5634  -48.5107 H         1 UNK         0.0600 
    205 H205       -1.0542  -26.3731  -48.7412 H         1 UNK         0.3000 
    206 H206       -1.6392  -27.2665  -51.5330 H         1 UNK         0.0600 
    207 H207        0.5033  -26.0300  -51.1205 H         1 UNK         0.0600 
    208 H208       -0.5848  -25.1438  -52.1750 H         1 UNK         0.0600 
    209 H209       -0.4100  -24.6580  -50.4967 H         1 UNK         0.0600 
    210 H210       -3.2408  -26.0289  -48.8719 H         1 UNK         0.3000 
    211 H211       -5.1480  -24.9719  -48.4408 H         1 UNK         0.0600 
    212 H212       -5.9364  -25.3086  -51.3752 H         1 UNK         0.0600 
    213 H213       -7.0078  -25.0035  -50.0180 H         1 UNK         0.0600 
    214 H214       -6.1560  -26.5346  -50.1262 H         1 UNK         0.0600 
    215 H215       -2.7761  -23.4796  -49.1504 H         1 UNK         0.3000 
    216 H216       -3.1216  -21.3702  -50.8912 H         1 UNK         0.0600 
    217 H217       -1.4298  -21.5043  -48.3502 H         1 UNK         0.0600 
    218 H218       -1.2086  -20.3343  -49.6378 H         1 UNK         0.0600 
    219 H219       -0.9498  -22.0406  -49.9611 H         1 UNK         0.0600 
    220 H220       -4.2676  -21.5037  -47.5455 H         1 UNK         0.3000 
    221 H221       -4.8614  -18.7042  -47.2566 H         1 UNK         0.0600 
    222 H222       -6.1781  -19.5067  -45.2720 H         1 UNK         0.0600 
    223 H223       -5.9118  -21.1727  -45.7713 H         1 UNK         0.0600 
    224 H224       -4.5506  -20.1567  -45.2919 H         1 UNK         0.0600 
    225 H225       -6.5844  -21.3963  -48.7500 H         1 UNK         0.3000 
    226 H226       -9.1421  -19.9060  -48.9242 H         1 UNK         0.0600 
    227 H227       -9.2249  -22.3242  -48.3521 H         1 UNK         0.0600 
    228 H228       -9.9810  -22.0209  -49.9088 H         1 UNK         0.0600 
    229 H229       -8.3724  -22.7283  -49.8409 H         1 UNK         0.0600 
    230 H230       -6.5030  -21.2140  -50.9607 H         1 UNK         0.3000 
    231 H231       -7.5807  -20.3780  -53.4675 H         1 UNK         0.0600 
    232 H232       -5.3285  -21.0142  -54.3127 H         1 UNK         0.0600 
    233 H233       -5.9336  -22.2293  -53.1949 H         1 UNK         0.0600 
    234 H234       -4.7064  -21.0782  -52.6692 H         1 UNK         0.0600 
    235 H235       -5.5520  -18.7538  -51.1222 H         1 UNK         0.3000 
    236 H236       -4.8704  -16.7037  -50.7800 H         1 UNK         0.0600 
    237 H237       -6.8995  -15.7539  -51.9581 H         1 UNK         0.0600 
    238 H238       -5.4678  -14.7517  -52.1183 H         1 UNK         0.0600 
    239 H239       -5.9871  -15.7422  -53.4685 H         1 UNK         0.0600 
    240 H240       -3.1087  -15.2458  -51.4151 H         1 UNK         0.3000 
    241 H241       -1.1069  -16.6640  -53.1233 H         1 UNK         0.0600 
    242 H242       -3.0003  -14.1273  -53.6719 H         1 UNK         0.3800 
    243 H243       -1.8313  -13.0585  -54.4055 H         1 UNK         0.3800 
    244 H244        0.6044  -15.8016  -51.4800 H         1 UNK         0.0800 
    245 H245       -0.6869  -15.1811  -50.4878 H         1 UNK         0.0800 
    246 H246        0.8685  -18.0613  -52.2772 H         1 UNK         0.0800 
    247 H247        0.0674  -19.4909  -51.6882 H         1 UNK         0.0800 
@<TRIPOS>BOND
     1    1    2 1    
     2    1  127 1    
     3    1  128 1    
     4    1  129 1    
     5    2    3 2    
     6    2    4 am   BACKBONE|DICT|INTERRES
     7    4    5 1    
     8    4  130 1    
     9    5    6 1    
    10    5   65 1    
    11    5  131 1    
    12    6    7 1    
    13    6  132 1    
    14    6  133 1    
    15    7    8 1    
    16    8    9 1    
    17    8  134 1    
    18    8  135 1    
    19    9   10 ar   
    20    9   14 ar   
    21   10   11 ar   
    22   10  136 1    
    23   11   12 ar   
    24   11  126 1    
    25   12   13 ar   
    26   12  137 1    
    27   13   14 ar   
    28   13   15 1    
    29   14  138 1    
    30   15   16 1    
    31   15  139 1    
    32   15  140 1    
    33   16   17 1    
    34   17   18 1    
    35   17  141 1    
    36   17  142 1    
    37   18   19 1    
    38   18   67 1    
    39   18  143 1    
    40   19   20 am   BACKBONE|DICT|INTERRES
    41   19  144 1    
    42   20   21 2    
    43   20   22 1    
    44   22   23 1    
    45   22   24 1    
    46   22  145 1    
    47   23  146 1    
    48   23  147 1    
    49   23  148 1    
    50   24   25 am   BACKBONE|DICT|INTERRES
    51   24  149 1    
    52   25   26 2    
    53   25   27 1    
    54   27   28 1    
    55   27   29 1    
    56   27  150 1    
    57   28  151 1    
    58   28  152 1    
    59   28  153 1    
    60   29   30 am   BACKBONE|DICT|INTERRES
    61   29  154 1    
    62   30   31 2    
    63   30   32 1    
    64   32   33 1    
    65   32   34 1    
    66   32  155 1    
    67   33  156 1    
    68   33  157 1    
    69   33  158 1    
    70   34   35 am   BACKBONE|DICT|INTERRES
    71   34  159 1    
    72   35   36 2    
    73   35   37 1    
    74   37   38 1    
    75   37   39 1    
    76   37  160 1    
    77   38  161 1    
    78   38  162 1    
    79   38  163 1    
    80   39   40 am   BACKBONE|DICT|INTERRES
    81   39  164 1    
    82   40   41 2    
    83   40   42 1    
    84   42   43 1    
    85   42   44 1    
    86   42  165 1    
    87   43  166 1    
    88   43  167 1    
    89   43  168 1    
    90   44   45 am   BACKBONE|DICT|INTERRES
    91   44  169 1    
    92   45   46 2    
    93   45   47 1    
    94   47   48 1    
    95   47   49 1    
    96   47  170 1    
    97   48  171 1    
    98   48  172 1    
    99   48  173 1    
   100   49   50 am   BACKBONE|DICT|INTERRES
   101   49  174 1    
   102   50   51 2    
   103   50   52 1    
   104   52   53 1    
   105   52   54 1    
   106   52  175 1    
   107   53  176 1    
   108   53  177 1    
   109   53  178 1    
   110   54   55 am   BACKBONE|DICT|INTERRES
   111   54  179 1    
   112   55   56 2    
   113   55   57 1    
   114   57   58 1    
   115   57   59 1    
   116   57  180 1    
   117   58  181 1    
   118   58  182 1    
   119   58  183 1    
   120   59   60 am   BACKBONE|DICT|INTERRES
   121   59  184 1    
   122   60   61 2    
   123   60   62 1    
   124   62   63 1    
   125   62   64 1    
   126   62  185 1    
   127   63  186 1    
   128   63  187 1    
   129   63  188 1    
   130   64   65 am   BACKBONE|DICT|INTERRES
   131   64  189 1    
   132   65   66 2    
   133   67   68 2    
   134   67   69 am   BACKBONE|DICT|INTERRES
   135   69   70 1    
   136   69  190 1    
   137   70   71 1    
   138   70   72 1    
   139   70  191 1    
   140   71  192 1    
   141   71  193 1    
   142   71  194 1    
   143   72   73 2    
   144   72   74 am   BACKBONE|DICT|INTERRES
   145   74   75 1    
   146   74  195 1    
   147   75   76 1    
   148   75   77 1    
   149   75  196 1    
   150   76  197 1    
   151   76  198 1    
   152   76  199 1    
   153   77   78 2    
   154   77   79 am   BACKBONE|DICT|INTERRES
   155   79   80 1    
   156   79  200 1    
   157   80   81 1    
   158   80   82 1    
   159   80  201 1    
   160   81  202 1    
   161   81  203 1    
   162   81  204 1    
   163   82   83 2    
   164   82   84 am   BACKBONE|DICT|INTERRES
   165   84   85 1    
   166   84  205 1    
   167   85   86 1    
   168   85   87 1    
   169   85  206 1    
   170   86  207 1    
   171   86  208 1    
   172   86  209 1    
   173   87   88 2    
   174   87   89 am   BACKBONE|DICT|INTERRES
   175   89   90 1    
   176   89  210 1    
   177   90   91 1    
   178   90   92 1    
   179   90  211 1    
   180   91  212 1    
   181   91  213 1    
   182   91  214 1    
   183   92   93 2    
   184   92   94 am   BACKBONE|DICT|INTERRES
   185   94   95 1    
   186   94  215 1    
   187   95   96 1    
   188   95   97 1    
   189   95  216 1    
   190   96  217 1    
   191   96  218 1    
   192   96  219 1    
   193   97   98 2    
   194   97   99 am   BACKBONE|DICT|INTERRES
   195   99  100 1    
   196   99  220 1    
   197  100  101 1    
   198  100  102 1    
   199  100  221 1    
   200  101  222 1    
   201  101  223 1    
   202  101  224 1    
   203  102  103 2    
   204  102  104 am   BACKBONE|DICT|INTERRES
   205  104  105 1    
   206  104  225 1    
   207  105  106 1    
   208  105  107 1    
   209  105  226 1    
   210  106  227 1    
   211  106  228 1    
   212  106  229 1    
   213  107  108 2    
   214  107  109 am   BACKBONE|DICT|INTERRES
   215  109  110 1    
   216  109  230 1    
   217  110  111 1    
   218  110  112 1    
   219  110  231 1    
   220  111  232 1    
   221  111  233 1    
   222  111  234 1    
   223  112  113 2    
   224  112  114 am   BACKBONE|DICT|INTERRES
   225  114  115 1    
   226  114  235 1    
   227  115  116 1    
   228  115  117 1    
   229  115  236 1    
   230  116  237 1    
   231  116  238 1    
   232  116  239 1    
   233  117  118 2    
   234  117  119 am   BACKBONE|DICT|INTERRES
   235  119  120 1    
   236  119  240 1    
   237  120  121 1    
   238  120  124 1    
   239  120  241 1    
   240  121  122 am   BACKBONE|DICT|INTERRES
   241  121  123 2    
   242  122  242 1    
   243  122  243 1    
   244  124  125 1    
   245  124  244 1    
   246  124  245 1    
   247  125  126 1    
   248  126  246 1    
   249  126  247 1    
@<TRIPOS>SUBSTRUCTURE
     1 UNK         1 GROUP             0       ****    0 ROOT    
