@<TRIPOS>MOLECULE
3R540
247   249    1
SMALL
USER_CHARGES


@<TRIPOS>ATOM
      1 CA         -3.9803  -11.0396  -45.8713 C.3       0 UNK        -0.1800 
      2 C          -2.6353  -11.7505  -45.8480 C.2       0 UNK         0.5000 
      3 O          -1.7100  -11.2866  -45.1834 O.2       0 UNK        -0.5000 
      4 N          -2.5264  -12.8829  -46.5568 N.am      1 UNK        -0.5000 
      5 CA         -1.3133  -13.7066  -46.6762 C.3       1 UNK         0.1400 
      6 C6         -1.5366  -14.8739  -47.6696 C.3       23 UNK        -0.0398 
      7 S7          0.0068  -15.5284  -48.3831 S.3       23 UNK        -0.2404 
      8 C8         -0.6813  -16.8123  -49.4718 C.3       23 UNK        -0.0205 
      9 C9          0.4066  -17.5219  -50.2594 C.ar      23 UNK        -0.0193 
     10 C10         0.6325  -17.2011  -51.6007 C.ar      23 UNK        -0.1150 
     11 C11         1.6127  -17.8745  -52.3354 C.ar      23 UNK        -0.0193 
     12 C12         2.3727  -18.8701  -51.7142 C.ar      23 UNK        -0.1150 
     13 C13         2.1668  -19.1914  -50.3684 C.ar      23 UNK        -0.0193 
     14 C14         1.1804  -18.5108  -49.6470 C.ar      23 UNK        -0.1150 
     15 C15         3.0372  -20.2466  -49.6973 C.3       23 UNK        -0.0205 
     16 S16         2.0951  -21.7284  -49.2110 S.3       23 UNK        -0.2404 
     17 C17         1.8405  -21.3946  -47.4362 C.3       23 UNK        -0.0398 
     18 CA          0.6817  -22.1925  -46.7978 C.3       11 UNK         0.1400 
     19 N           0.7338  -22.1089  -45.3377 N.am      11 UNK        -0.5000 
     20 C          -0.0226  -22.8222  -44.4936 C.2       10 UNK         0.5000 
     21 O          -0.8205  -23.6875  -44.8527 O.2       10 UNK        -0.5000 
     22 CA          0.0980  -22.4687  -42.9998 C.3       10 UNK         0.1400 
     23 CB          1.3363  -23.1293  -42.3764 C.3       10 UNK        -0.1800 
     24 N           0.1441  -21.0230  -42.7713 N.am      10 UNK        -0.5000 
     25 C          -0.8553  -20.1791  -43.0649 C.2       9 UNK         0.5000 
     26 O          -1.9444  -20.5398  -43.5096 O.2       9 UNK        -0.5000 
     27 CA         -0.5773  -18.6778  -42.8752 C.3       9 UNK         0.1400 
     28 CB         -0.6827  -18.2881  -41.3920 C.3       9 UNK        -0.1800 
     29 N           0.7269  -18.2756  -43.4069 N.am      9 UNK        -0.5000 
     30 C           1.0799  -18.3504  -44.6991 C.2       8 UNK         0.5000 
     31 O           0.3188  -18.7081  -45.5948 O.2       8 UNK        -0.5000 
     32 CA          2.5479  -18.0482  -45.0458 C.3       8 UNK         0.1400 
     33 CB          2.7781  -16.5455  -45.2537 C.3       8 UNK        -0.1800 
     34 N           3.4637  -18.5617  -44.0277 N.am      8 UNK        -0.5000 
     35 C           3.6917  -19.8653  -43.8108 C.2       7 UNK         0.5000 
     36 O           3.1874  -20.7662  -44.4802 O.2       7 UNK        -0.5000 
     37 CA          4.5936  -20.2206  -42.6149 C.3       7 UNK         0.1400 
     38 CB          6.0755  -20.1273  -43.0071 C.3       7 UNK        -0.1800 
     39 N           4.3419  -19.3607  -41.4580 N.am      7 UNK        -0.5000 
     40 C           3.1994  -19.3494  -40.7559 C.2       6 UNK         0.5000 
     41 O           2.2666  -20.1245  -40.9633 O.2       6 UNK        -0.5000 
     42 CA          3.0566  -18.2499  -39.6843 C.3       6 UNK         0.1400 
     43 CB          3.5926  -18.7405  -38.3316 C.3       6 UNK        -0.1800 
     44 N           3.7384  -17.0058  -40.0580 N.am      6 UNK        -0.5000 
     45 C           3.3899  -16.2421  -41.1016 C.2       5 UNK         0.5000 
     46 O           2.4159  -16.4736  -41.8219 O.2       5 UNK        -0.5000 
     47 CA          4.3390  -15.0892  -41.4508 C.3       5 UNK         0.1400 
     48 CB          5.5703  -15.6455  -42.1987 C.3       5 UNK        -0.1800 
     49 N           3.6268  -14.1215  -42.2810 N.am      5 UNK        -0.5000 
     50 C           4.0907  -12.9287  -42.6737 C.2       4 UNK         0.5000 
     51 O           5.1902  -12.4777  -42.3496 O.2       4 UNK        -0.5000 
     52 CA          3.1675  -12.0865  -43.5720 C.3       4 UNK         0.1400 
     53 CB          3.2765  -12.5353  -45.0373 C.3       4 UNK        -0.1800 
     54 N           1.7682  -12.1281  -43.1450 N.am      4 UNK        -0.5000 
     55 C           1.3016  -11.5089  -42.0485 C.2       3 UNK         0.5000 
     56 O           2.0140  -10.8552  -41.2853 O.2       3 UNK        -0.5000 
     57 CA         -0.2074  -11.6092  -41.7495 C.3       3 UNK         0.1400 
     58 CB         -0.9108  -10.2803  -42.0669 C.3       3 UNK        -0.1800 
     59 N          -0.8627  -12.6904  -42.4855 N.am      3 UNK        -0.5000 
     60 C          -0.8009  -13.9799  -42.1245 C.2       2 UNK         0.5000 
     61 O          -0.2377  -14.3669  -41.1008 O.2       2 UNK        -0.5000 
     62 CA         -1.4632  -15.0192  -43.0512 C.3       2 UNK         0.1400 
     63 CB         -2.7721  -15.5403  -42.4378 C.3       2 UNK        -0.1800 
     64 N          -1.7368  -14.5459  -44.4080 N.am      2 UNK        -0.5000 
     65 C          -0.8016  -14.2148  -45.3091 C.2       1 UNK         0.5000 
     66 O           0.4050  -14.2381  -45.0706 O.2       1 UNK        -0.5000 
     67 C          -0.7033  -21.7799  -47.3437 C.2       11 UNK         0.5000 
     68 O          -1.2677  -22.5095  -48.1567 O.2       11 UNK        -0.5000 
     69 N          -1.2579  -20.6651  -46.8445 N.am      12 UNK        -0.5000 
     70 CA         -2.6007  -20.1805  -47.1713 C.3       12 UNK         0.1400 
     71 CB         -2.8354  -18.8121  -46.5113 C.3       12 UNK        -0.1800 
     72 C          -3.7080  -21.1719  -46.7681 C.2       12 UNK         0.5000 
     73 O          -4.6268  -21.4063  -47.5529 O.2       12 UNK        -0.5000 
     74 N          -3.5847  -21.7640  -45.5719 N.am      13 UNK        -0.5000 
     75 CA         -4.4877  -22.7963  -45.0614 C.3       13 UNK         0.1400 
     76 CB         -4.1649  -23.0828  -43.5873 C.3       13 UNK        -0.1800 
     77 C          -4.4485  -24.0905  -45.8956 C.2       13 UNK         0.5000 
     78 O          -5.5016  -24.6758  -46.1499 O.2       13 UNK        -0.5000 
     79 N          -3.2462  -24.4962  -46.3282 N.am      14 UNK        -0.5000 
     80 CA         -3.0271  -25.6358  -47.2197 C.3       14 UNK         0.1400 
     81 CB         -1.5324  -25.9908  -47.2421 C.3       14 UNK        -0.1800 
     82 C          -3.5537  -25.3829  -48.6454 C.2       14 UNK         0.5000 
     83 O          -4.1405  -26.2863  -49.2427 O.2       14 UNK        -0.5000 
     84 N          -3.3474  -24.1611  -49.1573 N.am      15 UNK        -0.5000 
     85 CA         -3.8333  -23.6990  -50.4581 C.3       15 UNK         0.1400 
     86 CB         -3.1845  -22.3484  -50.7929 C.3       15 UNK        -0.1800 
     87 C          -5.3672  -23.5907  -50.5249 C.2       15 UNK         0.5000 
     88 O          -5.9432  -23.8790  -51.5754 O.2       15 UNK        -0.5000 
     89 N          -5.9900  -23.1922  -49.4053 N.am      16 UNK        -0.5000 
     90 CA         -7.4296  -23.0804  -49.1617 C.3       16 UNK         0.1400 
     91 CB         -8.0767  -24.4814  -49.1057 C.3       16 UNK        -0.1800 
     92 C          -8.1131  -22.1227  -50.1571 C.2       16 UNK         0.5000 
     93 O          -8.0963  -20.9108  -49.9386 O.2       16 UNK        -0.5000 
     94 N          -8.6793  -22.6762  -51.2384 N.am      17 UNK        -0.5000 
     95 CA         -9.2627  -21.9349  -52.3582 C.3       17 UNK         0.1400 
     96 CB        -10.0539  -22.9114  -53.2423 C.3       17 UNK        -0.1800 
     97 C          -8.2160  -21.1769  -53.2006 C.2       17 UNK         0.5000 
     98 O          -8.5755  -20.2047  -53.8652 O.2       17 UNK        -0.5000 
     99 N          -6.9528  -21.6330  -53.1570 N.am      18 UNK        -0.5000 
    100 CA        -5.7723  -21.0465  -53.8035 C.3       18 UNK         0.1400 
    101 CB        -5.4625  -19.6571  -53.2081 C.3       18 UNK        -0.1800 
    102 C         -5.8366  -21.0461  -55.3456 C.2       18 UNK         0.5000 
    103 O         -5.2156  -20.1998  -55.9898 O.2       18 UNK        -0.5000 
    104 N         -6.5731  -22.0128  -55.9127 N.am      19 UNK        -0.5000 
    105 CA        -6.7503  -22.1968  -57.3553 C.3       19 UNK         0.1400 
    106 CB        -7.9108  -23.1742  -57.5951 C.3       19 UNK        -0.1800 
    107 C         -5.4730  -22.6867  -58.0643 C.2       19 UNK         0.5000 
    108 O         -5.2776  -22.3900  -59.2442 O.2       19 UNK        -0.5000 
    109 N         -4.6135  -23.4070  -57.3309 N.am      20 UNK        -0.5000 
    110 CA        -3.3003  -23.8751  -57.7714 C.3       20 UNK         0.1400 
    111 CB        -2.8887  -25.0758  -56.9008 C.3       20 UNK        -0.1800 
    112 C         -2.2739  -22.7262  -57.7180 C.2       20 UNK         0.5000 
    113 O         -1.4046  -22.7153  -56.8419 O.2       20 UNK        -0.5000 
    114 N         -2.4426  -21.7520  -58.6241 N.am      21 UNK        -0.5000 
    115 CA        -1.7064  -20.4905  -58.7919 C.3       21 UNK         0.1400 
    116 CB        -0.2196  -20.7405  -59.1125 C.3       21 UNK        -0.1800 
    117 C         -1.8786  -19.5157  -57.6103 C.2       21 UNK         0.5000 
    118 O         -2.3641  -18.3999  -57.8006 O.2       21 UNK        -0.5000 
    119 N         -1.4935  -19.9690  -56.4182 N.am      22 UNK        -0.5000 
    120 CA        -1.6559  -19.2975  -55.1262 C.3       22 UNK         0.1400 
    121 C         -1.7301  -20.2854  -53.9250 C.2       22 UNK         0.5000 
    122 N         -1.6888  -21.6010  -54.1227 N.am      22 UNK        -0.7600 
    123 O         -1.8611  -19.8517  -52.7852 O.2       22 UNK        -0.5000 
    124 C124       -0.6393  -18.1431  -54.9151 C.3       23 UNK        -0.0398 
    125 S125        1.1097  -18.6760  -54.9548 S.3       23 UNK        -0.2404 
    126 C126        1.8787  -17.5075  -53.7888 C.3       23 UNK        -0.0205 
    127 H127       -3.8638  -10.0315  -46.2690 H         1 UNK         0.0600 
    128 H128       -4.3813  -10.9640  -44.8606 H         1 UNK         0.0600 
    129 H129       -4.7081  -11.5671  -46.4882 H         1 UNK         0.0600 
    130 H130       -3.3293  -13.2072  -47.0770 H         1 UNK         0.3000 
    131 H131       -0.5400  -13.0520  -47.0844 H         1 UNK         0.0600 
    132 H132       -2.1436  -14.5305  -48.5088 H         1 UNK         0.0800 
    133 H133       -2.0996  -15.6859  -47.2061 H         1 UNK         0.0800 
    134 H134       -1.4071  -16.3623  -50.1511 H         1 UNK         0.0800 
    135 H135       -1.2289  -17.5439  -48.8777 H         1 UNK         0.0800 
    136 H136        0.0438  -16.4270  -52.0722 H         1 UNK         0.1150 
    137 H137        3.1346  -19.3864  -52.2813 H         1 UNK         0.1150 
    138 H138        1.0072  -18.7408  -48.6067 H         1 UNK         0.1150 
    139 H139        3.8345  -20.5618  -50.3720 H         1 UNK         0.0800 
    140 H140        3.5369  -19.8102  -48.8313 H         1 UNK         0.0800 
    141 H141        1.7036  -20.3284  -47.2674 H         1 UNK         0.0800 
    142 H142        2.7760  -21.6545  -46.9394 H         1 UNK         0.0800 
    143 H143        0.8263  -23.2447  -47.0526 H         1 UNK         0.0600 
    144 H144        1.4066  -21.4555  -44.9487 H         1 UNK         0.3000 
    145 H145       -0.7870  -22.8590  -42.4932 H         1 UNK         0.0600 
    146 H146        1.3882  -22.9351  -41.3049 H         1 UNK         0.0600 
    147 H147        2.2595  -22.7635  -42.8262 H         1 UNK         0.0600 
    148 H148        1.3108  -24.2113  -42.5111 H         1 UNK         0.0600 
    149 H149        0.9899  -20.6522  -42.3482 H         1 UNK         0.3000 
    150 H150       -1.3409  -18.1299  -43.4299 H         1 UNK         0.0600 
    151 H151       -1.7039  -18.4171  -41.0320 H         1 UNK         0.0600 
    152 H152       -0.4061  -17.2473  -41.2263 H         1 UNK         0.0600 
    153 H153       -0.0396  -18.9015  -40.7625 H         1 UNK         0.0600 
    154 H154        1.4003  -17.9056  -42.7437 H         1 UNK         0.3000 
    155 H155        2.7779  -18.5499  -45.9878 H         1 UNK         0.0600 
    156 H156        2.1636  -16.1726  -46.0741 H         1 UNK         0.0600 
    157 H157        3.8172  -16.3321  -45.5040 H         1 UNK         0.0600 
    158 H158        2.5188  -15.9665  -44.3686 H         1 UNK         0.0600 
    159 H159        3.8723  -17.8851  -43.4024 H         1 UNK         0.3000 
    160 H160        4.3782  -21.2521  -42.3278 H         1 UNK         0.0600 
    161 H161        6.3587  -19.1103  -43.2815 H         1 UNK         0.0600 
    162 H162        6.2937  -20.7707  -43.8606 H         1 UNK         0.0600 
    163 H163        6.7205  -20.4462  -42.1882 H         1 UNK         0.0600 
    164 H164        5.0659  -18.7032  -41.2106 H         1 UNK         0.3000 
    165 H165        1.9926  -18.0317  -39.5722 H         1 UNK         0.0600 
    166 H166        3.4293  -17.9982  -37.5501 H         1 UNK         0.0600 
    167 H167        3.0858  -19.6551  -38.0203 H         1 UNK         0.0600 
    168 H168        4.6611  -18.9553  -38.3740 H         1 UNK         0.0600 
    169 H169        4.5513  -16.7559  -39.5130 H         1 UNK         0.3000 
    170 H170        4.6516  -14.5998  -40.5264 H         1 UNK         0.0600 
    171 H171        5.2941  -16.0751  -43.1623 H         1 UNK         0.0600 
    172 H172        6.3142  -14.8713  -42.3835 H         1 UNK         0.0600 
    173 H173        6.0689  -16.4248  -41.6213 H         1 UNK         0.0600 
    174 H174        2.6983  -14.4167  -42.5577 H         1 UNK         0.3000 
    175 H175        3.5064  -11.0496  -43.5174 H         1 UNK         0.0600 
    176 H176        2.9865  -13.5781  -45.1642 H         1 UNK         0.0600 
    177 H177        2.6418  -11.9304  -45.6851 H         1 UNK         0.0600 
    178 H178        4.3007  -12.4362  -45.3989 H         1 UNK         0.0600 
    179 H179        1.1321  -12.6679  -43.7197 H         1 UNK         0.3000 
    180 H180       -0.3182  -11.7958  -40.6791 H         1 UNK         0.0600 
    181 H181       -1.9831  -10.3437  -41.8812 H         1 UNK         0.0600 
    182 H182       -0.7649   -9.9840  -43.1057 H         1 UNK         0.0600 
    183 H183       -0.5200   -9.4758  -41.4428 H         1 UNK         0.0600 
    184 H184       -1.3126  -12.4363  -43.3571 H         1 UNK         0.3000 
    185 H185       -0.7594  -15.8468  -43.1351 H         1 UNK         0.0600 
    186 H186       -3.5262  -14.7548  -42.3767 H         1 UNK         0.0600 
    187 H187       -3.1860  -16.3596  -43.0260 H         1 UNK         0.0600 
    188 H188       -2.6113  -15.9170  -41.4269 H         1 UNK         0.0600 
    189 H189       -2.7078  -14.4555  -44.6686 H         1 UNK         0.3000 
    190 H190       -0.7139  -20.0840  -46.2101 H         1 UNK         0.3000 
    191 H191       -2.6454  -20.0478  -48.2540 H         1 UNK         0.0600 
    192 H192       -2.0583  -18.1000  -46.7838 H         1 UNK         0.0600 
    193 H193       -2.8468  -18.8836  -45.4239 H         1 UNK         0.0600 
    194 H194       -3.7912  -18.3889  -46.8219 H         1 UNK         0.0600 
    195 H195       -2.8296  -21.4723  -44.9572 H         1 UNK         0.3000 
    196 H196       -5.5044  -22.4013  -45.1132 H         1 UNK         0.0600 
    197 H197       -4.2648  -22.1828  -42.9803 H         1 UNK         0.0600 
    198 H198       -3.1495  -23.4586  -43.4618 H         1 UNK         0.0600 
    199 H199       -4.8450  -23.8301  -43.1767 H         1 UNK         0.0600 
    200 H200       -2.4206  -23.9893  -46.0241 H         1 UNK         0.3000 
    201 H201       -3.5699  -26.4912  -46.8123 H         1 UNK         0.0600 
    202 H202       -1.1721  -26.2395  -46.2437 H         1 UNK         0.0600 
    203 H203       -0.9267  -25.1664  -47.6189 H         1 UNK         0.0600 
    204 H204       -1.3457  -26.8548  -47.8809 H         1 UNK         0.0600 
    205 H205       -2.7784  -23.5031  -48.6296 H         1 UNK         0.3000 
    206 H206       -3.5191  -24.4244  -51.2111 H         1 UNK         0.0600 
    207 H207       -3.4392  -21.5850  -50.0579 H         1 UNK         0.0600 
    208 H208       -2.0978  -22.4273  -50.8273 H         1 UNK         0.0600 
    209 H209       -3.5137  -21.9839  -51.7645 H         1 UNK         0.0600 
    210 H210       -5.4049  -22.8669  -48.6413 H         1 UNK         0.3000 
    211 H211       -7.5382  -22.6301  -48.1738 H         1 UNK         0.0600 
    212 H212       -7.9305  -25.0472  -50.0262 H         1 UNK         0.0600 
    213 H213       -9.1500  -24.4109  -48.9248 H         1 UNK         0.0600 
    214 H214       -7.6507  -25.0686  -48.2917 H         1 UNK         0.0600 
    215 H215       -8.6100  -23.6779  -51.3475 H         1 UNK         0.3000 
    216 H216       -9.9577  -21.1964  -51.9532 H         1 UNK         0.0600 
    217 H217      -10.5250  -22.3900  -54.0766 H         1 UNK         0.0600 
    218 H218      -10.8475  -23.4008  -52.6773 H         1 UNK         0.0600 
    219 H219       -9.4113  -23.6871  -53.6609 H         1 UNK         0.0600 
    220 H220       -6.7680  -22.4563  -52.5890 H         1 UNK         0.3000 
    221 H221       -4.9381  -21.7021  -53.5545 H         1 UNK         0.0600 
    222 H222       -6.2408  -18.9310  -53.4431 H         1 UNK         0.0600 
    223 H223       -5.3662  -19.7086  -52.1234 H         1 UNK         0.0600 
    224 H224       -4.5249  -19.2599  -53.5945 H         1 UNK         0.0600 
    225 H225       -7.0567  -22.6599  -55.3076 H         1 UNK         0.3000 
    226 H226       -7.0196  -21.2323  -57.7909 H         1 UNK         0.0600 
    227 H227       -8.8370  -22.8019  -57.1565 H         1 UNK         0.0600 
    228 H228       -8.0904  -23.3127  -58.6621 H         1 UNK         0.0600 
    229 H229       -7.7064  -24.1561  -57.1663 H         1 UNK         0.0600 
    230 H230       -4.8483  -23.5793  -56.3649 H         1 UNK         0.3000 
    231 H231       -3.3664  -24.2183  -58.8061 H         1 UNK         0.0600 
    232 H232       -1.9106  -25.4561  -57.1982 H         1 UNK         0.0600 
    233 H233       -3.5993  -25.8964  -57.0015 H         1 UNK         0.0600 
    234 H234       -2.8314  -24.8107  -55.8443 H         1 UNK         0.0600 
    235 H235       -3.2565  -21.8456  -59.2228 H         1 UNK         0.3000 
    236 H236       -2.1480  -20.0055  -59.6639 H         1 UNK         0.0600 
    237 H237        0.3032  -21.2337  -58.2927 H         1 UNK         0.0600 
    238 H238       -0.1088  -21.3620  -60.0010 H         1 UNK         0.0600 
    239 H239        0.2977  -19.8002  -59.3069 H         1 UNK         0.0600 
    240 H240       -1.1295  -20.9150  -56.3833 H         1 UNK         0.3000 
    241 H241       -2.6477  -18.8423  -55.1459 H         1 UNK         0.0600 
    242 H242       -1.7215  -22.2039  -53.3181 H         1 UNK         0.3800 
    243 H243       -1.5889  -22.0121  -55.0434 H         1 UNK         0.3800 
    244 H244       -0.8505  -17.6334  -53.9753 H         1 UNK         0.0800 
    245 H245       -0.7750  -17.3879  -55.6899 H         1 UNK         0.0800 
    246 H246        1.5321  -16.4951  -54.0027 H         1 UNK         0.0800 
    247 H247        2.9555  -17.4994  -53.9641 H         1 UNK         0.0800 
@<TRIPOS>BOND
     1    1    2 1    
     2    1  127 1    
     3    1  128 1    
     4    1  129 1    
     5    2    3 2    
     6    2    4 am   BACKBONE|DICT|INTERRES
     7    4    5 1    
     8    4  130 1    
     9    5    6 1    
    10    5   65 1    
    11    5  131 1    
    12    6    7 1    
    13    6  132 1    
    14    6  133 1    
    15    7    8 1    
    16    8    9 1    
    17    8  134 1    
    18    8  135 1    
    19    9   10 ar   
    20    9   14 ar   
    21   10   11 ar   
    22   10  136 1    
    23   11   12 ar   
    24   11  126 1    
    25   12   13 ar   
    26   12  137 1    
    27   13   14 ar   
    28   13   15 1    
    29   14  138 1    
    30   15   16 1    
    31   15  139 1    
    32   15  140 1    
    33   16   17 1    
    34   17   18 1    
    35   17  141 1    
    36   17  142 1    
    37   18   19 1    
    38   18   67 1    
    39   18  143 1    
    40   19   20 am   BACKBONE|DICT|INTERRES
    41   19  144 1    
    42   20   21 2    
    43   20   22 1    
    44   22   23 1    
    45   22   24 1    
    46   22  145 1    
    47   23  146 1    
    48   23  147 1    
    49   23  148 1    
    50   24   25 am   BACKBONE|DICT|INTERRES
    51   24  149 1    
    52   25   26 2    
    53   25   27 1    
    54   27   28 1    
    55   27   29 1    
    56   27  150 1    
    57   28  151 1    
    58   28  152 1    
    59   28  153 1    
    60   29   30 am   BACKBONE|DICT|INTERRES
    61   29  154 1    
    62   30   31 2    
    63   30   32 1    
    64   32   33 1    
    65   32   34 1    
    66   32  155 1    
    67   33  156 1    
    68   33  157 1    
    69   33  158 1    
    70   34   35 am   BACKBONE|DICT|INTERRES
    71   34  159 1    
    72   35   36 2    
    73   35   37 1    
    74   37   38 1    
    75   37   39 1    
    76   37  160 1    
    77   38  161 1    
    78   38  162 1    
    79   38  163 1    
    80   39   40 am   BACKBONE|DICT|INTERRES
    81   39  164 1    
    82   40   41 2    
    83   40   42 1    
    84   42   43 1    
    85   42   44 1    
    86   42  165 1    
    87   43  166 1    
    88   43  167 1    
    89   43  168 1    
    90   44   45 am   BACKBONE|DICT|INTERRES
    91   44  169 1    
    92   45   46 2    
    93   45   47 1    
    94   47   48 1    
    95   47   49 1    
    96   47  170 1    
    97   48  171 1    
    98   48  172 1    
    99   48  173 1    
   100   49   50 am   BACKBONE|DICT|INTERRES
   101   49  174 1    
   102   50   51 2    
   103   50   52 1    
   104   52   53 1    
   105   52   54 1    
   106   52  175 1    
   107   53  176 1    
   108   53  177 1    
   109   53  178 1    
   110   54   55 am   BACKBONE|DICT|INTERRES
   111   54  179 1    
   112   55   56 2    
   113   55   57 1    
   114   57   58 1    
   115   57   59 1    
   116   57  180 1    
   117   58  181 1    
   118   58  182 1    
   119   58  183 1    
   120   59   60 am   BACKBONE|DICT|INTERRES
   121   59  184 1    
   122   60   61 2    
   123   60   62 1    
   124   62   63 1    
   125   62   64 1    
   126   62  185 1    
   127   63  186 1    
   128   63  187 1    
   129   63  188 1    
   130   64   65 am   BACKBONE|DICT|INTERRES
   131   64  189 1    
   132   65   66 2    
   133   67   68 2    
   134   67   69 am   BACKBONE|DICT|INTERRES
   135   69   70 1    
   136   69  190 1    
   137   70   71 1    
   138   70   72 1    
   139   70  191 1    
   140   71  192 1    
   141   71  193 1    
   142   71  194 1    
   143   72   73 2    
   144   72   74 am   BACKBONE|DICT|INTERRES
   145   74   75 1    
   146   74  195 1    
   147   75   76 1    
   148   75   77 1    
   149   75  196 1    
   150   76  197 1    
   151   76  198 1    
   152   76  199 1    
   153   77   78 2    
   154   77   79 am   BACKBONE|DICT|INTERRES
   155   79   80 1    
   156   79  200 1    
   157   80   81 1    
   158   80   82 1    
   159   80  201 1    
   160   81  202 1    
   161   81  203 1    
   162   81  204 1    
   163   82   83 2    
   164   82   84 am   BACKBONE|DICT|INTERRES
   165   84   85 1    
   166   84  205 1    
   167   85   86 1    
   168   85   87 1    
   169   85  206 1    
   170   86  207 1    
   171   86  208 1    
   172   86  209 1    
   173   87   88 2    
   174   87   89 am   BACKBONE|DICT|INTERRES
   175   89   90 1    
   176   89  210 1    
   177   90   91 1    
   178   90   92 1    
   179   90  211 1    
   180   91  212 1    
   181   91  213 1    
   182   91  214 1    
   183   92   93 2    
   184   92   94 am   BACKBONE|DICT|INTERRES
   185   94   95 1    
   186   94  215 1    
   187   95   96 1    
   188   95   97 1    
   189   95  216 1    
   190   96  217 1    
   191   96  218 1    
   192   96  219 1    
   193   97   98 2    
   194   97   99 am   BACKBONE|DICT|INTERRES
   195   99  100 1    
   196   99  220 1    
   197  100  101 1    
   198  100  102 1    
   199  100  221 1    
   200  101  222 1    
   201  101  223 1    
   202  101  224 1    
   203  102  103 2    
   204  102  104 am   BACKBONE|DICT|INTERRES
   205  104  105 1    
   206  104  225 1    
   207  105  106 1    
   208  105  107 1    
   209  105  226 1    
   210  106  227 1    
   211  106  228 1    
   212  106  229 1    
   213  107  108 2    
   214  107  109 am   BACKBONE|DICT|INTERRES
   215  109  110 1    
   216  109  230 1    
   217  110  111 1    
   218  110  112 1    
   219  110  231 1    
   220  111  232 1    
   221  111  233 1    
   222  111  234 1    
   223  112  113 2    
   224  112  114 am   BACKBONE|DICT|INTERRES
   225  114  115 1    
   226  114  235 1    
   227  115  116 1    
   228  115  117 1    
   229  115  236 1    
   230  116  237 1    
   231  116  238 1    
   232  116  239 1    
   233  117  118 2    
   234  117  119 am   BACKBONE|DICT|INTERRES
   235  119  120 1    
   236  119  240 1    
   237  120  121 1    
   238  120  124 1    
   239  120  241 1    
   240  121  122 am   BACKBONE|DICT|INTERRES
   241  121  123 2    
   242  122  242 1    
   243  122  243 1    
   244  124  125 1    
   245  124  244 1    
   246  124  245 1    
   247  125  126 1    
   248  126  246 1    
   249  126  247 1    
@<TRIPOS>SUBSTRUCTURE
     1 UNK         1 GROUP             0       ****    0 ROOT    
