@<TRIPOS>MOLECULE
3R540
247   249    1
SMALL
USER_CHARGES


@<TRIPOS>ATOM
      1 CA          5.2819  -14.8551  -47.7106 C.3       0 UNK        -0.1800 
      2 C           4.8356  -15.8521  -48.7704 C.2       0 UNK         0.5000 
      3 O           5.5096  -16.0076  -49.7891 O.2       0 UNK        -0.5000 
      4 N           3.7020  -16.5169  -48.5267 N.am      1 UNK        -0.5000 
      5 CA          3.1241  -17.5513  -49.3840 C.3       1 UNK         0.1400 
      6 C6          1.6102  -17.3265  -49.6443 C.3       23 UNK        -0.0398 
      7 S7          1.2655  -15.7203  -50.4398 S.3       23 UNK        -0.2404 
      8 C8          0.3213  -14.8722  -49.1341 C.3       23 UNK        -0.0205 
      9 C9         -1.1413  -15.2895  -49.1419 C.ar      23 UNK        -0.0193 
     10 C10        -2.0427  -14.6496  -49.9966 C.ar      23 UNK        -0.1150 
     11 C11        -3.3790  -15.0539  -50.0496 C.ar      23 UNK        -0.0193 
     12 C12        -3.8130  -16.1068  -49.2385 C.ar      23 UNK        -0.1150 
     13 C13        -2.9271  -16.7433  -48.3635 C.ar      23 UNK        -0.0193 
     14 C14        -1.5956  -16.3187  -48.3113 C.ar      23 UNK        -0.1150 
     15 C15        -3.4154  -17.8778  -47.4711 C.3       23 UNK        -0.0205 
     16 S16        -2.5818  -19.4558  -47.8392 S.3       23 UNK        -0.2404 
     17 C17        -3.6818  -20.6243  -46.9728 C.3       23 UNK        -0.0398 
     18 CA         -2.9483  -21.9264  -46.5646 C.3       11 UNK         0.1400 
     19 N          -2.0902  -21.7217  -45.3894 N.am      11 UNK        -0.5000 
     20 C          -1.2427  -22.6155  -44.8617 C.2       10 UNK         0.5000 
     21 O          -1.1094  -23.7552  -45.3121 O.2       10 UNK        -0.5000 
     22 CA         -0.4209  -22.1699  -43.6318 C.3       10 UNK         0.1400 
     23 CB          0.7722  -23.1033  -43.3572 C.3       10 UNK        -0.1800 
     24 N           0.0764  -20.7983  -43.7489 N.am      10 UNK        -0.5000 
     25 C          -0.6308  -19.6836  -43.5434 C.2       9 UNK         0.5000 
     26 O          -1.8286  -19.6837  -43.2489 O.2       9 UNK        -0.5000 
     27 CA          0.1095  -18.3581  -43.7894 C.3       9 UNK         0.1400 
     28 CB         -0.0476  -17.9293  -45.2535 C.3       9 UNK        -0.1800 
     29 N          -0.3919  -17.2862  -42.9337 N.am      9 UNK        -0.5000 
     30 C          -0.2083  -17.2182  -41.6074 C.2       8 UNK         0.5000 
     31 O           0.4322  -18.0530  -40.9668 O.2       8 UNK        -0.5000 
     32 CA         -0.8140  -16.0120  -40.8628 C.3       8 UNK         0.1400 
     33 CB          0.2872  -15.0207  -40.4538 C.3       8 UNK        -0.1800 
     34 N          -1.8274  -15.3085  -41.6503 N.am      8 UNK        -0.5000 
     35 C          -3.0941  -15.7262  -41.7857 C.2       7 UNK         0.5000 
     36 O          -3.5518  -16.7036  -41.1924 O.2       7 UNK        -0.5000 
     37 CA         -4.0146  -14.9314  -42.7351 C.3       7 UNK         0.1400 
     38 CB         -5.0034  -14.0730  -41.9304 C.3       7 UNK        -0.1800 
     39 N          -3.3152  -14.0679  -43.6901 N.am      7 UNK        -0.5000 
     40 C          -2.5128  -14.4882  -44.6771 C.2       6 UNK         0.5000 
     41 O          -2.2336  -15.6725  -44.8581 O.2       6 UNK        -0.5000 
     42 CA         -1.9189  -13.4134  -45.6156 C.3       6 UNK         0.1400 
     43 CB         -2.2099  -11.9618  -45.1720 C.3       6 UNK        -0.1800 
     44 N          -0.4797  -13.5715  -45.8499 N.am      6 UNK        -0.5000 
     45 C           0.4878  -13.6894  -44.9297 C.2       5 UNK         0.5000 
     46 O           0.2904  -13.7525  -43.7140 O.2       5 UNK        -0.5000 
     47 CA          1.9280  -13.6577  -45.4684 C.3       5 UNK         0.1400 
     48 CB          2.4636  -12.2177  -45.4626 C.3       5 UNK        -0.1800 
     49 N           2.8142  -14.4894  -44.6587 N.am      5 UNK        -0.5000 
     50 C           3.1011  -15.7670  -44.9241 C.2       4 UNK         0.5000 
     51 O           2.6724  -16.3737  -45.9111 O.2       4 UNK        -0.5000 
     52 CA          4.0634  -16.4702  -43.9550 C.3       4 UNK         0.1400 
     53 CB          3.5085  -16.5318  -42.5187 C.3       4 UNK        -0.1800 
     54 N           4.3355  -17.8123  -44.4604 N.am      4 UNK        -0.5000 
     55 C           5.3655  -18.5931  -44.1227 C.2       3 UNK         0.5000 
     56 O           6.2129  -18.2645  -43.2911 O.2       3 UNK        -0.5000 
     57 CA          5.5198  -19.9490  -44.8475 C.3       3 UNK         0.1400 
     58 CB          5.5164  -21.1263  -43.8503 C.3       3 UNK        -0.1800 
     59 N           4.5826  -20.1907  -45.9554 N.am      3 UNK        -0.5000 
     60 C           3.2693  -20.4459  -45.8987 C.2       2 UNK         0.5000 
     61 O           2.6086  -20.4241  -44.8608 O.2       2 UNK        -0.5000 
     62 CA          2.5789  -20.7224  -47.2490 C.3       2 UNK         0.1400 
     63 CB          1.1832  -21.3516  -47.0887 C.3       2 UNK        -0.1800 
     64 N           2.4512  -19.4936  -48.0268 N.am      2 UNK        -0.5000 
     65 C           3.4369  -18.9037  -48.7165 C.2       1 UNK         0.5000 
     66 O           4.5727  -19.3753  -48.8036 O.2       1 UNK        -0.5000 
     67 C          -3.9528  -23.0879  -46.3850 C.2       11 UNK         0.5000 
     68 O          -4.3562  -23.6963  -47.3745 O.2       11 UNK        -0.5000 
     69 N          -4.3092  -23.4051  -45.1339 N.am      12 UNK        -0.5000 
     70 CA         -5.1635  -24.5368  -44.7759 C.3       12 UNK         0.1400 
     71 CB         -5.6817  -24.3213  -43.3450 C.3       12 UNK        -0.1800 
     72 C          -4.4681  -25.9111  -44.8924 C.2       12 UNK         0.5000 
     73 O          -5.1691  -26.9242  -44.8975 O.2       12 UNK        -0.5000 
     74 N          -3.1279  -25.9370  -44.9521 N.am      13 UNK        -0.5000 
     75 CA         -2.3225  -27.1587  -44.9269 C.3       13 UNK         0.1400 
     76 CB         -1.4904  -27.1858  -43.6329 C.3       13 UNK        -0.1800 
     77 C          -1.4195  -27.2776  -46.1638 C.2       13 UNK         0.5000 
     78 O          -1.5071  -28.2724  -46.8846 O.2       13 UNK        -0.5000 
     79 N          -0.5543  -26.2790  -46.3789 N.am      14 UNK        -0.5000 
     80 CA          0.4630  -26.2781  -47.4325 C.3       14 UNK         0.1400 
     81 CB          1.6786  -25.4775  -46.9427 C.3       14 UNK        -0.1800 
     82 C          -0.0539  -25.7079  -48.7643 C.2       14 UNK         0.5000 
     83 O           0.5166  -26.0169  -49.8115 O.2       14 UNK        -0.5000 
     84 N          -1.1117  -24.8867  -48.7000 N.am      15 UNK        -0.5000 
     85 CA         -1.8218  -24.2058  -49.7907 C.3       15 UNK         0.1400 
     86 CB         -2.4369  -25.2097  -50.7845 C.3       15 UNK        -0.1800 
     87 C          -1.0051  -23.1225  -50.5212 C.2       15 UNK         0.5000 
     88 O          -1.4768  -21.9901  -50.6340 O.2       15 UNK        -0.5000 
     89 N           0.1835  -23.4994  -51.0160 N.am      16 UNK        -0.5000 
     90 CA          1.1819  -22.6840  -51.7225 C.3       16 UNK         0.1400 
     91 CB          1.9001  -21.7562  -50.7240 C.3       16 UNK        -0.1800 
     92 C           0.6233  -21.9133  -52.9386 C.2       16 UNK         0.5000 
     93 O           1.0601  -20.7936  -53.2091 O.2       16 UNK        -0.5000 
     94 N          -0.3781  -22.5011  -53.6115 N.am      17 UNK        -0.5000 
     95 CA         -1.2223  -21.9532  -54.6858 C.3       17 UNK         0.1400 
     96 CB         -0.3911  -21.5655  -55.9229 C.3       17 UNK        -0.1800 
     97 C          -2.1422  -20.7919  -54.2504 C.2       17 UNK         0.5000 
     98 O          -3.2702  -20.7080  -54.7369 O.2       17 UNK        -0.5000 
     99 N          -1.6734  -19.9457  -53.3246 N.am      18 UNK        -0.5000 
    100 CA        -2.3561  -18.7921  -52.7375 C.3       18 UNK         0.1400 
    101 CB        -1.4614  -18.1915  -51.6472 C.3       18 UNK        -0.1800 
    102 C         -3.7513  -19.1099  -52.1757 C.2       18 UNK         0.5000 
    103 O         -4.6774  -18.3247  -52.3746 O.2       18 UNK        -0.5000 
    104 N         -3.9013  -20.2867  -51.5532 N.am      19 UNK        -0.5000 
    105 CA        -5.1721  -20.7974  -51.0335 C.3       19 UNK         0.1400 
    106 CB        -4.9157  -22.1360  -50.3342 C.3       19 UNK        -0.1800 
    107 C         -6.2769  -20.9657  -52.0978 C.2       19 UNK         0.5000 
    108 O         -7.4558  -20.8626  -51.7575 O.2       19 UNK        -0.5000 
    109 N         -5.8826  -21.2149  -53.3536 N.am      20 UNK        -0.5000 
    110 CA        -6.7833  -21.3160  -54.4999 C.3       20 UNK         0.1400 
    111 CB        -6.3156  -22.4658  -55.4063 C.3       20 UNK        -0.1800 
    112 C         -6.8376  -19.9966  -55.2885 C.2       20 UNK         0.5000 
    113 O         -7.9127  -19.6136  -55.7514 O.2       20 UNK        -0.5000 
    114 N         -5.6819  -19.3352  -55.4440 N.am      21 UNK        -0.5000 
    115 CA        -5.5174  -18.1195  -56.2420 C.3       21 UNK         0.1400 
    116 CB        -4.0204  -17.8725  -56.4810 C.3       21 UNK        -0.1800 
    117 C         -6.1774  -16.8697  -55.6307 C.2       21 UNK         0.5000 
    118 O         -6.6302  -16.0055  -56.3835 O.2       21 UNK        -0.5000 
    119 N         -6.2192  -16.7846  -54.2970 N.am      22 UNK        -0.5000 
    120 CA        -6.7679  -15.6393  -53.5541 C.3       22 UNK         0.1400 
    121 C         -7.4085  -16.0131  -52.1894 C.2       22 UNK         0.5000 
    122 N         -7.0191  -17.1034  -51.5425 N.am      22 UNK        -0.7600 
    123 O         -8.2945  -15.3066  -51.7162 O.2       22 UNK        -0.5000 
    124 C124       -5.7540  -14.4683  -53.4296 C.3       23 UNK        -0.0398 
    125 S125       -4.1514  -14.9549  -52.6948 S.3       23 UNK        -0.2404 
    126 C126       -4.3513  -14.3597  -50.9884 C.3       23 UNK        -0.0205 
    127 H127        5.8031  -15.3699  -46.9034 H         1 UNK         0.0600 
    128 H128        4.4283  -14.3234  -47.2907 H         1 UNK         0.0600 
    129 H129        5.9583  -14.1152  -48.1388 H         1 UNK         0.0600 
    130 H130        3.2378  -16.3870  -47.6296 H         1 UNK         0.3000 
    131 H131        3.6217  -17.5604  -50.3559 H         1 UNK         0.0600 
    132 H132        1.2222  -18.1110  -50.2958 H         1 UNK         0.0800 
    133 H133        1.0416  -17.3880  -48.7174 H         1 UNK         0.0800 
    134 H134        0.7740  -15.0811  -48.1653 H         1 UNK         0.0800 
    135 H135        0.3984  -13.7949  -49.2879 H         1 UNK         0.0800 
    136 H136       -1.6997  -13.8513  -50.6398 H         1 UNK         0.1150 
    137 H137       -4.8434  -16.4295  -49.2907 H         1 UNK         0.1150 
    138 H138       -0.9116  -16.8070  -47.6352 H         1 UNK         0.1150 
    139 H139       -3.2529  -17.6136  -46.4260 H         1 UNK         0.0800 
    140 H140       -4.4916  -18.0117  -47.5902 H         1 UNK         0.0800 
    141 H141       -4.5188  -20.8251  -47.6430 H         1 UNK         0.0800 
    142 H142       -4.1145  -20.1420  -46.0944 H         1 UNK         0.0800 
    143 H143       -2.2926  -22.2205  -47.3866 H         1 UNK         0.0600 
    144 H144       -2.1585  -20.8205  -44.9303 H         1 UNK         0.3000 
    145 H145       -1.0890  -22.2243  -42.7701 H         1 UNK         0.0600 
    146 H146        1.3205  -22.7893  -42.4689 H         1 UNK         0.0600 
    147 H147        0.4418  -24.1283  -43.1853 H         1 UNK         0.0600 
    148 H148        1.4734  -23.1186  -44.1921 H         1 UNK         0.0600 
    149 H149        1.0424  -20.7029  -44.0624 H         1 UNK         0.3000 
    150 H150        1.1705  -18.4962  -43.5778 H         1 UNK         0.0600 
    151 H151        0.6001  -18.5131  -45.9040 H         1 UNK         0.0600 
    152 H152        0.2109  -16.8810  -45.3958 H         1 UNK         0.0600 
    153 H153       -1.0726  -18.0590  -45.5979 H         1 UNK         0.0600 
    154 H154       -0.9746  -16.5914  -43.3864 H         1 UNK         0.3000 
    155 H155       -1.2772  -16.3906  -39.9491 H         1 UNK         0.0600 
    156 H156        0.8296  -14.6387  -41.3182 H         1 UNK         0.0600 
    157 H157        1.0169  -15.4987  -39.7990 H         1 UNK         0.0600 
    158 H158       -0.1265  -14.1700  -39.9123 H         1 UNK         0.0600 
    159 H159       -1.5093  -14.5180  -42.1959 H         1 UNK         0.3000 
    160 H160       -4.5871  -15.6625  -43.3098 H         1 UNK         0.0600 
    161 H161       -4.4891  -13.3050  -41.3513 H         1 UNK         0.0600 
    162 H162       -5.5742  -14.6845  -41.2303 H         1 UNK         0.0600 
    163 H163       -5.7211  -13.5779  -42.5849 H         1 UNK         0.0600 
    164 H164       -3.4771  -13.0759  -43.5962 H         1 UNK         0.3000 
    165 H165       -2.4021  -13.5673  -46.5817 H         1 UNK         0.0600 
    166 H166       -1.7932  -11.2482  -45.8830 H         1 UNK         0.0600 
    167 H167       -3.2815  -11.7650  -45.1221 H         1 UNK         0.0600 
    168 H168       -1.7781  -11.7404  -44.1950 H         1 UNK         0.0600 
    169 H169       -0.2097  -13.5401  -46.8207 H         1 UNK         0.3000 
    170 H170        1.9335  -14.0115  -46.5001 H         1 UNK         0.0600 
    171 H171        1.8417  -11.5658  -46.0775 H         1 UNK         0.0600 
    172 H172        2.4827  -11.7985  -44.4558 H         1 UNK         0.0600 
    173 H173        3.4762  -12.1724  -45.8641 H         1 UNK         0.0600 
    174 H174        3.1602  -14.0691  -43.8086 H         1 UNK         0.3000 
    175 H175        4.9950  -15.9008  -43.9561 H         1 UNK         0.0600 
    176 H176        2.6094  -17.1403  -42.4634 H         1 UNK         0.0600 
    177 H177        4.2370  -16.9606  -41.8308 H         1 UNK         0.0600 
    178 H178        3.2587  -15.5410  -42.1388 H         1 UNK         0.0600 
    179 H179        3.6901  -18.1264  -45.1736 H         1 UNK         0.3000 
    180 H180        6.5076  -19.9216  -45.3096 H         1 UNK         0.0600 
    181 H181        5.6622  -22.0780  -44.3612 H         1 UNK         0.0600 
    182 H182        4.5828  -21.1841  -43.2902 H         1 UNK         0.0600 
    183 H183        6.3224  -21.0233  -43.1229 H         1 UNK         0.0600 
    184 H184        4.9908  -20.1340  -46.8828 H         1 UNK         0.3000 
    185 H185        3.2020  -21.4342  -47.7944 H         1 UNK         0.0600 
    186 H186        0.7747  -21.6779  -48.0441 H         1 UNK         0.0600 
    187 H187        1.2291  -22.2271  -46.4447 H         1 UNK         0.0600 
    188 H188        0.4661  -20.6610  -46.6479 H         1 UNK         0.0600 
    189 H189        1.5556  -19.0342  -47.9696 H         1 UNK         0.3000 
    190 H190       -3.9378  -22.8573  -44.3718 H         1 UNK         0.3000 
    191 H191       -6.0226  -24.5483  -45.4501 H         1 UNK         0.0600 
    192 H192       -6.3573  -25.1244  -43.0474 H         1 UNK         0.0600 
    193 H193       -6.2363  -23.3864  -43.2622 H         1 UNK         0.0600 
    194 H194       -4.8658  -24.2944  -42.6216 H         1 UNK         0.0600 
    195 H195       -2.6188  -25.0618  -44.9927 H         1 UNK         0.3000 
    196 H196       -2.9627  -28.0432  -44.9208 H         1 UNK         0.0600 
    197 H197       -0.8489  -26.3087  -43.5426 H         1 UNK         0.0600 
    198 H198       -2.1354  -27.2169  -42.7547 H         1 UNK         0.0600 
    199 H199       -0.8501  -28.0681  -43.5968 H         1 UNK         0.0600 
    200 H200       -0.5869  -25.4547  -45.7841 H         1 UNK         0.3000 
    201 H201        0.7914  -27.3025  -47.6210 H         1 UNK         0.0600 
    202 H202        1.4081  -24.4515  -46.7004 H         1 UNK         0.0600 
    203 H203        2.4610  -25.4430  -47.7020 H         1 UNK         0.0600 
    204 H204        2.1115  -25.9275  -46.0491 H         1 UNK         0.0600 
    205 H205       -1.4726  -24.7014  -47.7748 H         1 UNK         0.3000 
    206 H206       -2.6498  -23.6906  -49.3114 H         1 UNK         0.0600 
    207 H207       -3.1115  -25.8984  -50.2759 H         1 UNK         0.0600 
    208 H208       -3.0166  -24.6954  -51.5516 H         1 UNK         0.0600 
    209 H209       -1.6787  -25.8018  -51.2970 H         1 UNK         0.0600 
    210 H210        0.4537  -24.4636  -50.8336 H         1 UNK         0.3000 
    211 H211        1.9216  -23.3803  -52.1195 H         1 UNK         0.0600 
    212 H212        2.7320  -21.2322  -51.1959 H         1 UNK         0.0600 
    213 H213        2.3113  -22.3250  -49.8910 H         1 UNK         0.0600 
    214 H214        1.2230  -21.0018  -50.3219 H         1 UNK         0.0600 
    215 H215       -0.6641  -23.4098  -53.2758 H         1 UNK         0.3000 
    216 H216       -1.8828  -22.7698  -54.9818 H         1 UNK         0.0600 
    217 H217        0.2702  -20.7217  -55.7250 H         1 UNK         0.0600 
    218 H218       -1.0411  -21.2789  -56.7506 H         1 UNK         0.0600 
    219 H219        0.2211  -22.4001  -56.2643 H         1 UNK         0.0600 
    220 H220       -0.7186  -20.1020  -53.0182 H         1 UNK         0.3000 
    221 H221       -2.4776  -18.0459  -53.5229 H         1 UNK         0.0600 
    222 H222       -0.4984  -17.8839  -52.0540 H         1 UNK         0.0600 
    223 H223       -1.2783  -18.8994  -50.8374 H         1 UNK         0.0600 
    224 H224       -1.9247  -17.3068  -51.2127 H         1 UNK         0.0600 
    225 H225       -3.0777  -20.8605  -51.4026 H         1 UNK         0.3000 
    226 H226       -5.5317  -20.0827  -50.2904 H         1 UNK         0.0600 
    227 H227       -4.5814  -22.8985  -51.0376 H         1 UNK         0.0600 
    228 H228       -4.1514  -22.0278  -49.5683 H         1 UNK         0.0600 
    229 H229       -5.8177  -22.5073  -49.8462 H         1 UNK         0.0600 
    230 H230       -4.8906  -21.2343  -53.5584 H         1 UNK         0.3000 
    231 H231       -7.7967  -21.5475  -54.1652 H         1 UNK         0.0600 
    232 H232       -5.3059  -22.3002  -55.7840 H         1 UNK         0.0600 
    233 H233       -6.9748  -22.5756  -56.2683 H         1 UNK         0.0600 
    234 H234       -6.3204  -23.4150  -54.8704 H         1 UNK         0.0600 
    235 H235       -4.8309  -19.7480  -55.0722 H         1 UNK         0.3000 
    236 H236       -5.9863  -18.2945  -57.2126 H         1 UNK         0.0600 
    237 H237       -3.4941  -17.6736  -55.5483 H         1 UNK         0.0600 
    238 H238       -3.5475  -18.7316  -56.9573 H         1 UNK         0.0600 
    239 H239       -3.8661  -17.0120  -57.1332 H         1 UNK         0.0600 
    240 H240       -5.7869  -17.5119  -53.7368 H         1 UNK         0.3000 
    241 H241       -7.6100  -15.2596  -54.1365 H         1 UNK         0.0600 
    242 H242       -7.4647  -17.3421  -50.6722 H         1 UNK         0.3800 
    243 H243       -6.2045  -17.6288  -51.8543 H         1 UNK         0.3800 
    244 H244       -5.5464  -14.0694  -54.4231 H         1 UNK         0.0800 
    245 H245       -6.1851  -13.6363  -52.8701 H         1 UNK         0.0800 
    246 H246       -4.1924  -13.2808  -50.9599 H         1 UNK         0.0800 
    247 H247       -5.3747  -14.5296  -50.6519 H         1 UNK         0.0800 
@<TRIPOS>BOND
     1    1    2 1    
     2    1  127 1    
     3    1  128 1    
     4    1  129 1    
     5    2    3 2    
     6    2    4 am   BACKBONE|DICT|INTERRES
     7    4    5 1    
     8    4  130 1    
     9    5    6 1    
    10    5   65 1    
    11    5  131 1    
    12    6    7 1    
    13    6  132 1    
    14    6  133 1    
    15    7    8 1    
    16    8    9 1    
    17    8  134 1    
    18    8  135 1    
    19    9   10 ar   
    20    9   14 ar   
    21   10   11 ar   
    22   10  136 1    
    23   11   12 ar   
    24   11  126 1    
    25   12   13 ar   
    26   12  137 1    
    27   13   14 ar   
    28   13   15 1    
    29   14  138 1    
    30   15   16 1    
    31   15  139 1    
    32   15  140 1    
    33   16   17 1    
    34   17   18 1    
    35   17  141 1    
    36   17  142 1    
    37   18   19 1    
    38   18   67 1    
    39   18  143 1    
    40   19   20 am   BACKBONE|DICT|INTERRES
    41   19  144 1    
    42   20   21 2    
    43   20   22 1    
    44   22   23 1    
    45   22   24 1    
    46   22  145 1    
    47   23  146 1    
    48   23  147 1    
    49   23  148 1    
    50   24   25 am   BACKBONE|DICT|INTERRES
    51   24  149 1    
    52   25   26 2    
    53   25   27 1    
    54   27   28 1    
    55   27   29 1    
    56   27  150 1    
    57   28  151 1    
    58   28  152 1    
    59   28  153 1    
    60   29   30 am   BACKBONE|DICT|INTERRES
    61   29  154 1    
    62   30   31 2    
    63   30   32 1    
    64   32   33 1    
    65   32   34 1    
    66   32  155 1    
    67   33  156 1    
    68   33  157 1    
    69   33  158 1    
    70   34   35 am   BACKBONE|DICT|INTERRES
    71   34  159 1    
    72   35   36 2    
    73   35   37 1    
    74   37   38 1    
    75   37   39 1    
    76   37  160 1    
    77   38  161 1    
    78   38  162 1    
    79   38  163 1    
    80   39   40 am   BACKBONE|DICT|INTERRES
    81   39  164 1    
    82   40   41 2    
    83   40   42 1    
    84   42   43 1    
    85   42   44 1    
    86   42  165 1    
    87   43  166 1    
    88   43  167 1    
    89   43  168 1    
    90   44   45 am   BACKBONE|DICT|INTERRES
    91   44  169 1    
    92   45   46 2    
    93   45   47 1    
    94   47   48 1    
    95   47   49 1    
    96   47  170 1    
    97   48  171 1    
    98   48  172 1    
    99   48  173 1    
   100   49   50 am   BACKBONE|DICT|INTERRES
   101   49  174 1    
   102   50   51 2    
   103   50   52 1    
   104   52   53 1    
   105   52   54 1    
   106   52  175 1    
   107   53  176 1    
   108   53  177 1    
   109   53  178 1    
   110   54   55 am   BACKBONE|DICT|INTERRES
   111   54  179 1    
   112   55   56 2    
   113   55   57 1    
   114   57   58 1    
   115   57   59 1    
   116   57  180 1    
   117   58  181 1    
   118   58  182 1    
   119   58  183 1    
   120   59   60 am   BACKBONE|DICT|INTERRES
   121   59  184 1    
   122   60   61 2    
   123   60   62 1    
   124   62   63 1    
   125   62   64 1    
   126   62  185 1    
   127   63  186 1    
   128   63  187 1    
   129   63  188 1    
   130   64   65 am   BACKBONE|DICT|INTERRES
   131   64  189 1    
   132   65   66 2    
   133   67   68 2    
   134   67   69 am   BACKBONE|DICT|INTERRES
   135   69   70 1    
   136   69  190 1    
   137   70   71 1    
   138   70   72 1    
   139   70  191 1    
   140   71  192 1    
   141   71  193 1    
   142   71  194 1    
   143   72   73 2    
   144   72   74 am   BACKBONE|DICT|INTERRES
   145   74   75 1    
   146   74  195 1    
   147   75   76 1    
   148   75   77 1    
   149   75  196 1    
   150   76  197 1    
   151   76  198 1    
   152   76  199 1    
   153   77   78 2    
   154   77   79 am   BACKBONE|DICT|INTERRES
   155   79   80 1    
   156   79  200 1    
   157   80   81 1    
   158   80   82 1    
   159   80  201 1    
   160   81  202 1    
   161   81  203 1    
   162   81  204 1    
   163   82   83 2    
   164   82   84 am   BACKBONE|DICT|INTERRES
   165   84   85 1    
   166   84  205 1    
   167   85   86 1    
   168   85   87 1    
   169   85  206 1    
   170   86  207 1    
   171   86  208 1    
   172   86  209 1    
   173   87   88 2    
   174   87   89 am   BACKBONE|DICT|INTERRES
   175   89   90 1    
   176   89  210 1    
   177   90   91 1    
   178   90   92 1    
   179   90  211 1    
   180   91  212 1    
   181   91  213 1    
   182   91  214 1    
   183   92   93 2    
   184   92   94 am   BACKBONE|DICT|INTERRES
   185   94   95 1    
   186   94  215 1    
   187   95   96 1    
   188   95   97 1    
   189   95  216 1    
   190   96  217 1    
   191   96  218 1    
   192   96  219 1    
   193   97   98 2    
   194   97   99 am   BACKBONE|DICT|INTERRES
   195   99  100 1    
   196   99  220 1    
   197  100  101 1    
   198  100  102 1    
   199  100  221 1    
   200  101  222 1    
   201  101  223 1    
   202  101  224 1    
   203  102  103 2    
   204  102  104 am   BACKBONE|DICT|INTERRES
   205  104  105 1    
   206  104  225 1    
   207  105  106 1    
   208  105  107 1    
   209  105  226 1    
   210  106  227 1    
   211  106  228 1    
   212  106  229 1    
   213  107  108 2    
   214  107  109 am   BACKBONE|DICT|INTERRES
   215  109  110 1    
   216  109  230 1    
   217  110  111 1    
   218  110  112 1    
   219  110  231 1    
   220  111  232 1    
   221  111  233 1    
   222  111  234 1    
   223  112  113 2    
   224  112  114 am   BACKBONE|DICT|INTERRES
   225  114  115 1    
   226  114  235 1    
   227  115  116 1    
   228  115  117 1    
   229  115  236 1    
   230  116  237 1    
   231  116  238 1    
   232  116  239 1    
   233  117  118 2    
   234  117  119 am   BACKBONE|DICT|INTERRES
   235  119  120 1    
   236  119  240 1    
   237  120  121 1    
   238  120  124 1    
   239  120  241 1    
   240  121  122 am   BACKBONE|DICT|INTERRES
   241  121  123 2    
   242  122  242 1    
   243  122  243 1    
   244  124  125 1    
   245  124  244 1    
   246  124  245 1    
   247  125  126 1    
   248  126  246 1    
   249  126  247 1    
@<TRIPOS>SUBSTRUCTURE
     1 UNK         1 GROUP             0       ****    0 ROOT    
