@<TRIPOS>MOLECULE
3R540
247   249    1
SMALL
USER_CHARGES


@<TRIPOS>ATOM
      1 CA         -6.0200  -13.7996  -45.1949 C.3       0 UNK        -0.1800 
      2 C          -4.9212  -14.2003  -46.1678 C.2       0 UNK         0.5000 
      3 O          -4.4403  -15.3312  -46.1150 O.2       0 UNK        -0.5000 
      4 N          -4.5046  -13.2733  -47.0423 N.am      1 UNK        -0.5000 
      5 CA         -3.4944  -13.4232  -48.1051 C.3       1 UNK         0.1400 
      6 C6         -3.8201  -14.5899  -49.0819 C.3       23 UNK        -0.0398 
      7 S7         -3.4546  -14.2084  -50.8288 S.3       23 UNK        -0.2404 
      8 C8         -3.1128  -15.8740  -51.5044 C.3       23 UNK        -0.0205 
      9 C9         -1.6318  -16.2477  -51.5633 C.ar      23 UNK        -0.0193 
     10 C10        -1.1767  -17.0881  -52.5849 C.ar      23 UNK        -0.1150 
     11 C11         0.1682  -17.4666  -52.6569 C.ar      23 UNK        -0.0193 
     12 C12         1.0655  -17.0053  -51.6905 C.ar      23 UNK        -0.1150 
     13 C13         0.6259  -16.1694  -50.6620 C.ar      23 UNK        -0.0193 
     14 C14        -0.7174  -15.7917  -50.6088 C.ar      23 UNK        -0.1150 
     15 C15         1.5956  -15.6825  -49.5971 C.3       23 UNK        -0.0205 
     16 S16         1.8820  -16.9482  -48.3213 S.3       23 UNK        -0.2404 
     17 C17         0.2054  -17.1746  -47.6400 C.3       23 UNK        -0.0398 
     18 CA         -0.4428  -18.4954  -48.1076 C.3       11 UNK         0.1400 
     19 N           0.2772  -19.6551  -47.5786 N.am      11 UNK        -0.5000 
     20 C           0.1431  -20.9094  -48.0249 C.2       10 UNK         0.5000 
     21 O          -0.7385  -21.2602  -48.8056 O.2       10 UNK        -0.5000 
     22 CA          1.1694  -21.9363  -47.5206 C.3       10 UNK         0.1400 
     23 CB          2.5451  -21.6754  -48.1538 C.3       10 UNK        -0.1800 
     24 N           1.2951  -21.8618  -46.0684 N.am      10 UNK        -0.5000 
     25 C           0.8712  -22.7980  -45.2094 C.2       9 UNK         0.5000 
     26 O           0.4354  -23.8977  -45.5507 O.2       9 UNK        -0.5000 
     27 CA          0.9148  -22.4418  -43.7063 C.3       9 UNK         0.1400 
     28 CB          2.1973  -22.9890  -43.0615 C.3       9 UNK        -0.1800 
     29 N           0.8227  -21.0065  -43.4237 N.am      9 UNK        -0.5000 
     30 C          -0.1678  -20.1988  -43.8247 C.2       8 UNK         0.5000 
     31 O          -1.1552  -20.5813  -44.4522 O.2       8 UNK        -0.5000 
     32 CA          0.0079  -18.6924  -43.5691 C.3       8 UNK         0.1400 
     33 CB         -0.7059  -18.2711  -42.2778 C.3       8 UNK        -0.1800 
     34 N           1.3949  -18.2185  -43.5429 N.am      8 UNK        -0.5000 
     35 C           2.3170  -18.3968  -44.5020 C.2       7 UNK         0.5000 
     36 O           2.1235  -19.0619  -45.5204 O.2       7 UNK        -0.5000 
     37 CA          3.6860  -17.7336  -44.2774 C.3       7 UNK         0.1400 
     38 CB          3.6995  -16.3127  -44.8630 C.3       7 UNK        -0.1800 
     39 N           4.0305  -17.6713  -42.8573 N.am      7 UNK        -0.5000 
     40 C           4.5515  -18.6894  -42.1579 C.2       6 UNK         0.5000 
     41 O           4.8407  -19.7804  -42.6499 O.2       6 UNK        -0.5000 
     42 CA          4.7729  -18.4533  -40.6508 C.3       6 UNK         0.1400 
     43 CB          6.1613  -17.8459  -40.3993 C.3       6 UNK        -0.1800 
     44 N           3.7548  -17.5826  -40.0603 N.am      6 UNK        -0.5000 
     45 C           2.4723  -17.9289  -39.8815 C.2       5 UNK         0.5000 
     46 O           2.0299  -19.0509  -40.1268 O.2       5 UNK        -0.5000 
     47 CA          1.5158  -16.8287  -39.3762 C.3       5 UNK         0.1400 
     48 CB          1.3711  -16.9051  -37.8491 C.3       5 UNK        -0.1800 
     49 N           1.9143  -15.4672  -39.7534 N.am      5 UNK        -0.5000 
     50 C           2.0287  -15.0182  -41.0099 C.2       4 UNK         0.5000 
     51 O           1.8364  -15.7195  -42.0076 O.2       4 UNK        -0.5000 
     52 CA          2.4931  -13.5652  -41.1766 C.3       4 UNK         0.1400 
     53 CB          3.9984  -13.4448  -40.8677 C.3       4 UNK        -0.1800 
     54 N           2.2308  -13.1413  -42.5480 N.am      4 UNK        -0.5000 
     55 C           2.2139  -11.8793  -42.9949 C.2       3 UNK         0.5000 
     56 O           2.3876  -10.8979  -42.2713 O.2       3 UNK        -0.5000 
     57 CA          1.9773  -11.6698  -44.5039 C.3       3 UNK         0.1400 
     58 CB          3.3179  -11.4664  -45.2274 C.3       3 UNK        -0.1800 
     59 N           1.2745  -12.7925  -45.1270 N.am      3 UNK        -0.5000 
     60 C          -0.0545  -12.9493  -45.1212 C.2       2 UNK         0.5000 
     61 O          -0.8458  -12.1395  -44.6325 O.2       2 UNK        -0.5000 
     62 CA         -0.5711  -14.2695  -45.7140 C.3       2 UNK         0.1400 
     63 CB         -0.7654  -15.3047  -44.5981 C.3       2 UNK        -0.1800 
     64 N          -1.8420  -14.1205  -46.4147 N.am      2 UNK        -0.5000 
     65 C          -2.0399  -13.4887  -47.5764 C.2       1 UNK         0.5000 
     66 O          -1.1322  -12.9636  -48.2216 O.2       1 UNK        -0.5000 
     67 C          -1.9476  -18.5025  -47.7789 C.2       11 UNK         0.5000 
     68 O          -2.7615  -18.2593  -48.6699 O.2       11 UNK        -0.5000 
     69 N          -2.3024  -18.7855  -46.5178 N.am      12 UNK        -0.5000 
     70 CA         -3.6998  -18.8440  -46.0796 C.3       12 UNK         0.1400 
     71 CB         -3.8022  -18.5961  -44.5678 C.3       12 UNK        -0.1800 
     72 C          -4.3465  -20.1805  -46.4747 C.2       12 UNK         0.5000 
     73 O          -5.5457  -20.2164  -46.7488 O.2       12 UNK        -0.5000 
     74 N          -3.5318  -21.2423  -46.5662 N.am      13 UNK        -0.5000 
     75 CA         -3.9176  -22.5271  -47.1462 C.3       13 UNK         0.1400 
     76 CB         -2.7880  -23.5497  -46.9565 C.3       13 UNK        -0.1800 
     77 C          -4.3080  -22.3889  -48.6289 C.2       13 UNK         0.5000 
     78 O          -5.3426  -22.9179  -49.0273 O.2       13 UNK        -0.5000 
     79 N          -3.5210  -21.6279  -49.4021 N.am      14 UNK        -0.5000 
     80 CA         -3.8040  -21.3051  -50.8008 C.3       14 UNK         0.1400 
     81 CB         -2.5642  -20.6795  -51.4495 C.3       14 UNK        -0.1800 
     82 C          -5.0296  -20.3994  -50.9948 C.2       14 UNK         0.5000 
     83 O          -5.7212  -20.5334  -52.0043 O.2       14 UNK        -0.5000 
     84 N          -5.2906  -19.5111  -50.0269 N.am      15 UNK        -0.5000 
     85 CA         -6.4919  -18.6781  -49.9868 C.3       15 UNK         0.1400 
     86 CB         -6.3230  -17.5841  -48.9220 C.3       15 UNK        -0.1800 
     87 C          -7.7639  -19.5095  -49.7284 C.2       15 UNK         0.5000 
     88 O          -8.7997  -19.2374  -50.3363 O.2       15 UNK        -0.5000 
     89 N          -7.6590  -20.5085  -48.8410 N.am      16 UNK        -0.5000 
     90 CA         -8.7336  -21.4406  -48.5063 C.3       16 UNK         0.1400 
     91 CB         -8.4082  -22.1332  -47.1732 C.3       16 UNK        -0.1800 
     92 C          -8.9876  -22.4765  -49.6176 C.2       16 UNK         0.5000 
     93 O         -10.1401  -22.6791  -50.0029 O.2       16 UNK        -0.5000 
     94 N          -7.9144  -23.1193  -50.0948 N.am      17 UNK        -0.5000 
     95 CA         -7.9332  -24.1458  -51.1325 C.3       17 UNK         0.1400 
     96 CB         -6.9527  -25.2728  -50.7458 C.3       17 UNK        -0.1800 
     97 C          -7.6402  -23.5102  -52.5040 C.2       17 UNK         0.5000 
     98 O          -8.5252  -22.8650  -53.0691 O.2       17 UNK        -0.5000 
     99 N          -6.4283  -23.7186  -53.0305 N.am      18 UNK        -0.5000 
    100 CA        -5.9729  -23.2363  -54.3292 C.3       18 UNK         0.1400 
    101 CB        -6.4151  -24.2223  -55.4266 C.3       18 UNK        -0.1800 
    102 C         -4.4462  -23.0782  -54.3107 C.2       18 UNK         0.5000 
    103 O         -3.7826  -23.5778  -53.3973 O.2       18 UNK        -0.5000 
    104 N         -3.9141  -22.4178  -55.3485 N.am      19 UNK        -0.5000 
    105 CA        -2.5040  -22.0452  -55.5214 C.3       19 UNK         0.1400 
    106 CB        -2.3557  -21.2471  -56.8251 C.3       19 UNK        -0.1800 
    107 C         -1.4847  -23.2031  -55.4799 C.2       19 UNK         0.5000 
    108 O         -0.2964  -22.9517  -55.2831 O.2       19 UNK        -0.5000 
    109 N         -1.9490  -24.4530  -55.6049 N.am      20 UNK        -0.5000 
    110 CA        -1.1591  -25.6685  -55.3897 C.3       20 UNK         0.1400 
    111 CB        -2.0431  -26.8907  -55.6805 C.3       20 UNK        -0.1800 
    112 C         -0.5434  -25.7712  -53.9755 C.2       20 UNK         0.5000 
    113 O          0.4796  -26.4371  -53.8129 O.2       20 UNK        -0.5000 
    114 N         -1.1557  -25.1005  -52.9878 N.am      21 UNK        -0.5000 
    115 CA        -0.6580  -25.0105  -51.6152 C.3       21 UNK         0.1400 
    116 CB        -1.8258  -24.6524  -50.6851 C.3       21 UNK        -0.1800 
    117 C          0.5062  -24.0123  -51.4333 C.2       21 UNK         0.5000 
    118 O          1.2029  -24.1102  -50.4224 O.2       21 UNK        -0.5000 
    119 N          0.7062  -23.0851  -52.3822 N.am      22 UNK        -0.5000 
    120 CA         1.7729  -22.0666  -52.3456 C.3       22 UNK         0.1400 
    121 C          2.7836  -22.1591  -53.5233 C.2       22 UNK         0.5000 
    122 N          2.4338  -22.7383  -54.6645 N.am      22 UNK        -0.7600 
    123 O          3.9216  -21.7174  -53.3885 O.2       22 UNK        -0.5000 
    124 C124        1.2068  -20.6322  -52.1710 C.3       23 UNK        -0.0398 
    125 S125        0.1329  -20.0882  -53.5473 S.3       23 UNK        -0.2404 
    126 C126        0.6506  -18.3631  -53.7869 C.3       23 UNK        -0.0205 
    127 H127       -6.8842  -14.4522  -45.3184 H         1 UNK         0.0600 
    128 H128       -6.3448  -12.7706  -45.3504 H         1 UNK         0.0600 
    129 H129       -5.6641  -13.8938  -44.1690 H         1 UNK         0.0600 
    130 H130       -4.9226  -12.3542  -46.9948 H         1 UNK         0.3000 
    131 H131       -3.5648  -12.4881  -48.6632 H         1 UNK         0.0600 
    132 H132       -3.3257  -15.5149  -48.7781 H         1 UNK         0.0800 
    133 H133       -4.8882  -14.8060  -49.0517 H         1 UNK         0.0800 
    134 H134       -3.5330  -15.9082  -52.5106 H         1 UNK         0.0800 
    135 H135       -3.6465  -16.6311  -50.9277 H         1 UNK         0.0800 
    136 H136       -1.8705  -17.4558  -53.3280 H         1 UNK         0.1150 
    137 H137        2.1049  -17.2989  -51.7331 H         1 UNK         0.1150 
    138 H138       -1.0484  -15.1455  -49.8118 H         1 UNK         0.1150 
    139 H139        2.5487  -15.4238  -50.0605 H         1 UNK         0.0800 
    140 H140        1.2265  -14.7689  -49.1276 H         1 UNK         0.0800 
    141 H141       -0.4128  -16.3198  -47.9119 H         1 UNK         0.0800 
    142 H142        0.2835  -17.1566  -46.5536 H         1 UNK         0.0800 
    143 H143       -0.3676  -18.5391  -49.1968 H         1 UNK         0.0600 
    144 H144        1.0341  -19.4429  -46.9328 H         1 UNK         0.3000 
    145 H145        0.8309  -22.9259  -47.8349 H         1 UNK         0.0600 
    146 H146        3.2572  -22.4519  -47.8751 H         1 UNK         0.0600 
    147 H147        2.4781  -21.6709  -49.2409 H         1 UNK         0.0600 
    148 H148        2.9599  -20.7143  -47.8466 H         1 UNK         0.0600 
    149 H149        1.6280  -20.9798  -45.6937 H         1 UNK         0.3000 
    150 H150        0.0572  -22.9244  -43.2335 H         1 UNK         0.0600 
    151 H151        2.2941  -24.0622  -43.2309 H         1 UNK         0.0600 
    152 H152        2.1961  -22.8299  -41.9830 H         1 UNK         0.0600 
    153 H153        3.0877  -22.5092  -43.4705 H         1 UNK         0.0600 
    154 H154        1.5989  -20.5921  -42.9277 H         1 UNK         0.3000 
    155 H155       -0.4761  -18.1857  -44.4010 H         1 UNK         0.0600 
    156 H156       -0.6426  -17.1941  -42.1217 H         1 UNK         0.0600 
    157 H157       -1.7640  -18.5313  -42.3108 H         1 UNK         0.0600 
    158 H158       -0.2797  -18.7662  -41.4060 H         1 UNK         0.0600 
    159 H159        1.6377  -17.6041  -42.7740 H         1 UNK         0.3000 
    160 H160        4.4381  -18.3255  -44.8034 H         1 UNK         0.0600 
    161 H161        2.9182  -15.6862  -44.4337 H         1 UNK         0.0600 
    162 H162        3.5437  -16.3367  -45.9412 H         1 UNK         0.0600 
    163 H163        4.6570  -15.8222  -44.6874 H         1 UNK         0.0600 
    164 H164        3.7679  -16.8274  -42.3676 H         1 UNK         0.3000 
    165 H165        4.7280  -19.4234  -40.1511 H         1 UNK         0.0600 
    166 H166        6.3577  -17.7393  -39.3322 H         1 UNK         0.0600 
    167 H167        6.9459  -18.4822  -40.8109 H         1 UNK         0.0600 
    168 H168        6.2612  -16.8620  -40.8596 H         1 UNK         0.0600 
    169 H169        4.0389  -16.6460  -39.8150 H         1 UNK         0.3000 
    170 H170        0.5367  -17.0192  -39.8190 H         1 UNK         0.0600 
    171 H171        1.0487  -17.8992  -37.5361 H         1 UNK         0.0600 
    172 H172        2.3140  -16.6916  -37.3441 H         1 UNK         0.0600 
    173 H173        0.6268  -16.1957  -37.4869 H         1 UNK         0.0600 
    174 H174        2.1032  -14.8324  -38.9909 H         1 UNK         0.3000 
    175 H175        1.9194  -12.9384  -40.4910 H         1 UNK         0.0600 
    176 H176        4.2226  -13.7687  -39.8508 H         1 UNK         0.0600 
    177 H177        4.5965  -14.0537  -41.5470 H         1 UNK         0.0600 
    178 H178        4.3424  -12.4143  -40.9554 H         1 UNK         0.0600 
    179 H179        2.0238  -13.9032  -43.1793 H         1 UNK         0.3000 
    180 H180        1.3845  -10.7605  -44.6254 H         1 UNK         0.0600 
    181 H181        3.9603  -12.3439  -45.1414 H         1 UNK         0.0600 
    182 H182        3.8627  -10.6189  -44.8093 H         1 UNK         0.0600 
    183 H183        3.1669  -11.2625  -46.2876 H         1 UNK         0.0600 
    184 H184        1.8541  -13.4942  -45.5635 H         1 UNK         0.3000 
    185 H185        0.1670  -14.6408  -46.4256 H         1 UNK         0.0600 
    186 H186       -1.3654  -14.9078  -43.7778 H         1 UNK         0.0600 
    187 H187       -1.2766  -16.1899  -44.9725 H         1 UNK         0.0600 
    188 H188        0.1927  -15.6178  -44.1836 H         1 UNK         0.0600 
    189 H189       -2.6577  -14.5317  -45.9731 H         1 UNK         0.3000 
    190 H190       -1.6074  -19.1049  -45.8567 H         1 UNK         0.3000 
    191 H191       -4.2548  -18.0457  -46.5768 H         1 UNK         0.0600 
    192 H192       -3.3838  -19.4164  -43.9863 H         1 UNK         0.0600 
    193 H193       -4.8458  -18.4914  -44.2693 H         1 UNK         0.0600 
    194 H194       -3.2918  -17.6763  -44.2819 H         1 UNK         0.0600 
    195 H195       -2.5672  -21.1346  -46.2837 H         1 UNK         0.3000 
    196 H196       -4.7944  -22.8871  -46.6039 H         1 UNK         0.0600 
    197 H197       -3.0734  -24.5230  -47.3573 H         1 UNK         0.0600 
    198 H198       -2.5545  -23.6880  -45.9006 H         1 UNK         0.0600 
    199 H199       -1.8718  -23.2454  -47.4613 H         1 UNK         0.0600 
    200 H200       -2.6396  -21.2850  -49.0301 H         1 UNK         0.3000 
    201 H201       -4.0269  -22.2412  -51.3091 H         1 UNK         0.0600 
    202 H202       -1.7267  -21.3760  -51.4433 H         1 UNK         0.0600 
    203 H203       -2.2492  -19.7717  -50.9339 H         1 UNK         0.0600 
    204 H204       -2.7592  -20.4154  -52.4891 H         1 UNK         0.0600 
    205 H205       -4.6331  -19.4157  -49.2638 H         1 UNK         0.3000 
    206 H206       -6.5943  -18.1910  -50.9588 H         1 UNK         0.0600 
    207 H207       -5.3688  -17.0724  -49.0344 H         1 UNK         0.0600 
    208 H208       -7.1116  -16.8358  -49.0058 H         1 UNK         0.0600 
    209 H209       -6.3642  -17.9873  -47.9107 H         1 UNK         0.0600 
    210 H210       -6.7839  -20.6241  -48.3412 H         1 UNK         0.3000 
    211 H211       -9.6528  -20.8673  -48.3680 H         1 UNK         0.0600 
    212 H212       -7.4775  -22.6990  -47.2270 H         1 UNK         0.0600 
    213 H213       -9.2000  -22.8276  -46.8897 H         1 UNK         0.0600 
    214 H214       -8.3080  -21.4060  -46.3671 H         1 UNK         0.0600 
    215 H215       -6.9969  -22.8978  -49.7108 H         1 UNK         0.3000 
    216 H216       -8.9280  -24.5917  -51.1949 H         1 UNK         0.0600 
    217 H217       -5.9279  -24.9163  -50.6392 H         1 UNK         0.0600 
    218 H218       -6.9528  -26.0659  -51.4947 H         1 UNK         0.0600 
    219 H219       -7.2400  -25.7274  -49.7976 H         1 UNK         0.0600 
    220 H220       -5.7185  -24.1986  -52.4923 H         1 UNK         0.3000 
    221 H221       -6.4057  -22.2519  -54.5206 H         1 UNK         0.0600 
    222 H222       -7.5002  -24.3235  -55.4532 H         1 UNK         0.0600 
    223 H223       -5.9917  -25.2148  -55.2668 H         1 UNK         0.0600 
    224 H224       -6.1013  -23.8854  -56.4151 H         1 UNK         0.0600 
    225 H225       -4.5406  -22.0750  -56.0625 H         1 UNK         0.3000 
    226 H226       -2.2534  -21.3834  -54.6918 H         1 UNK         0.0600 
    227 H227       -2.9822  -20.3551  -56.8164 H         1 UNK         0.0600 
    228 H228       -1.3260  -20.9146  -56.9654 H         1 UNK         0.0600 
    229 H229       -2.6300  -21.8450  -57.6951 H         1 UNK         0.0600 
    230 H230       -2.9400  -24.5764  -55.7473 H         1 UNK         0.3000 
    231 H231       -0.3346  -25.6598  -56.1055 H         1 UNK         0.0600 
    232 H232       -2.9020  -26.9332  -55.0093 H         1 UNK         0.0600 
    233 H233       -1.4821  -27.8178  -55.5557 H         1 UNK         0.0600 
    234 H234       -2.4165  -26.8738  -56.7046 H         1 UNK         0.0600 
    235 H235       -2.0066  -24.5869  -53.1963 H         1 UNK         0.3000 
    236 H236       -0.2875  -25.9937  -51.3175 H         1 UNK         0.0600 
    237 H237       -2.6216  -25.3953  -50.7396 H         1 UNK         0.0600 
    238 H238       -1.4997  -24.5964  -49.6458 H         1 UNK         0.0600 
    239 H239       -2.2517  -23.6868  -50.9463 H         1 UNK         0.0600 
    240 H240        0.1225  -23.0807  -53.2088 H         1 UNK         0.3000 
    241 H241        2.3927  -22.2486  -51.4676 H         1 UNK         0.0600 
    242 H242        3.1075  -22.7999  -55.4104 H         1 UNK         0.3800 
    243 H243        1.4622  -22.9771  -54.8489 H         1 UNK         0.3800 
    244 H244        2.0260  -19.9231  -52.0434 H         1 UNK         0.0800 
    245 H245        0.6267  -20.5759  -51.2491 H         1 UNK         0.0800 
    246 H246        1.7355  -18.3157  -53.8924 H         1 UNK         0.0800 
    247 H247        0.2377  -18.0023  -54.7299 H         1 UNK         0.0800 
@<TRIPOS>BOND
     1    1    2 1    
     2    1  127 1    
     3    1  128 1    
     4    1  129 1    
     5    2    3 2    
     6    2    4 am   BACKBONE|DICT|INTERRES
     7    4    5 1    
     8    4  130 1    
     9    5    6 1    
    10    5   65 1    
    11    5  131 1    
    12    6    7 1    
    13    6  132 1    
    14    6  133 1    
    15    7    8 1    
    16    8    9 1    
    17    8  134 1    
    18    8  135 1    
    19    9   10 ar   
    20    9   14 ar   
    21   10   11 ar   
    22   10  136 1    
    23   11   12 ar   
    24   11  126 1    
    25   12   13 ar   
    26   12  137 1    
    27   13   14 ar   
    28   13   15 1    
    29   14  138 1    
    30   15   16 1    
    31   15  139 1    
    32   15  140 1    
    33   16   17 1    
    34   17   18 1    
    35   17  141 1    
    36   17  142 1    
    37   18   19 1    
    38   18   67 1    
    39   18  143 1    
    40   19   20 am   BACKBONE|DICT|INTERRES
    41   19  144 1    
    42   20   21 2    
    43   20   22 1    
    44   22   23 1    
    45   22   24 1    
    46   22  145 1    
    47   23  146 1    
    48   23  147 1    
    49   23  148 1    
    50   24   25 am   BACKBONE|DICT|INTERRES
    51   24  149 1    
    52   25   26 2    
    53   25   27 1    
    54   27   28 1    
    55   27   29 1    
    56   27  150 1    
    57   28  151 1    
    58   28  152 1    
    59   28  153 1    
    60   29   30 am   BACKBONE|DICT|INTERRES
    61   29  154 1    
    62   30   31 2    
    63   30   32 1    
    64   32   33 1    
    65   32   34 1    
    66   32  155 1    
    67   33  156 1    
    68   33  157 1    
    69   33  158 1    
    70   34   35 am   BACKBONE|DICT|INTERRES
    71   34  159 1    
    72   35   36 2    
    73   35   37 1    
    74   37   38 1    
    75   37   39 1    
    76   37  160 1    
    77   38  161 1    
    78   38  162 1    
    79   38  163 1    
    80   39   40 am   BACKBONE|DICT|INTERRES
    81   39  164 1    
    82   40   41 2    
    83   40   42 1    
    84   42   43 1    
    85   42   44 1    
    86   42  165 1    
    87   43  166 1    
    88   43  167 1    
    89   43  168 1    
    90   44   45 am   BACKBONE|DICT|INTERRES
    91   44  169 1    
    92   45   46 2    
    93   45   47 1    
    94   47   48 1    
    95   47   49 1    
    96   47  170 1    
    97   48  171 1    
    98   48  172 1    
    99   48  173 1    
   100   49   50 am   BACKBONE|DICT|INTERRES
   101   49  174 1    
   102   50   51 2    
   103   50   52 1    
   104   52   53 1    
   105   52   54 1    
   106   52  175 1    
   107   53  176 1    
   108   53  177 1    
   109   53  178 1    
   110   54   55 am   BACKBONE|DICT|INTERRES
   111   54  179 1    
   112   55   56 2    
   113   55   57 1    
   114   57   58 1    
   115   57   59 1    
   116   57  180 1    
   117   58  181 1    
   118   58  182 1    
   119   58  183 1    
   120   59   60 am   BACKBONE|DICT|INTERRES
   121   59  184 1    
   122   60   61 2    
   123   60   62 1    
   124   62   63 1    
   125   62   64 1    
   126   62  185 1    
   127   63  186 1    
   128   63  187 1    
   129   63  188 1    
   130   64   65 am   BACKBONE|DICT|INTERRES
   131   64  189 1    
   132   65   66 2    
   133   67   68 2    
   134   67   69 am   BACKBONE|DICT|INTERRES
   135   69   70 1    
   136   69  190 1    
   137   70   71 1    
   138   70   72 1    
   139   70  191 1    
   140   71  192 1    
   141   71  193 1    
   142   71  194 1    
   143   72   73 2    
   144   72   74 am   BACKBONE|DICT|INTERRES
   145   74   75 1    
   146   74  195 1    
   147   75   76 1    
   148   75   77 1    
   149   75  196 1    
   150   76  197 1    
   151   76  198 1    
   152   76  199 1    
   153   77   78 2    
   154   77   79 am   BACKBONE|DICT|INTERRES
   155   79   80 1    
   156   79  200 1    
   157   80   81 1    
   158   80   82 1    
   159   80  201 1    
   160   81  202 1    
   161   81  203 1    
   162   81  204 1    
   163   82   83 2    
   164   82   84 am   BACKBONE|DICT|INTERRES
   165   84   85 1    
   166   84  205 1    
   167   85   86 1    
   168   85   87 1    
   169   85  206 1    
   170   86  207 1    
   171   86  208 1    
   172   86  209 1    
   173   87   88 2    
   174   87   89 am   BACKBONE|DICT|INTERRES
   175   89   90 1    
   176   89  210 1    
   177   90   91 1    
   178   90   92 1    
   179   90  211 1    
   180   91  212 1    
   181   91  213 1    
   182   91  214 1    
   183   92   93 2    
   184   92   94 am   BACKBONE|DICT|INTERRES
   185   94   95 1    
   186   94  215 1    
   187   95   96 1    
   188   95   97 1    
   189   95  216 1    
   190   96  217 1    
   191   96  218 1    
   192   96  219 1    
   193   97   98 2    
   194   97   99 am   BACKBONE|DICT|INTERRES
   195   99  100 1    
   196   99  220 1    
   197  100  101 1    
   198  100  102 1    
   199  100  221 1    
   200  101  222 1    
   201  101  223 1    
   202  101  224 1    
   203  102  103 2    
   204  102  104 am   BACKBONE|DICT|INTERRES
   205  104  105 1    
   206  104  225 1    
   207  105  106 1    
   208  105  107 1    
   209  105  226 1    
   210  106  227 1    
   211  106  228 1    
   212  106  229 1    
   213  107  108 2    
   214  107  109 am   BACKBONE|DICT|INTERRES
   215  109  110 1    
   216  109  230 1    
   217  110  111 1    
   218  110  112 1    
   219  110  231 1    
   220  111  232 1    
   221  111  233 1    
   222  111  234 1    
   223  112  113 2    
   224  112  114 am   BACKBONE|DICT|INTERRES
   225  114  115 1    
   226  114  235 1    
   227  115  116 1    
   228  115  117 1    
   229  115  236 1    
   230  116  237 1    
   231  116  238 1    
   232  116  239 1    
   233  117  118 2    
   234  117  119 am   BACKBONE|DICT|INTERRES
   235  119  120 1    
   236  119  240 1    
   237  120  121 1    
   238  120  124 1    
   239  120  241 1    
   240  121  122 am   BACKBONE|DICT|INTERRES
   241  121  123 2    
   242  122  242 1    
   243  122  243 1    
   244  124  125 1    
   245  124  244 1    
   246  124  245 1    
   247  125  126 1    
   248  126  246 1    
   249  126  247 1    
@<TRIPOS>SUBSTRUCTURE
     1 UNK         1 GROUP             0       ****    0 ROOT    
