@<TRIPOS>MOLECULE
3R540
247   249    1
SMALL
USER_CHARGES


@<TRIPOS>ATOM
      1 CA          5.8494  -11.7611  -50.3936 C.3       0 UNK        -0.1800 
      2 C           5.0160  -11.4530  -49.1578 C.2       0 UNK         0.5000 
      3 O           5.0633  -10.3334  -48.6490 O.2       0 UNK        -0.5000 
      4 N           4.2464  -12.4392  -48.6804 N.am      1 UNK        -0.5000 
      5 CA          3.3796  -12.3387  -47.4979 C.3       1 UNK         0.1400 
      6 C6          3.2845  -13.6954  -46.7510 C.3       23 UNK        -0.0398 
      7 S7          2.3359  -14.9937  -47.6198 S.3       23 UNK        -0.2404 
      8 C8          3.6616  -15.9877  -48.3842 C.3       23 UNK        -0.0205 
      9 C9          3.1311  -17.0300  -49.3647 C.ar      23 UNK        -0.0193 
     10 C10         2.1090  -16.7102  -50.2659 C.ar      23 UNK        -0.1150 
     11 C11         1.6173  -17.6638  -51.1577 C.ar      23 UNK        -0.0193 
     12 C12         2.1847  -18.9400  -51.1778 C.ar      23 UNK        -0.1150 
     13 C13         3.2204  -19.2737  -50.2997 C.ar      23 UNK        -0.0193 
     14 C14         3.6855  -18.3150  -49.3924 C.ar      23 UNK        -0.1150 
     15 C15         3.8457  -20.6638  -50.3518 C.3       23 UNK        -0.0205 
     16 S16         3.4861  -21.6691  -48.8735 S.3       23 UNK        -0.2404 
     17 C17         1.6632  -21.6634  -48.8581 C.3       23 UNK        -0.0398 
     18 CA          1.0285  -22.9274  -48.2336 C.3       11 UNK         0.1400 
     19 N           1.5383  -23.2183  -46.8911 N.am      11 UNK        -0.5000 
     20 C           1.3268  -24.3721  -46.2421 C.2       10 UNK         0.5000 
     21 O           0.6985  -25.3165  -46.7196 O.2       10 UNK        -0.5000 
     22 CA          1.8590  -24.4764  -44.8007 C.3       10 UNK         0.1400 
     23 CB          3.2941  -25.0225  -44.7967 C.3       10 UNK        -0.1800 
     24 N           1.8242  -23.2095  -44.0693 N.am      10 UNK        -0.5000 
     25 C           0.7277  -22.4748  -43.8382 C.2       9 UNK         0.5000 
     26 O          -0.4000  -22.7996  -44.2114 O.2       9 UNK        -0.5000 
     27 CA          0.9215  -21.1408  -43.0936 C.3       9 UNK         0.1400 
     28 CB          2.1904  -21.0994  -42.2150 C.3       9 UNK        -0.1800 
     29 N           0.9023  -19.9800  -43.9861 N.am      9 UNK        -0.5000 
     30 C           1.6538  -19.7542  -45.0760 C.2       8 UNK         0.5000 
     31 O           2.3858  -20.5952  -45.5987 O.2       8 UNK        -0.5000 
     32 CA          1.6059  -18.3276  -45.6597 C.3       8 UNK         0.1400 
     33 CB          0.4811  -18.1914  -46.6944 C.3       8 UNK        -0.1800 
     34 N           1.4267  -17.3052  -44.6287 N.am      8 UNK        -0.5000 
     35 C           2.3253  -16.9928  -43.6841 C.2       7 UNK         0.5000 
     36 O           3.4398  -17.5093  -43.5980 O.2       7 UNK        -0.5000 
     37 CA          1.8989  -15.9393  -42.6483 C.3       7 UNK         0.1400 
     38 CB          2.1175  -14.5195  -43.1890 C.3       7 UNK        -0.1800 
     39 N           0.4939  -16.0962  -42.2769 N.am      7 UNK        -0.5000 
     40 C           0.0565  -16.8449  -41.2561 C.2       6 UNK         0.5000 
     41 O           0.7994  -17.4578  -40.4888 O.2       6 UNK        -0.5000 
     42 CA         -1.4700  -16.9261  -41.0523 C.3       6 UNK         0.1400 
     43 CB         -1.9356  -15.8540  -40.0553 C.3       6 UNK        -0.1800 
     44 N          -2.2334  -16.7853  -42.2939 N.am      6 UNK        -0.5000 
     45 C          -2.2425  -17.6889  -43.2824 C.2       5 UNK         0.5000 
     46 O          -1.6162  -18.7472  -43.2464 O.2       5 UNK        -0.5000 
     47 CA         -3.0474  -17.3300  -44.5450 C.3       5 UNK         0.1400 
     48 CB         -4.5004  -17.8107  -44.4178 C.3       5 UNK        -0.1800 
     49 N          -3.0316  -15.9092  -44.9082 N.am      5 UNK        -0.5000 
     50 C          -1.9269  -15.1901  -45.1458 C.2       4 UNK         0.5000 
     51 O          -0.7844  -15.5953  -44.9280 O.2       4 UNK        -0.5000 
     52 CA         -2.1211  -13.7937  -45.7561 C.3       4 UNK         0.1400 
     53 CB         -1.4587  -12.7137  -44.8870 C.3       4 UNK        -0.1800 
     54 N          -1.5401  -13.7562  -47.0959 N.am      4 UNK        -0.5000 
     55 C          -2.0288  -14.4123  -48.1593 C.2       3 UNK         0.5000 
     56 O          -3.0820  -15.0518  -48.1334 O.2       3 UNK        -0.5000 
     57 CA         -1.1993  -14.3612  -49.4612 C.3       3 UNK         0.1400 
     58 CB         -2.0691  -14.4981  -50.7283 C.3       3 UNK        -0.1800 
     59 N          -0.3149  -13.1941  -49.5588 N.am      3 UNK        -0.5000 
     60 C          -0.6669  -11.8988  -49.6002 C.2       2 UNK         0.5000 
     61 O          -1.8335  -11.5033  -49.5927 O.2       2 UNK        -0.5000 
     62 CA          0.4922  -10.8786  -49.6623 C.3       2 UNK         0.1400 
     63 CB          0.1207   -9.5123  -49.0485 C.3       2 UNK        -0.1800 
     64 N           1.7484  -11.3876  -49.0934 N.am      2 UNK        -0.5000 
     65 C           1.9867  -11.7418  -47.8193 C.2       1 UNK         0.5000 
     66 O           1.1468  -11.6560  -46.9228 O.2       1 UNK        -0.5000 
     67 C          -0.5095  -22.8004  -48.2266 C.2       11 UNK         0.5000 
     68 O          -1.1669  -23.3148  -49.1299 O.2       11 UNK        -0.5000 
     69 N          -1.0602  -22.1471  -47.1914 N.am      12 UNK        -0.5000 
     70 CA         -2.5017  -22.0032  -46.9797 C.3       12 UNK         0.1400 
     71 CB         -2.7744  -20.9084  -45.9414 C.3       12 UNK        -0.1800 
     72 C          -3.1662  -23.3294  -46.5837 C.2       12 UNK         0.5000 
     73 O          -4.2668  -23.6139  -47.0542 O.2       12 UNK        -0.5000 
     74 N          -2.4727  -24.1369  -45.7697 N.am      13 UNK        -0.5000 
     75 CA         -2.8865  -25.4908  -45.4006 C.3       13 UNK         0.1400 
     76 CB         -1.9427  -26.0491  -44.3255 C.3       13 UNK        -0.1800 
     77 C          -2.9582  -26.4287  -46.6201 C.2       13 UNK         0.5000 
     78 O          -3.9628  -27.1193  -46.7935 O.2       13 UNK        -0.5000 
     79 N          -1.9249  -26.3893  -47.4752 N.am      14 UNK        -0.5000 
     80 CA         -1.8576  -27.1270  -48.7403 C.3       14 UNK         0.1400 
     81 CB         -0.4566  -26.9686  -49.3498 C.3       14 UNK        -0.1800 
     82 C          -2.9391  -26.6985  -49.7514 C.2       14 UNK         0.5000 
     83 O          -3.4631  -27.5441  -50.4768 O.2       14 UNK        -0.5000 
     84 N          -3.2789  -25.4029  -49.7531 N.am      15 UNK        -0.5000 
     85 CA         -4.3431  -24.8094  -50.5644 C.3       15 UNK         0.1400 
     86 CB         -4.0263  -23.3218  -50.7752 C.3       15 UNK        -0.1800 
     87 C          -5.7560  -24.9921  -49.9682 C.2       15 UNK         0.5000 
     88 O          -6.7136  -24.4862  -50.5529 O.2       15 UNK        -0.5000 
     89 N          -5.8725  -25.6862  -48.8255 N.am      16 UNK        -0.5000 
     90 CA         -7.1069  -25.9929  -48.0951 C.3       16 UNK         0.1400 
     91 CB         -8.0034  -26.9473  -48.9118 C.3       16 UNK        -0.1800 
     92 C          -7.8474  -24.7308  -47.6033 C.2       16 UNK         0.5000 
     93 O          -9.0674  -24.6294  -47.7435 O.2       16 UNK        -0.5000 
     94 N          -7.0782  -23.7936  -47.0321 N.am      17 UNK        -0.5000 
     95 CA         -7.4975  -22.5167  -46.4428 C.3       17 UNK         0.1400 
     96 CB         -8.5185  -22.7207  -45.3032 C.3       17 UNK        -0.1800 
     97 C          -7.9443  -21.4557  -47.4703 C.2       17 UNK         0.5000 
     98 O          -8.5541  -20.4561  -47.0852 O.2       17 UNK        -0.5000 
     99 N          -7.5928  -21.6542  -48.7479 N.am      18 UNK        -0.5000 
    100 CA        -7.6512  -20.6311  -49.7935 C.3       18 UNK         0.1400 
    101 CB        -7.7155  -21.3288  -51.1628 C.3       18 UNK        -0.1800 
    102 C         -6.4386  -19.6783  -49.6934 C.2       18 UNK         0.5000 
    103 O         -5.6240  -19.8042  -48.7742 O.2       18 UNK        -0.5000 
    104 N         -6.3053  -18.7586  -50.6604 N.am      19 UNK        -0.5000 
    105 CA        -5.2345  -17.7546  -50.7738 C.3       19 UNK         0.1400 
    106 CB        -5.6847  -16.6638  -51.7621 C.3       19 UNK        -0.1800 
    107 C         -3.8461  -18.3385  -51.1371 C.2       19 UNK         0.5000 
    108 O         -3.1417  -17.7980  -51.9929 O.2       19 UNK        -0.5000 
    109 N         -3.4844  -19.4500  -50.4840 N.am      20 UNK        -0.5000 
    110 CA        -2.1927  -20.1394  -50.4996 C.3       20 UNK         0.1400 
    111 CB        -1.1768  -19.3210  -49.6830 C.3       20 UNK        -0.1800 
    112 C         -1.6904  -20.5867  -51.8905 C.2       20 UNK         0.5000 
    113 O         -0.4969  -20.8286  -52.0642 O.2       20 UNK        -0.5000 
    114 N         -2.6238  -20.7050  -52.8455 N.am      21 UNK        -0.5000 
    115 CA        -2.4306  -21.0577  -54.2549 C.3       21 UNK         0.1400 
    116 CB        -1.8289  -22.4720  -54.3998 C.3       21 UNK        -0.1800 
    117 C         -1.6741  -19.9914  -55.0806 C.2       21 UNK         0.5000 
    118 O         -1.1868  -20.3086  -56.1676 O.2       21 UNK        -0.5000 
    119 N         -1.6191  -18.7441  -54.5913 N.am      22 UNK        -0.5000 
    120 CA        -1.1540  -17.5810  -55.3654 C.3       22 UNK         0.1400 
    121 C         -2.2499  -17.0816  -56.3488 C.2       22 UNK         0.5000 
    122 N         -1.8588  -16.5044  -57.4769 N.am      22 UNK        -0.7600 
    123 O         -3.4476  -17.1791  -56.0891 O.2       22 UNK        -0.5000 
    124 C124       -0.6725  -16.4260  -54.4501 C.3       23 UNK        -0.0398 
    125 S125        0.9582  -16.7605  -53.6997 S.3       23 UNK        -0.2404 
    126 C126        0.4410  -17.3263  -52.0596 C.3       23 UNK        -0.0205 
    127 H127        5.5786  -11.0876  -51.2067 H         1 UNK         0.0600 
    128 H128        5.7029  -12.7855  -50.7372 H         1 UNK         0.0600 
    129 H129        6.9084  -11.6245  -50.1749 H         1 UNK         0.0600 
    130 H130        4.2386  -13.3324  -49.1505 H         1 UNK         0.3000 
    131 H131        3.8428  -11.6373  -46.8006 H         1 UNK         0.0600 
    132 H132        4.2833  -14.0676  -46.5193 H         1 UNK         0.0800 
    133 H133        2.8076  -13.5351  -45.7853 H         1 UNK         0.0800 
    134 H134        4.2328  -16.4692  -47.5888 H         1 UNK         0.0800 
    135 H135        4.3533  -15.3360  -48.9174 H         1 UNK         0.0800 
    136 H136        1.6812  -15.7187  -50.2659 H         1 UNK         0.1150 
    137 H137        1.8116  -19.6762  -51.8755 H         1 UNK         0.1150 
    138 H138        4.4844  -18.5732  -48.7114 H         1 UNK         0.1150 
    139 H139        3.5081  -21.2052  -51.2370 H         1 UNK         0.0800 
    140 H140        4.9271  -20.5628  -50.4527 H         1 UNK         0.0800 
    141 H141        1.3086  -21.5455  -49.8838 H         1 UNK         0.0800 
    142 H142        1.3542  -20.7737  -48.3130 H         1 UNK         0.0800 
    143 H143        1.2820  -23.7757  -48.8732 H         1 UNK         0.0600 
    144 H144        2.0459  -22.4712  -46.4269 H         1 UNK         0.3000 
    145 H145        1.2236  -25.1826  -44.2636 H         1 UNK         0.0600 
    146 H146        3.6528  -25.1841  -43.7801 H         1 UNK         0.0600 
    147 H147        3.3485  -25.9806  -45.3156 H         1 UNK         0.0600 
    148 H148        3.9851  -24.3401  -45.2935 H         1 UNK         0.0600 
    149 H149        2.7133  -22.8421  -43.7633 H         1 UNK         0.3000 
    150 H150        0.0601  -21.0340  -42.4326 H         1 UNK         0.0600 
    151 H151        2.2282  -21.9508  -41.5342 H         1 UNK         0.0600 
    152 H152        2.2037  -20.1976  -41.6019 H         1 UNK         0.0600 
    153 H153        3.1054  -21.1021  -42.8083 H         1 UNK         0.0600 
    154 H154        0.2460  -19.2567  -43.7093 H         1 UNK         0.3000 
    155 H155        2.5566  -18.1334  -46.1607 H         1 UNK         0.0600 
    156 H156       -0.4784  -18.5133  -46.2923 H         1 UNK         0.0600 
    157 H157        0.3702  -17.1617  -47.0334 H         1 UNK         0.0600 
    158 H158        0.6974  -18.7901  -47.5757 H         1 UNK         0.0600 
    159 H159        0.5626  -16.7691  -44.6706 H         1 UNK         0.3000 
    160 H160        2.5309  -16.0613  -41.7660 H         1 UNK         0.0600 
    161 H161        1.4887  -14.3223  -44.0571 H         1 UNK         0.0600 
    162 H162        3.1562  -14.3708  -43.4865 H         1 UNK         0.0600 
    163 H163        1.8848  -13.7704  -42.4321 H         1 UNK         0.0600 
    164 H164       -0.1838  -15.6831  -42.9055 H         1 UNK         0.3000 
    165 H165       -1.6928  -17.9071  -40.6272 H         1 UNK         0.0600 
    166 H166       -3.0001  -15.9502  -39.8407 H         1 UNK         0.0600 
    167 H167       -1.4047  -15.9457  -39.1068 H         1 UNK         0.0600 
    168 H168       -1.7580  -14.8470  -40.4350 H         1 UNK         0.0600 
    169 H169       -2.7673  -15.9367  -42.4113 H         1 UNK         0.3000 
    170 H170       -2.5895  -17.8653  -45.3766 H         1 UNK         0.0600 
    171 H171       -4.5417  -18.8681  -44.1528 H         1 UNK         0.0600 
    172 H172       -5.0410  -17.2581  -43.6484 H         1 UNK         0.0600 
    173 H173       -5.0384  -17.6935  -45.3589 H         1 UNK         0.0600 
    174 H174       -3.9279  -15.4992  -45.1277 H         1 UNK         0.3000 
    175 H175       -3.1877  -13.5718  -45.8294 H         1 UNK         0.0600 
    176 H176       -0.3816  -12.8649  -44.8048 H         1 UNK         0.0600 
    177 H177       -1.6217  -11.7195  -45.3036 H         1 UNK         0.0600 
    178 H178       -1.8699  -12.7168  -43.8769 H         1 UNK         0.0600 
    179 H179       -0.6607  -13.2653  -47.1888 H         1 UNK         0.3000 
    180 H180       -0.5441  -15.2319  -49.4198 H         1 UNK         0.0600 
    181 H181       -2.8250  -13.7149  -50.7884 H         1 UNK         0.0600 
    182 H182       -2.5914  -15.4545  -50.7396 H         1 UNK         0.0600 
    183 H183       -1.4638  -14.4497  -51.6333 H         1 UNK         0.0600 
    184 H184        0.6739  -13.3984  -49.5463 H         1 UNK         0.3000 
    185 H185        0.6871  -10.7161  -50.7233 H         1 UNK         0.0600 
    186 H186       -0.7123   -9.0561  -49.5845 H         1 UNK         0.0600 
    187 H187       -0.1766   -9.6033  -48.0034 H         1 UNK         0.0600 
    188 H188        0.9576   -8.8159  -49.1003 H         1 UNK         0.0600 
    189 H189        2.5081  -11.5026  -49.7492 H         1 UNK         0.3000 
    190 H190       -0.4615  -21.8310  -46.4418 H         1 UNK         0.3000 
    191 H191       -2.9617  -21.6836  -47.9144 H         1 UNK         0.0600 
    192 H192       -2.3222  -21.1325  -44.9751 H         1 UNK         0.0600 
    193 H193       -3.8460  -20.7804  -45.7832 H         1 UNK         0.0600 
    194 H194       -2.3823  -19.9531  -46.2835 H         1 UNK         0.0600 
    195 H195       -1.6053  -23.7918  -45.3689 H         1 UNK         0.3000 
    196 H196       -3.8880  -25.4245  -44.9703 H         1 UNK         0.0600 
    197 H197       -2.2841  -27.0250  -43.9785 H         1 UNK         0.0600 
    198 H198       -1.8986  -25.3907  -43.4576 H         1 UNK         0.0600 
    199 H199       -0.9285  -26.1740  -44.7030 H         1 UNK         0.0600 
    200 H200       -1.1126  -25.8265  -47.2384 H         1 UNK         0.3000 
    201 H201       -2.0147  -28.1842  -48.5174 H         1 UNK         0.0600 
    202 H202        0.3111  -27.3508  -48.6768 H         1 UNK         0.0600 
    203 H203       -0.2258  -25.9239  -49.5610 H         1 UNK         0.0600 
    204 H204       -0.3720  -27.5206  -50.2866 H         1 UNK         0.0600 
    205 H205       -2.7540  -24.7656  -49.1656 H         1 UNK         0.3000 
    206 H206       -4.3432  -25.2920  -51.5437 H         1 UNK         0.0600 
    207 H207       -3.0171  -23.1927  -51.1650 H         1 UNK         0.0600 
    208 H208       -4.7062  -22.8730  -51.4986 H         1 UNK         0.0600 
    209 H209       -4.1091  -22.7589  -49.8452 H         1 UNK         0.0600 
    210 H210       -5.0236  -26.0327  -48.3958 H         1 UNK         0.3000 
    211 H211       -6.7982  -26.5281  -47.1960 H         1 UNK         0.0600 
    212 H212       -8.3957  -26.4689  -49.8096 H         1 UNK         0.0600 
    213 H213       -8.8568  -27.2820  -48.3211 H         1 UNK         0.0600 
    214 H214       -7.4536  -27.8371  -49.2187 H         1 UNK         0.0600 
    215 H215       -6.0696  -23.9413  -47.0302 H         1 UNK         0.3000 
    216 H216       -6.5942  -22.1070  -45.9885 H         1 UNK         0.0600 
    217 H217       -8.6736  -21.7950  -44.7481 H         1 UNK         0.0600 
    218 H218       -8.1711  -23.4689  -44.5908 H         1 UNK         0.0600 
    219 H219       -9.4911  -23.0384  -45.6792 H         1 UNK         0.0600 
    220 H220       -7.0984  -22.5046  -48.9778 H         1 UNK         0.3000 
    221 H221       -8.5585  -20.0375  -49.6650 H         1 UNK         0.0600 
    222 H222       -6.7840  -21.8422  -51.3977 H         1 UNK         0.0600 
    223 H223       -8.5166  -22.0680  -51.1906 H         1 UNK         0.0600 
    224 H224       -7.9103  -20.6175  -51.9656 H         1 UNK         0.0600 
    225 H225       -6.9974  -18.7371  -51.3953 H         1 UNK         0.3000 
    226 H226       -5.1180  -17.2813  -49.7965 H         1 UNK         0.0600 
    227 H227       -6.6336  -16.2216  -51.4581 H         1 UNK         0.0600 
    228 H228       -4.9560  -15.8536  -51.8131 H         1 UNK         0.0600 
    229 H229       -5.8051  -17.0613  -52.7707 H         1 UNK         0.0600 
    230 H230       -4.1551  -19.7878  -49.7958 H         1 UNK         0.3000 
    231 H231       -2.3467  -21.0743  -49.9682 H         1 UNK         0.0600 
    232 H232       -0.1695  -19.7201  -49.7650 H         1 UNK         0.0600 
    233 H233       -1.4448  -19.3329  -48.6273 H         1 UNK         0.0600 
    234 H234       -1.1439  -18.2783  -49.9940 H         1 UNK         0.0600 
    235 H235       -3.5686  -20.4585  -52.5883 H         1 UNK         0.3000 
    236 H236       -3.4332  -21.0935  -54.6830 H         1 UNK         0.0600 
    237 H237       -1.8614  -22.8066  -55.4372 H         1 UNK         0.0600 
    238 H238       -0.7867  -22.5051  -54.0816 H         1 UNK         0.0600 
    239 H239       -2.3843  -23.2002  -53.8087 H         1 UNK         0.0600 
    240 H240       -2.0867  -18.5402  -53.7154 H         1 UNK         0.3000 
    241 H241       -0.3034  -17.8970  -55.9732 H         1 UNK         0.0600 
    242 H242       -2.5574  -16.1642  -58.1199 H         1 UNK         0.3800 
    243 H243       -0.8830  -16.4077  -57.7133 H         1 UNK         0.3800 
    244 H244       -0.5591  -15.5032  -55.0221 H         1 UNK         0.0800 
    245 H245       -1.4134  -16.2069  -53.6790 H         1 UNK         0.0800 
    246 H246       -0.1907  -18.2020  -52.1844 H         1 UNK         0.0800 
    247 H247       -0.1824  -16.5650  -51.5912 H         1 UNK         0.0800 
@<TRIPOS>BOND
     1    1    2 1    
     2    1  127 1    
     3    1  128 1    
     4    1  129 1    
     5    2    3 2    
     6    2    4 am   BACKBONE|DICT|INTERRES
     7    4    5 1    
     8    4  130 1    
     9    5    6 1    
    10    5   65 1    
    11    5  131 1    
    12    6    7 1    
    13    6  132 1    
    14    6  133 1    
    15    7    8 1    
    16    8    9 1    
    17    8  134 1    
    18    8  135 1    
    19    9   10 ar   
    20    9   14 ar   
    21   10   11 ar   
    22   10  136 1    
    23   11   12 ar   
    24   11  126 1    
    25   12   13 ar   
    26   12  137 1    
    27   13   14 ar   
    28   13   15 1    
    29   14  138 1    
    30   15   16 1    
    31   15  139 1    
    32   15  140 1    
    33   16   17 1    
    34   17   18 1    
    35   17  141 1    
    36   17  142 1    
    37   18   19 1    
    38   18   67 1    
    39   18  143 1    
    40   19   20 am   BACKBONE|DICT|INTERRES
    41   19  144 1    
    42   20   21 2    
    43   20   22 1    
    44   22   23 1    
    45   22   24 1    
    46   22  145 1    
    47   23  146 1    
    48   23  147 1    
    49   23  148 1    
    50   24   25 am   BACKBONE|DICT|INTERRES
    51   24  149 1    
    52   25   26 2    
    53   25   27 1    
    54   27   28 1    
    55   27   29 1    
    56   27  150 1    
    57   28  151 1    
    58   28  152 1    
    59   28  153 1    
    60   29   30 am   BACKBONE|DICT|INTERRES
    61   29  154 1    
    62   30   31 2    
    63   30   32 1    
    64   32   33 1    
    65   32   34 1    
    66   32  155 1    
    67   33  156 1    
    68   33  157 1    
    69   33  158 1    
    70   34   35 am   BACKBONE|DICT|INTERRES
    71   34  159 1    
    72   35   36 2    
    73   35   37 1    
    74   37   38 1    
    75   37   39 1    
    76   37  160 1    
    77   38  161 1    
    78   38  162 1    
    79   38  163 1    
    80   39   40 am   BACKBONE|DICT|INTERRES
    81   39  164 1    
    82   40   41 2    
    83   40   42 1    
    84   42   43 1    
    85   42   44 1    
    86   42  165 1    
    87   43  166 1    
    88   43  167 1    
    89   43  168 1    
    90   44   45 am   BACKBONE|DICT|INTERRES
    91   44  169 1    
    92   45   46 2    
    93   45   47 1    
    94   47   48 1    
    95   47   49 1    
    96   47  170 1    
    97   48  171 1    
    98   48  172 1    
    99   48  173 1    
   100   49   50 am   BACKBONE|DICT|INTERRES
   101   49  174 1    
   102   50   51 2    
   103   50   52 1    
   104   52   53 1    
   105   52   54 1    
   106   52  175 1    
   107   53  176 1    
   108   53  177 1    
   109   53  178 1    
   110   54   55 am   BACKBONE|DICT|INTERRES
   111   54  179 1    
   112   55   56 2    
   113   55   57 1    
   114   57   58 1    
   115   57   59 1    
   116   57  180 1    
   117   58  181 1    
   118   58  182 1    
   119   58  183 1    
   120   59   60 am   BACKBONE|DICT|INTERRES
   121   59  184 1    
   122   60   61 2    
   123   60   62 1    
   124   62   63 1    
   125   62   64 1    
   126   62  185 1    
   127   63  186 1    
   128   63  187 1    
   129   63  188 1    
   130   64   65 am   BACKBONE|DICT|INTERRES
   131   64  189 1    
   132   65   66 2    
   133   67   68 2    
   134   67   69 am   BACKBONE|DICT|INTERRES
   135   69   70 1    
   136   69  190 1    
   137   70   71 1    
   138   70   72 1    
   139   70  191 1    
   140   71  192 1    
   141   71  193 1    
   142   71  194 1    
   143   72   73 2    
   144   72   74 am   BACKBONE|DICT|INTERRES
   145   74   75 1    
   146   74  195 1    
   147   75   76 1    
   148   75   77 1    
   149   75  196 1    
   150   76  197 1    
   151   76  198 1    
   152   76  199 1    
   153   77   78 2    
   154   77   79 am   BACKBONE|DICT|INTERRES
   155   79   80 1    
   156   79  200 1    
   157   80   81 1    
   158   80   82 1    
   159   80  201 1    
   160   81  202 1    
   161   81  203 1    
   162   81  204 1    
   163   82   83 2    
   164   82   84 am   BACKBONE|DICT|INTERRES
   165   84   85 1    
   166   84  205 1    
   167   85   86 1    
   168   85   87 1    
   169   85  206 1    
   170   86  207 1    
   171   86  208 1    
   172   86  209 1    
   173   87   88 2    
   174   87   89 am   BACKBONE|DICT|INTERRES
   175   89   90 1    
   176   89  210 1    
   177   90   91 1    
   178   90   92 1    
   179   90  211 1    
   180   91  212 1    
   181   91  213 1    
   182   91  214 1    
   183   92   93 2    
   184   92   94 am   BACKBONE|DICT|INTERRES
   185   94   95 1    
   186   94  215 1    
   187   95   96 1    
   188   95   97 1    
   189   95  216 1    
   190   96  217 1    
   191   96  218 1    
   192   96  219 1    
   193   97   98 2    
   194   97   99 am   BACKBONE|DICT|INTERRES
   195   99  100 1    
   196   99  220 1    
   197  100  101 1    
   198  100  102 1    
   199  100  221 1    
   200  101  222 1    
   201  101  223 1    
   202  101  224 1    
   203  102  103 2    
   204  102  104 am   BACKBONE|DICT|INTERRES
   205  104  105 1    
   206  104  225 1    
   207  105  106 1    
   208  105  107 1    
   209  105  226 1    
   210  106  227 1    
   211  106  228 1    
   212  106  229 1    
   213  107  108 2    
   214  107  109 am   BACKBONE|DICT|INTERRES
   215  109  110 1    
   216  109  230 1    
   217  110  111 1    
   218  110  112 1    
   219  110  231 1    
   220  111  232 1    
   221  111  233 1    
   222  111  234 1    
   223  112  113 2    
   224  112  114 am   BACKBONE|DICT|INTERRES
   225  114  115 1    
   226  114  235 1    
   227  115  116 1    
   228  115  117 1    
   229  115  236 1    
   230  116  237 1    
   231  116  238 1    
   232  116  239 1    
   233  117  118 2    
   234  117  119 am   BACKBONE|DICT|INTERRES
   235  119  120 1    
   236  119  240 1    
   237  120  121 1    
   238  120  124 1    
   239  120  241 1    
   240  121  122 am   BACKBONE|DICT|INTERRES
   241  121  123 2    
   242  122  242 1    
   243  122  243 1    
   244  124  125 1    
   245  124  244 1    
   246  124  245 1    
   247  125  126 1    
   248  126  246 1    
   249  126  247 1    
@<TRIPOS>SUBSTRUCTURE
     1 UNK         1 GROUP             0       ****    0 ROOT    
