@<TRIPOS>MOLECULE
3R540
247   249    1
SMALL
USER_CHARGES


@<TRIPOS>ATOM
      1 CA         -0.8538   -8.4022  -46.8479 C.3       0 UNK        -0.1800 
      2 C          -0.6595   -9.8973  -47.0506 C.2       0 UNK         0.5000 
      3 O          -0.4440  -10.6192  -46.0779 O.2       0 UNK        -0.5000 
      4 N          -0.7516  -10.3622  -48.3051 N.am      1 UNK        -0.5000 
      5 CA         -0.5785  -11.7560  -48.7437 C.3       1 UNK         0.1400 
      6 C6         -0.7662  -11.8640  -50.2836 C.3       23 UNK        -0.0398 
      7 S7         -0.7577  -13.5575  -50.9768 S.3       23 UNK        -0.2404 
      8 C8         -2.5400  -13.7973  -51.2667 C.3       23 UNK        -0.0205 
      9 C9         -2.9056  -15.2698  -51.3344 C.ar      23 UNK        -0.0193 
     10 C10        -3.0763  -15.9044  -52.5677 C.ar      23 UNK        -0.1150 
     11 C11        -3.4170  -17.2605  -52.6291 C.ar      23 UNK        -0.0193 
     12 C12        -3.6179  -17.9699  -51.4394 C.ar      23 UNK        -0.1150 
     13 C13        -3.4694  -17.3394  -50.2005 C.ar      23 UNK        -0.0193 
     14 C14        -3.0990  -15.9935  -50.1550 C.ar      23 UNK        -0.1150 
     15 C15        -3.7374  -18.1016  -48.9132 C.3       23 UNK        -0.0205 
     16 S16        -2.3037  -19.0964  -48.4129 S.3       23 UNK        -0.2404 
     17 C17        -2.9329  -19.8643  -46.8868 C.3       23 UNK        -0.0398 
     18 CA         -2.4056  -21.3079  -46.7242 C.3       11 UNK         0.1400 
     19 N          -0.9689  -21.3571  -46.4396 N.am      11 UNK        -0.5000 
     20 C          -0.2272  -22.4680  -46.5467 C.2       10 UNK         0.5000 
     21 O          -0.6758  -23.5652  -46.8809 O.2       10 UNK        -0.5000 
     22 CA          1.2480  -22.3364  -46.1439 C.3       10 UNK         0.1400 
     23 CB          2.0197  -21.4463  -47.1321 C.3       10 UNK        -0.1800 
     24 N           1.3885  -21.8061  -44.7888 N.am      10 UNK        -0.5000 
     25 C           0.9865  -22.4337  -43.6751 C.2       9 UNK         0.5000 
     26 O           0.4164  -23.5244  -43.6856 O.2       9 UNK        -0.5000 
     27 CA          1.2002  -21.7215  -42.3261 C.3       9 UNK         0.1400 
     28 CB          1.8253  -22.6527  -41.2680 C.3       9 UNK        -0.1800 
     29 N           1.9166  -20.4457  -42.4167 N.am      9 UNK        -0.5000 
     30 C           3.2124  -20.2236  -42.6850 C.2       8 UNK         0.5000 
     31 O           4.0254  -21.1171  -42.9214 O.2       8 UNK        -0.5000 
     32 CA          3.6812  -18.7522  -42.7292 C.3       8 UNK         0.1400 
     33 CB          4.0908  -18.3706  -44.1608 C.3       8 UNK        -0.1800 
     34 N           2.6725  -17.7973  -42.2616 N.am      8 UNK        -0.5000 
     35 C           2.2773  -17.6431  -40.9902 C.2       7 UNK         0.5000 
     36 O           2.7953  -18.2260  -40.0375 O.2       7 UNK        -0.5000 
     37 CA          1.0599  -16.7289  -40.7539 C.3       7 UNK         0.1400 
     38 CB          1.5058  -15.2716  -40.5620 C.3       7 UNK        -0.1800 
     39 N           0.0683  -16.8006  -41.8328 N.am      7 UNK        -0.5000 
     40 C          -0.6405  -17.8919  -42.1600 C.2       6 UNK         0.5000 
     41 O          -0.5492  -18.9647  -41.5659 O.2       6 UNK        -0.5000 
     42 CA         -1.5622  -17.7916  -43.3872 C.3       6 UNK         0.1400 
     43 CB         -2.8746  -17.0740  -43.0433 C.3       6 UNK        -0.1800 
     44 N          -0.8941  -17.1075  -44.4917 N.am      6 UNK        -0.5000 
     45 C           0.0042  -17.6836  -45.3027 C.2       5 UNK         0.5000 
     46 O           0.2545  -18.8911  -45.2920 O.2       5 UNK        -0.5000 
     47 CA          0.7735  -16.7581  -46.2664 C.3       5 UNK         0.1400 
     48 CB          0.2184  -16.8445  -47.6911 C.3       5 UNK        -0.1800 
     49 N           0.7795  -15.3578  -45.8392 N.am      5 UNK        -0.5000 
     50 C           1.5322  -14.8967  -44.8325 C.2       4 UNK         0.5000 
     51 O           2.2555  -15.6144  -44.1428 O.2       4 UNK        -0.5000 
     52 CA          1.4400  -13.3946  -44.5194 C.3       4 UNK         0.1400 
     53 CB          2.2284  -12.5761  -45.5526 C.3       4 UNK        -0.1800 
     54 N           0.0690  -12.8905  -44.4423 N.am      4 UNK        -0.5000 
     55 C          -0.8595  -13.3065  -43.5703 C.2       3 UNK         0.5000 
     56 O          -0.6936  -14.2408  -42.7884 O.2       3 UNK        -0.5000 
     57 CA         -2.2046  -12.5657  -43.5869 C.3       3 UNK         0.1400 
     58 CB         -2.0743  -11.1685  -42.9603 C.3       3 UNK        -0.1800 
     59 N          -2.7110  -12.4477  -44.9502 N.am      3 UNK        -0.5000 
     60 C          -3.4231  -13.3984  -45.5689 C.2       2 UNK         0.5000 
     61 O          -3.8081  -14.4314  -45.0219 O.2       2 UNK        -0.5000 
     62 CA         -3.7501  -13.1692  -47.0565 C.3       2 UNK         0.1400 
     63 CB         -5.1227  -12.4983  -47.2121 C.3       2 UNK        -0.1800 
     64 N          -2.7468  -12.3749  -47.7685 N.am      2 UNK        -0.5000 
     65 C          -1.4711  -12.7434  -47.9564 C.2       1 UNK         0.5000 
     66 O          -0.9835  -13.7814  -47.5074 O.2       1 UNK        -0.5000 
     67 C          -3.2289  -22.0738  -45.6731 C.2       11 UNK         0.5000 
     68 O          -4.2921  -22.5866  -46.0182 O.2       11 UNK        -0.5000 
     69 N          -2.7278  -22.1645  -44.4330 N.am      12 UNK        -0.5000 
     70 CA         -3.3571  -22.9242  -43.3530 C.3       12 UNK         0.1400 
     71 CB         -2.7006  -22.5634  -42.0115 C.3       12 UNK        -0.1800 
     72 C          -3.3010  -24.4419  -43.6062 C.2       12 UNK         0.5000 
     73 O          -4.3149  -25.1208  -43.4428 O.2       12 UNK        -0.5000 
     74 N          -2.1276  -24.9399  -44.0213 N.am      13 UNK        -0.5000 
     75 CA         -1.8945  -26.3489  -44.3342 C.3       13 UNK         0.1400 
     76 CB         -0.3825  -26.6133  -44.4012 C.3       13 UNK        -0.1800 
     77 C          -2.5777  -26.7892  -45.6401 C.2       13 UNK         0.5000 
     78 O          -3.1761  -27.8650  -45.6786 O.2       13 UNK        -0.5000 
     79 N          -2.4728  -25.9581  -46.6855 N.am      14 UNK        -0.5000 
     80 CA         -2.9950  -26.2562  -48.0210 C.3       14 UNK         0.1400 
     81 CB         -2.2261  -25.4119  -49.0445 C.3       14 UNK        -0.1800 
     82 C          -4.5075  -26.0074  -48.1732 C.2       14 UNK         0.5000 
     83 O          -5.0895  -26.4920  -49.1442 O.2       14 UNK        -0.5000 
     84 N          -5.1025  -25.2420  -47.2438 N.am      15 UNK        -0.5000 
     85 CA         -6.4554  -24.6734  -47.3014 C.3       15 UNK         0.1400 
     86 CB         -7.5367  -25.7744  -47.2782 C.3       15 UNK        -0.1800 
     87 C          -6.5816  -23.7021  -48.4942 C.2       15 UNK         0.5000 
     88 O          -7.4488  -23.8691  -49.3538 O.2       15 UNK        -0.5000 
     89 N          -5.6599  -22.7277  -48.5242 N.am      16 UNK        -0.5000 
     90 CA         -5.3671  -21.7979  -49.6175 C.3       16 UNK         0.1400 
     91 CB         -6.5346  -20.8107  -49.8399 C.3       16 UNK        -0.1800 
     92 C          -4.9239  -22.5667  -50.8782 C.2       16 UNK         0.5000 
     93 O          -3.8541  -23.1764  -50.8535 O.2       16 UNK        -0.5000 
     94 N          -5.7444  -22.5437  -51.9375 N.am      17 UNK        -0.5000 
     95 CA         -5.5740  -23.2766  -53.1938 C.3       17 UNK         0.1400 
     96 CB         -5.7896  -24.7901  -52.9609 C.3       17 UNK        -0.1800 
     97 C          -4.2437  -22.9331  -53.8965 C.2       17 UNK         0.5000 
     98 O          -4.1247  -21.8391  -54.4474 O.2       17 UNK        -0.5000 
     99 N          -3.2844  -23.8671  -53.8766 N.am      18 UNK        -0.5000 
    100 CA        -1.9809  -23.7509  -54.5287 C.3       18 UNK         0.1400 
    101 CB        -1.4487  -25.1650  -54.8097 C.3       18 UNK        -0.1800 
    102 C         -0.9426  -22.9368  -53.7305 C.2       18 UNK         0.5000 
    103 O          0.0981  -22.5926  -54.2978 O.2       18 UNK        -0.5000 
    104 N         -1.2130  -22.6582  -52.4453 N.am      19 UNK        -0.5000 
    105 CA        -0.3410  -21.8773  -51.5615 C.3       19 UNK         0.1400 
    106 CB        -0.8830  -21.9375  -50.1287 C.3       19 UNK        -0.1800 
    107 C         -0.1600  -20.4157  -52.0145 C.2       19 UNK         0.5000 
    108 O         -0.9017  -19.9367  -52.8711 O.2       19 UNK        -0.5000 
    109 N          0.8594  -19.7500  -51.4500 N.am      20 UNK        -0.5000 
    110 CA         1.3051  -18.3868  -51.7805 C.3       20 UNK         0.1400 
    111 CB         0.2164  -17.3510  -51.4369 C.3       20 UNK        -0.1800 
    112 C          1.8082  -18.2539  -53.2370 C.2       20 UNK         0.5000 
    113 O          1.7601  -17.1659  -53.8124 O.2       20 UNK        -0.5000 
    114 N          2.2828  -19.3781  -53.7969 N.am      21 UNK        -0.5000 
    115 CA         2.7340  -19.5800  -55.1769 C.3       21 UNK         0.1400 
    116 CB         3.9665  -18.7069  -55.4955 C.3       21 UNK        -0.1800 
    117 C          1.6120  -19.4453  -56.2307 C.2       21 UNK         0.5000 
    118 O          1.9117  -19.2251  -57.4060 O.2       21 UNK        -0.5000 
    119 N          0.3472  -19.6031  -55.8150 N.am      22 UNK        -0.5000 
    120 CA        -0.8224  -19.6046  -56.7098 C.3       22 UNK         0.1400 
    121 C         -0.9498  -20.8870  -57.5832 C.2       22 UNK         0.5000 
    122 N         -0.3259  -22.0029  -57.2232 N.am      22 UNK        -0.7600 
    123 O         -1.6164  -20.8636  -58.6142 O.2       22 UNK        -0.5000 
    124 C124       -2.1412  -19.3428  -55.9439 C.3       23 UNK        -0.0398 
    125 S125       -2.1487  -17.7418  -55.0698 S.3       23 UNK        -0.2404 
    126 C126       -3.5895  -17.9615  -53.9716 C.3       23 UNK        -0.0205 
    127 H127       -1.0522   -7.8866  -47.7877 H         1 UNK         0.0600 
    128 H128       -1.6931   -8.2220  -46.1761 H         1 UNK         0.0600 
    129 H129        0.0403   -7.9667  -46.4020 H         1 UNK         0.0600 
    130 H130       -0.9337   -9.6987  -49.0448 H         1 UNK         0.3000 
    131 H131        0.4546  -12.0287  -48.5203 H         1 UNK         0.0600 
    132 H132        0.0311  -11.3083  -50.7791 H         1 UNK         0.0800 
    133 H133       -1.6912  -11.3692  -50.5841 H         1 UNK         0.0800 
    134 H134       -2.8250  -13.2877  -52.1884 H         1 UNK         0.0800 
    135 H135       -3.1183  -13.3301  -50.4688 H         1 UNK         0.0800 
    136 H136       -2.9295  -15.3475  -53.4823 H         1 UNK         0.1150 
    137 H137       -3.8888  -19.0157  -51.4752 H         1 UNK         0.1150 
    138 H138       -2.9635  -15.5056  -49.2009 H         1 UNK         0.1150 
    139 H139       -3.9886  -17.4079  -48.1090 H         1 UNK         0.0800 
    140 H140       -4.6063  -18.7455  -49.0465 H         1 UNK         0.0800 
    141 H141       -2.6521  -19.2442  -46.0347 H         1 UNK         0.0800 
    142 H142       -4.0241  -19.8568  -46.9246 H         1 UNK         0.0800 
    143 H143       -2.5700  -21.8310  -47.6689 H         1 UNK         0.0600 
    144 H144       -0.5273  -20.4954  -46.1304 H         1 UNK         0.3000 
    145 H145        1.6912  -23.3343  -46.1648 H         1 UNK         0.0600 
    146 H146        3.0793  -21.4067  -46.8789 H         1 UNK         0.0600 
    147 H147        1.9433  -21.8363  -48.1477 H         1 UNK         0.0600 
    148 H148        1.6417  -20.4233  -47.1434 H         1 UNK         0.0600 
    149 H149        1.7822  -20.8809  -44.6995 H         1 UNK         0.3000 
    150 H150        0.2026  -21.4640  -41.9720 H         1 UNK         0.0600 
    151 H151        1.1852  -23.5161  -41.0824 H         1 UNK         0.0600 
    152 H152        1.9559  -22.1371  -40.3166 H         1 UNK         0.0600 
    153 H153        2.7972  -23.0335  -41.5822 H         1 UNK         0.0600 
    154 H154        1.3344  -19.6368  -42.2351 H         1 UNK         0.3000 
    155 H155        4.5587  -18.6684  -42.0851 H         1 UNK         0.0600 
    156 H156        4.8812  -19.0242  -44.5322 H         1 UNK         0.0600 
    157 H157        4.4696  -17.3493  -44.2047 H         1 UNK         0.0600 
    158 H158        3.2502  -18.4474  -44.8509 H         1 UNK         0.0600 
    159 H159        2.2574  -17.1972  -42.9683 H         1 UNK         0.3000 
    160 H160        0.5734  -17.0597  -39.8341 H         1 UNK         0.0600 
    161 H161        1.9706  -14.8713  -41.4634 H         1 UNK         0.0600 
    162 H162        0.6604  -14.6313  -40.3096 H         1 UNK         0.0600 
    163 H163        2.2311  -15.1872  -39.7519 H         1 UNK         0.0600 
    164 H164       -0.1059  -15.9332  -42.3354 H         1 UNK         0.3000 
    165 H165       -1.8120  -18.8081  -43.6989 H         1 UNK         0.0600 
    166 H166       -3.5494  -17.0607  -43.8995 H         1 UNK         0.0600 
    167 H167       -3.3934  -17.5795  -42.2279 H         1 UNK         0.0600 
    168 H168       -2.7071  -16.0416  -42.7362 H         1 UNK         0.0600 
    169 H169       -1.0272  -16.1084  -44.5569 H         1 UNK         0.3000 
    170 H170        1.8066  -17.1097  -46.2966 H         1 UNK         0.0600 
    171 H171        0.3100  -17.8600  -48.0767 H         1 UNK         0.0600 
    172 H172       -0.8338  -16.5605  -47.7322 H         1 UNK         0.0600 
    173 H173        0.7650  -16.1908  -48.3710 H         1 UNK         0.0600 
    174 H174        0.1846  -14.7170  -46.3613 H         1 UNK         0.3000 
    175 H175        1.8999  -13.2357  -43.5420 H         1 UNK         0.0600 
    176 H176        1.7925  -12.6605  -46.5484 H         1 UNK         0.0600 
    177 H177        2.2482  -11.5193  -45.2858 H         1 UNK         0.0600 
    178 H178        3.2629  -12.9159  -45.6152 H         1 UNK         0.0600 
    179 H179       -0.1551  -12.1105  -45.0566 H         1 UNK         0.3000 
    180 H180       -2.9120  -13.1369  -42.9816 H         1 UNK         0.0600 
    181 H181       -1.7041  -11.2350  -41.9364 H         1 UNK         0.0600 
    182 H182       -1.3853  -10.5327  -43.5171 H         1 UNK         0.0600 
    183 H183       -3.0395  -10.6632  -42.9245 H         1 UNK         0.0600 
    184 H184       -2.3797  -11.6596  -45.4902 H         1 UNK         0.3000 
    185 H185       -3.7973  -14.1509  -47.5301 H         1 UNK         0.0600 
    186 H186       -5.8997  -13.0779  -46.7118 H         1 UNK         0.0600 
    187 H187       -5.1318  -11.4962  -46.7816 H         1 UNK         0.0600 
    188 H188       -5.4055  -12.4172  -48.2619 H         1 UNK         0.0600 
    189 H189       -3.0524  -11.4873  -48.1397 H         1 UNK         0.3000 
    190 H190       -1.8324  -21.7427  -44.2412 H         1 UNK         0.3000 
    191 H191       -4.4078  -22.6297  -43.3028 H         1 UNK         0.0600 
    192 H192       -3.2411  -23.0226  -41.1830 H         1 UNK         0.0600 
    193 H193       -2.7016  -21.4861  -41.8431 H         1 UNK         0.0600 
    194 H194       -1.6705  -22.9138  -41.9568 H         1 UNK         0.0600 
    195 H195       -1.3216  -24.3255  -44.0934 H         1 UNK         0.3000 
    196 H196       -2.3059  -26.9522  -43.5221 H         1 UNK         0.0600 
    197 H197       -0.1767  -27.6601  -44.6280 H         1 UNK         0.0600 
    198 H198        0.0988  -26.3854  -43.4500 H         1 UNK         0.0600 
    199 H199        0.0981  -26.0076  -45.1710 H         1 UNK         0.0600 
    200 H200       -1.9284  -25.1053  -46.5908 H         1 UNK         0.3000 
    201 H201       -2.8094  -27.3089  -48.2448 H         1 UNK         0.0600 
    202 H202       -1.1513  -25.5809  -48.9784 H         1 UNK         0.0600 
    203 H203       -2.4135  -24.3506  -48.8835 H         1 UNK         0.0600 
    204 H204       -2.5340  -25.6469  -50.0642 H         1 UNK         0.0600 
    205 H205       -4.5202  -24.8811  -46.4999 H         1 UNK         0.3000 
    206 H206       -6.5805  -24.0768  -46.3966 H         1 UNK         0.0600 
    207 H207       -7.4039  -26.4376  -46.4236 H         1 UNK         0.0600 
    208 H208       -8.5318  -25.3356  -47.1984 H         1 UNK         0.0600 
    209 H209       -7.5243  -26.3845  -48.1815 H         1 UNK         0.0600 
    210 H210       -5.0228  -22.6924  -47.7334 H         1 UNK         0.3000 
    211 H211       -4.5005  -21.2162  -49.3026 H         1 UNK         0.0600 
    212 H212       -7.4567  -21.3122  -50.1343 H         1 UNK         0.0600 
    213 H213       -6.2898  -20.0821  -50.6139 H         1 UNK         0.0600 
    214 H214       -6.7450  -20.2506  -48.9288 H         1 UNK         0.0600 
    215 H215       -6.5939  -22.0031  -51.8618 H         1 UNK         0.3000 
    216 H216       -6.3661  -22.9344  -53.8615 H         1 UNK         0.0600 
    217 H217       -6.7896  -24.9813  -52.5710 H         1 UNK         0.0600 
    218 H218       -5.0795  -25.2078  -52.2461 H         1 UNK         0.0600 
    219 H219       -5.6965  -25.3501  -53.8923 H         1 UNK         0.0600 
    220 H220       -3.4595  -24.7195  -53.3645 H         1 UNK         0.3000 
    221 H221       -2.1210  -23.2465  -55.4864 H         1 UNK         0.0600 
    222 H222       -1.2924  -25.7262  -53.8876 H         1 UNK         0.0600 
    223 H223       -2.1403  -25.7301  -55.4349 H         1 UNK         0.0600 
    224 H224       -0.4945  -25.1274  -55.3370 H         1 UNK         0.0600 
    225 H225       -2.1076  -22.9413  -52.0613 H         1 UNK         0.3000 
    226 H226        0.6440  -22.3481  -51.5735 H         1 UNK         0.0600 
    227 H227       -1.9062  -21.5676  -50.0744 H         1 UNK         0.0600 
    228 H228       -0.8659  -22.9577  -49.7514 H         1 UNK         0.0600 
    229 H229       -0.2833  -21.3353  -49.4461 H         1 UNK         0.0600 
    230 H230        1.4149  -20.2253  -50.7530 H         1 UNK         0.3000 
    231 H231        2.1642  -18.1848  -51.1395 H         1 UNK         0.0600 
    232 H232       -0.2149  -17.5292  -50.4529 H         1 UNK         0.0600 
    233 H233        0.6226  -16.3394  -51.4396 H         1 UNK         0.0600 
    234 H234       -0.5972  -17.3742  -52.1610 H         1 UNK         0.0600 
    235 H235        2.2642  -20.2129  -53.2288 H         1 UNK         0.3000 
    236 H236        3.0556  -20.6210  -55.2290 H         1 UNK         0.0600 
    237 H237        4.7401  -18.8233  -54.7365 H         1 UNK         0.0600 
    238 H238        4.4087  -18.9886  -56.4518 H         1 UNK         0.0600 
    239 H239        3.7106  -17.6489  -55.5560 H         1 UNK         0.0600 
    240 H240        0.1552  -19.7593  -54.8323 H         1 UNK         0.3000 
    241 H241       -0.6927  -18.7787  -57.4120 H         1 UNK         0.0600 
    242 H242       -0.3954  -22.8197  -57.8086 H         1 UNK         0.3800 
    243 H243        0.1672  -22.0537  -56.3402 H         1 UNK         0.3800 
    244 H244       -2.9972  -19.3593  -56.6209 H         1 UNK         0.0800 
    245 H245       -2.3018  -20.1414  -55.2190 H         1 UNK         0.0800 
    246 H246       -3.7629  -19.0267  -53.8102 H         1 UNK         0.0800 
    247 H247       -4.4803  -17.5754  -54.4681 H         1 UNK         0.0800 
@<TRIPOS>BOND
     1    1    2 1    
     2    1  127 1    
     3    1  128 1    
     4    1  129 1    
     5    2    3 2    
     6    2    4 am   BACKBONE|DICT|INTERRES
     7    4    5 1    
     8    4  130 1    
     9    5    6 1    
    10    5   65 1    
    11    5  131 1    
    12    6    7 1    
    13    6  132 1    
    14    6  133 1    
    15    7    8 1    
    16    8    9 1    
    17    8  134 1    
    18    8  135 1    
    19    9   10 ar   
    20    9   14 ar   
    21   10   11 ar   
    22   10  136 1    
    23   11   12 ar   
    24   11  126 1    
    25   12   13 ar   
    26   12  137 1    
    27   13   14 ar   
    28   13   15 1    
    29   14  138 1    
    30   15   16 1    
    31   15  139 1    
    32   15  140 1    
    33   16   17 1    
    34   17   18 1    
    35   17  141 1    
    36   17  142 1    
    37   18   19 1    
    38   18   67 1    
    39   18  143 1    
    40   19   20 am   BACKBONE|DICT|INTERRES
    41   19  144 1    
    42   20   21 2    
    43   20   22 1    
    44   22   23 1    
    45   22   24 1    
    46   22  145 1    
    47   23  146 1    
    48   23  147 1    
    49   23  148 1    
    50   24   25 am   BACKBONE|DICT|INTERRES
    51   24  149 1    
    52   25   26 2    
    53   25   27 1    
    54   27   28 1    
    55   27   29 1    
    56   27  150 1    
    57   28  151 1    
    58   28  152 1    
    59   28  153 1    
    60   29   30 am   BACKBONE|DICT|INTERRES
    61   29  154 1    
    62   30   31 2    
    63   30   32 1    
    64   32   33 1    
    65   32   34 1    
    66   32  155 1    
    67   33  156 1    
    68   33  157 1    
    69   33  158 1    
    70   34   35 am   BACKBONE|DICT|INTERRES
    71   34  159 1    
    72   35   36 2    
    73   35   37 1    
    74   37   38 1    
    75   37   39 1    
    76   37  160 1    
    77   38  161 1    
    78   38  162 1    
    79   38  163 1    
    80   39   40 am   BACKBONE|DICT|INTERRES
    81   39  164 1    
    82   40   41 2    
    83   40   42 1    
    84   42   43 1    
    85   42   44 1    
    86   42  165 1    
    87   43  166 1    
    88   43  167 1    
    89   43  168 1    
    90   44   45 am   BACKBONE|DICT|INTERRES
    91   44  169 1    
    92   45   46 2    
    93   45   47 1    
    94   47   48 1    
    95   47   49 1    
    96   47  170 1    
    97   48  171 1    
    98   48  172 1    
    99   48  173 1    
   100   49   50 am   BACKBONE|DICT|INTERRES
   101   49  174 1    
   102   50   51 2    
   103   50   52 1    
   104   52   53 1    
   105   52   54 1    
   106   52  175 1    
   107   53  176 1    
   108   53  177 1    
   109   53  178 1    
   110   54   55 am   BACKBONE|DICT|INTERRES
   111   54  179 1    
   112   55   56 2    
   113   55   57 1    
   114   57   58 1    
   115   57   59 1    
   116   57  180 1    
   117   58  181 1    
   118   58  182 1    
   119   58  183 1    
   120   59   60 am   BACKBONE|DICT|INTERRES
   121   59  184 1    
   122   60   61 2    
   123   60   62 1    
   124   62   63 1    
   125   62   64 1    
   126   62  185 1    
   127   63  186 1    
   128   63  187 1    
   129   63  188 1    
   130   64   65 am   BACKBONE|DICT|INTERRES
   131   64  189 1    
   132   65   66 2    
   133   67   68 2    
   134   67   69 am   BACKBONE|DICT|INTERRES
   135   69   70 1    
   136   69  190 1    
   137   70   71 1    
   138   70   72 1    
   139   70  191 1    
   140   71  192 1    
   141   71  193 1    
   142   71  194 1    
   143   72   73 2    
   144   72   74 am   BACKBONE|DICT|INTERRES
   145   74   75 1    
   146   74  195 1    
   147   75   76 1    
   148   75   77 1    
   149   75  196 1    
   150   76  197 1    
   151   76  198 1    
   152   76  199 1    
   153   77   78 2    
   154   77   79 am   BACKBONE|DICT|INTERRES
   155   79   80 1    
   156   79  200 1    
   157   80   81 1    
   158   80   82 1    
   159   80  201 1    
   160   81  202 1    
   161   81  203 1    
   162   81  204 1    
   163   82   83 2    
   164   82   84 am   BACKBONE|DICT|INTERRES
   165   84   85 1    
   166   84  205 1    
   167   85   86 1    
   168   85   87 1    
   169   85  206 1    
   170   86  207 1    
   171   86  208 1    
   172   86  209 1    
   173   87   88 2    
   174   87   89 am   BACKBONE|DICT|INTERRES
   175   89   90 1    
   176   89  210 1    
   177   90   91 1    
   178   90   92 1    
   179   90  211 1    
   180   91  212 1    
   181   91  213 1    
   182   91  214 1    
   183   92   93 2    
   184   92   94 am   BACKBONE|DICT|INTERRES
   185   94   95 1    
   186   94  215 1    
   187   95   96 1    
   188   95   97 1    
   189   95  216 1    
   190   96  217 1    
   191   96  218 1    
   192   96  219 1    
   193   97   98 2    
   194   97   99 am   BACKBONE|DICT|INTERRES
   195   99  100 1    
   196   99  220 1    
   197  100  101 1    
   198  100  102 1    
   199  100  221 1    
   200  101  222 1    
   201  101  223 1    
   202  101  224 1    
   203  102  103 2    
   204  102  104 am   BACKBONE|DICT|INTERRES
   205  104  105 1    
   206  104  225 1    
   207  105  106 1    
   208  105  107 1    
   209  105  226 1    
   210  106  227 1    
   211  106  228 1    
   212  106  229 1    
   213  107  108 2    
   214  107  109 am   BACKBONE|DICT|INTERRES
   215  109  110 1    
   216  109  230 1    
   217  110  111 1    
   218  110  112 1    
   219  110  231 1    
   220  111  232 1    
   221  111  233 1    
   222  111  234 1    
   223  112  113 2    
   224  112  114 am   BACKBONE|DICT|INTERRES
   225  114  115 1    
   226  114  235 1    
   227  115  116 1    
   228  115  117 1    
   229  115  236 1    
   230  116  237 1    
   231  116  238 1    
   232  116  239 1    
   233  117  118 2    
   234  117  119 am   BACKBONE|DICT|INTERRES
   235  119  120 1    
   236  119  240 1    
   237  120  121 1    
   238  120  124 1    
   239  120  241 1    
   240  121  122 am   BACKBONE|DICT|INTERRES
   241  121  123 2    
   242  122  242 1    
   243  122  243 1    
   244  124  125 1    
   245  124  244 1    
   246  124  245 1    
   247  125  126 1    
   248  126  246 1    
   249  126  247 1    
@<TRIPOS>SUBSTRUCTURE
     1 UNK         1 GROUP             0       ****    0 ROOT    
