@<TRIPOS>MOLECULE
3R540
247   249    1
SMALL
USER_CHARGES


@<TRIPOS>ATOM
      1 CA          9.4741  -12.0256  -50.0838 C.3       0 UNK        -0.1800 
      2 C           8.3924  -13.0860  -49.9301 C.2       0 UNK         0.5000 
      3 O           8.7060  -14.2458  -49.6592 O.2       0 UNK        -0.5000 
      4 N           7.1246  -12.6955  -50.1101 N.am      1 UNK        -0.5000 
      5 CA          5.9499  -13.5551  -49.9316 C.3       1 UNK         0.1400 
      6 C6          4.7115  -12.9739  -50.6687 C.3       23 UNK        -0.0398 
      7 S7          3.5819  -14.2749  -51.2759 S.3       23 UNK        -0.2404 
      8 C8          2.1444  -14.0682  -50.1689 C.3       23 UNK        -0.0205 
      9 C9          1.1310  -15.2085  -50.2500 C.ar      23 UNK        -0.0193 
     10 C10        -0.2338  -14.9201  -50.1486 C.ar      23 UNK        -0.1150 
     11 C11        -1.1844  -15.9433  -50.1971 C.ar      23 UNK        -0.0193 
     12 C12        -0.7657  -17.2686  -50.3385 C.ar      23 UNK        -0.1150 
     13 C13         0.5925  -17.5761  -50.4465 C.ar      23 UNK        -0.0193 
     14 C14         1.5344  -16.5429  -50.3938 C.ar      23 UNK        -0.1150 
     15 C15         1.0300  -19.0197  -50.6666 C.3       23 UNK        -0.0205 
     16 S16         2.2391  -19.6029  -49.4360 S.3       23 UNK        -0.2404 
     17 C17         1.2557  -19.5836  -47.9027 C.3       23 UNK        -0.0398 
     18 CA          0.7870  -20.9961  -47.4716 C.3       11 UNK         0.1400 
     19 N           0.6889  -21.1150  -46.0155 N.am      11 UNK        -0.5000 
     20 C           0.4756  -22.2525  -45.3415 C.2       10 UNK         0.5000 
     21 O           0.3798  -23.3557  -45.8780 O.2       10 UNK        -0.5000 
     22 CA          0.2893  -22.1295  -43.8170 C.3       10 UNK         0.1400 
     23 CB          1.6440  -22.0613  -43.0965 C.3       10 UNK        -0.1800 
     24 N          -0.5280  -20.9725  -43.4457 N.am      10 UNK        -0.5000 
     25 C          -1.8260  -20.8412  -43.7560 C.2       9 UNK         0.5000 
     26 O          -2.4786  -21.7084  -44.3373 O.2       9 UNK        -0.5000 
     27 CA         -2.4948  -19.4989  -43.4067 C.3       9 UNK         0.1400 
     28 CB         -2.8728  -19.4444  -41.9192 C.3       9 UNK        -0.1800 
     29 N          -1.6585  -18.3471  -43.7466 N.am      9 UNK        -0.5000 
     30 C          -1.2692  -18.0328  -44.9913 C.2       8 UNK         0.5000 
     31 O          -1.6174  -18.6524  -45.9943 O.2       8 UNK        -0.5000 
     32 CA         -0.2810  -16.8653  -45.1378 C.3       8 UNK         0.1400 
     33 CB         -1.0268  -15.5229  -45.0864 C.3       8 UNK        -0.1800 
     34 N           0.7653  -16.8912  -44.1171 N.am      8 UNK        -0.5000 
     35 C           1.6519  -17.8789  -43.9371 C.2       7 UNK         0.5000 
     36 O           1.7038  -18.8864  -44.6374 O.2       7 UNK        -0.5000 
     37 CA          2.6109  -17.7453  -42.7440 C.3       7 UNK         0.1400 
     38 CB          3.7719  -16.7886  -43.0595 C.3       7 UNK        -0.1800 
     39 N           1.9078  -17.2982  -41.5442 N.am      7 UNK        -0.5000 
     40 C           1.0263  -18.0454  -40.8653 C.2       6 UNK         0.5000 
     41 O           0.7445  -19.2083  -41.1579 O.2       6 UNK        -0.5000 
     42 CA          0.3188  -17.3621  -39.6809 C.3       6 UNK         0.1400 
     43 CB          1.1752  -17.4588  -38.4095 C.3       6 UNK        -0.1800 
     44 N           0.0054  -15.9568  -39.9495 N.am      6 UNK        -0.5000 
     45 C          -0.9123  -15.5505  -40.8374 C.2       5 UNK         0.5000 
     46 O          -1.6025  -16.3196  -41.5073 O.2       5 UNK        -0.5000 
     47 CA         -1.0496  -14.0290  -41.0410 C.3       5 UNK         0.1400 
     48 CB         -1.9208  -13.4118  -39.9365 C.3       5 UNK        -0.1800 
     49 N           0.2279  -13.3075  -41.1161 N.am      5 UNK        -0.5000 
     50 C           1.1898  -13.5602  -42.0134 C.2       4 UNK         0.5000 
     51 O           1.1627  -14.5169  -42.7848 O.2       4 UNK        -0.5000 
     52 CA          2.4006  -12.6121  -42.0491 C.3       4 UNK         0.1400 
     53 CB          3.5378  -13.1609  -41.1743 C.3       4 UNK        -0.1800 
     54 N           2.8884  -12.4439  -43.4212 N.am      4 UNK        -0.5000 
     55 C           2.2244  -11.7868  -44.3828 C.2       3 UNK         0.5000 
     56 O           1.1785  -11.1664  -44.1839 O.2       3 UNK        -0.5000 
     57 CA          2.8259  -11.8011  -45.8009 C.3       3 UNK         0.1400 
     58 CB          3.6274  -10.5154  -46.0568 C.3       3 UNK        -0.1800 
     59 N           3.6869  -12.9517  -46.0810 N.am      3 UNK        -0.5000 
     60 C           3.2541  -14.1867  -46.3609 C.2       2 UNK         0.5000 
     61 O           2.0689  -14.5123  -46.3252 O.2       2 UNK        -0.5000 
     62 CA          4.3241  -15.1970  -46.8376 C.3       2 UNK         0.1400 
     63 CB          3.7713  -16.6299  -46.9403 C.3       2 UNK        -0.1800 
     64 N           4.8642  -14.8376  -48.1506 N.am      2 UNK        -0.5000 
     65 C           5.6597  -13.7993  -48.4327 C.2       1 UNK         0.5000 
     66 O           6.1170  -13.0393  -47.5735 O.2       1 UNK        -0.5000 
     67 C          -0.5286  -21.4021  -48.1685 C.2       11 UNK         0.5000 
     68 O          -0.4949  -22.1503  -49.1443 O.2       11 UNK        -0.5000 
     69 N          -1.6676  -20.9452  -47.6292 N.am      12 UNK        -0.5000 
     70 CA         -3.0073  -21.3113  -48.0831 C.3       12 UNK         0.1400 
     71 CB         -4.0541  -20.4372  -47.3778 C.3       12 UNK        -0.1800 
     72 C          -3.3166  -22.8036  -47.8862 C.2       12 UNK         0.5000 
     73 O          -3.8794  -23.4218  -48.7895 O.2       12 UNK        -0.5000 
     74 N          -2.9137  -23.3648  -46.7370 N.am      13 UNK        -0.5000 
     75 CA         -3.0085  -24.7946  -46.4389 C.3       13 UNK         0.1400 
     76 CB         -2.6079  -25.0570  -44.9797 C.3       13 UNK        -0.1800 
     77 C          -2.1750  -25.6496  -47.4106 C.2       13 UNK         0.5000 
     78 O          -2.6889  -26.6399  -47.9329 O.2       13 UNK        -0.5000 
     79 N          -0.9329  -25.2171  -47.6777 N.am      14 UNK        -0.5000 
     80 CA         -0.0252  -25.8170  -48.6588 C.3       14 UNK         0.1400 
     81 CB          1.3567  -25.1538  -48.5609 C.3       14 UNK        -0.1800 
     82 C          -0.5669  -25.7523  -50.0999 C.2       14 UNK         0.5000 
     83 O          -0.4071  -26.7157  -50.8496 O.2       14 UNK        -0.5000 
     84 N          -1.2670  -24.6619  -50.4416 N.am      15 UNK        -0.5000 
     85 CA         -2.0127  -24.4646  -51.6892 C.3       15 UNK         0.1400 
     86 CB         -2.1811  -22.9538  -51.9365 C.3       15 UNK        -0.1800 
     87 C          -3.3656  -25.2173  -51.7113 C.2       15 UNK         0.5000 
     88 O          -4.3598  -24.6801  -52.2037 O.2       15 UNK        -0.5000 
     89 N          -3.3757  -26.4453  -51.1712 N.am      16 UNK        -0.5000 
     90 CA         -4.4857  -27.3985  -51.0849 C.3       16 UNK         0.1400 
     91 CB         -4.7362  -28.0422  -52.4626 C.3       16 UNK        -0.1800 
     92 C          -5.7584  -26.8127  -50.4377 C.2       16 UNK         0.5000 
     93 O          -6.8633  -27.0324  -50.9369 O.2       16 UNK        -0.5000 
     94 N          -5.5632  -26.0754  -49.3343 N.am      17 UNK        -0.5000 
     95 CA         -6.5800  -25.3479  -48.5669 C.3       17 UNK         0.1400 
     96 CB         -7.5595  -26.3237  -47.8815 C.3       17 UNK        -0.1800 
     97 C          -7.2798  -24.2646  -49.4139 C.2       17 UNK         0.5000 
     98 O          -8.5083  -24.2464  -49.5129 O.2       17 UNK        -0.5000 
     99 N          -6.4585  -23.3849  -50.0044 N.am      18 UNK        -0.5000 
    100 CA        -6.8234  -22.2577  -50.8671 C.3       18 UNK         0.1400 
    101 CB        -7.5761  -21.1799  -50.0582 C.3       18 UNK        -0.1800 
    102 C         -7.5764  -22.7035  -52.1383 C.2       18 UNK         0.5000 
    103 O         -8.6629  -22.1999  -52.4342 O.2       18 UNK        -0.5000 
    104 N         -6.9900  -23.6626  -52.8663 N.am      19 UNK        -0.5000 
    105 CA        -7.4834  -24.1304  -54.1586 C.3       19 UNK         0.1400 
    106 CB        -6.9017  -25.5211  -54.4524 C.3       19 UNK        -0.1800 
    107 C         -7.1024  -23.1156  -55.2495 C.2       19 UNK         0.5000 
    108 O         -5.9393  -23.0676  -55.6556 O.2       19 UNK        -0.5000 
    109 N         -8.0750  -22.2900  -55.6604 N.am      20 UNK        -0.5000 
    110 CA        -8.0052  -21.1838  -56.6299 C.3       20 UNK         0.1400 
    111 CB        -7.5583  -21.6724  -58.0213 C.3       20 UNK        -0.1800 
    112 C         -7.1658  -19.9760  -56.1620 C.2       20 UNK         0.5000 
    113 O         -7.6014  -18.8356  -56.3290 O.2       20 UNK        -0.5000 
    114 N         -5.9971  -20.2400  -55.5688 N.am      21 UNK        -0.5000 
    115 CA        -5.1546  -19.2750  -54.8672 C.3       21 UNK         0.1400 
    116 CB        -3.7840  -19.9255  -54.6158 C.3       21 UNK        -0.1800 
    117 C         -5.7879  -18.8303  -53.5343 C.2       21 UNK         0.5000 
    118 O         -6.6861  -19.4981  -53.0193 O.2       21 UNK        -0.5000 
    119 N         -5.2748  -17.7284  -52.9774 N.am      22 UNK        -0.5000 
    120 CA        -5.6660  -17.1839  -51.6645 C.3       22 UNK         0.1400 
    121 C         -5.3122  -18.0749  -50.4363 C.2       22 UNK         0.5000 
    122 N         -4.4513  -19.0766  -50.5648 N.am      22 UNK        -0.7600 
    123 O         -5.8293  -17.8501  -49.3464 O.2       22 UNK        -0.5000 
    124 C124       -5.1575  -15.7287  -51.4721 C.3       23 UNK        -0.0398 
    125 S125       -3.3708  -15.5241  -51.8014 S.3       23 UNK        -0.2404 
    126 C126       -2.6675  -15.6240  -50.1261 C.3       23 UNK        -0.0205 
    127 H127        9.0544  -11.0512  -50.3350 H         1 UNK         0.0600 
    128 H128       10.1693  -12.3100  -50.8737 H         1 UNK         0.0600 
    129 H129       10.0346  -11.9247  -49.1545 H         1 UNK         0.0600 
    130 H130        6.9328  -11.7213  -50.2948 H         1 UNK         0.3000 
    131 H131        6.1961  -14.5208  -50.3794 H         1 UNK         0.0600 
    132 H132        4.1740  -12.2475  -50.0556 H         1 UNK         0.0800 
    133 H133        5.0315  -12.4237  -51.5549 H         1 UNK         0.0800 
    134 H134        1.6636  -13.1200  -50.4151 H         1 UNK         0.0800 
    135 H135        2.4755  -13.9820  -49.1364 H         1 UNK         0.0800 
    136 H136       -0.5601  -13.8955  -50.0379 H         1 UNK         0.1150 
    137 H137       -1.5040  -18.0570  -50.3877 H         1 UNK         0.1150 
    138 H138        2.5843  -16.7857  -50.4713 H         1 UNK         0.1150 
    139 H139        0.1720  -19.6940  -50.6671 H         1 UNK         0.0800 
    140 H140        1.4782  -19.0975  -51.6578 H         1 UNK         0.0800 
    141 H141        0.4251  -18.8793  -47.9742 H         1 UNK         0.0800 
    142 H142        1.9220  -19.1664  -47.1488 H         1 UNK         0.0800 
    143 H143        1.5482  -21.7176  -47.7763 H         1 UNK         0.0600 
    144 H144        0.8253  -20.2590  -45.4823 H         1 UNK         0.3000 
    145 H145       -0.2284  -23.0274  -43.4737 H         1 UNK         0.0600 
    146 H146        1.5131  -22.0324  -42.0146 H         1 UNK         0.0600 
    147 H147        2.2524  -22.9362  -43.3284 H         1 UNK         0.0600 
    148 H148        2.2148  -21.1792  -43.3861 H         1 UNK         0.0600 
    149 H149       -0.0621  -20.2220  -42.9494 H         1 UNK         0.3000 
    150 H150       -3.4134  -19.4253  -43.9924 H         1 UNK         0.0600 
    151 H151       -3.5090  -20.2873  -41.6467 H         1 UNK         0.0600 
    152 H152       -3.4234  -18.5327  -41.6866 H         1 UNK         0.0600 
    153 H153       -1.9924  -19.4751  -41.2769 H         1 UNK         0.0600 
    154 H154       -1.3654  -17.7523  -42.9786 H         1 UNK         0.3000 
    155 H155        0.2054  -16.9507  -46.1119 H         1 UNK         0.0600 
    156 H156       -1.5343  -15.3797  -44.1324 H         1 UNK         0.0600 
    157 H157       -1.7794  -15.4654  -45.8737 H         1 UNK         0.0600 
    158 H158       -0.3450  -14.6846  -45.2271 H         1 UNK         0.0600 
    159 H159        0.8395  -16.0601  -43.5308 H         1 UNK         0.3000 
    160 H160        3.0339  -18.7313  -42.5394 H         1 UNK         0.0600 
    161 H161        4.4189  -16.6527  -42.1929 H         1 UNK         0.0600 
    162 H162        3.4190  -15.8064  -43.3741 H         1 UNK         0.0600 
    163 H163        4.3921  -17.1866  -43.8628 H         1 UNK         0.0600 
    164 H164        2.0271  -16.3317  -41.2807 H         1 UNK         0.3000 
    165 H165       -0.6182  -17.8940  -39.5021 H         1 UNK         0.0600 
    166 H166        0.6508  -17.0438  -37.5486 H         1 UNK         0.0600 
    167 H167        1.4097  -18.4982  -38.1758 H         1 UNK         0.0600 
    168 H168        2.1204  -16.9251  -38.5170 H         1 UNK         0.0600 
    169 H169        0.5338  -15.2605  -39.4447 H         1 UNK         0.3000 
    170 H170       -1.5603  -13.8783  -41.9944 H         1 UNK         0.0600 
    171 H171       -2.8840  -13.9196  -39.8689 H         1 UNK         0.0600 
    172 H172       -1.4430  -13.4824  -38.9586 H         1 UNK         0.0600 
    173 H173       -2.1242  -12.3596  -40.1361 H         1 UNK         0.0600 
    174 H174        0.3306  -12.5143  -40.4997 H         1 UNK         0.3000 
    175 H175        2.0993  -11.6358  -41.6638 H         1 UNK         0.0600 
    176 H176        3.8848  -14.1334  -41.5242 H         1 UNK         0.0600 
    177 H177        4.3918  -12.4833  -41.1683 H         1 UNK         0.0600 
    178 H178        3.2130  -13.2811  -40.1400 H         1 UNK         0.0600 
    179 H179        3.7207  -12.9523  -43.6778 H         1 UNK         0.3000 
    180 H180        1.9913  -11.8220  -46.5052 H         1 UNK         0.0600 
    181 H181        4.4915  -10.4425  -45.3953 H         1 UNK         0.0600 
    182 H182        3.0116   -9.6301  -45.8930 H         1 UNK         0.0600 
    183 H183        3.9878  -10.4739  -47.0850 H         1 UNK         0.0600 
    184 H184        4.6727  -12.7586  -46.2278 H         1 UNK         0.3000 
    185 H185        5.1356  -15.1942  -46.1071 H         1 UNK         0.0600 
    186 H186        3.3502  -16.9553  -45.9924 H         1 UNK         0.0600 
    187 H187        2.9803  -16.7064  -47.6878 H         1 UNK         0.0600 
    188 H188        4.5538  -17.3402  -47.2072 H         1 UNK         0.0600 
    189 H189        4.5221  -15.3913  -48.9228 H         1 UNK         0.3000 
    190 H190       -1.6158  -20.2781  -46.8619 H         1 UNK         0.3000 
    191 H191       -3.0554  -21.1084  -49.1538 H         1 UNK         0.0600 
    192 H192       -4.0372  -20.5831  -46.2976 H         1 UNK         0.0600 
    193 H193       -5.0610  -20.6733  -47.7232 H         1 UNK         0.0600 
    194 H194       -3.8819  -19.3778  -47.5697 H         1 UNK         0.0600 
    195 H195       -2.5109  -22.7730  -46.0167 H         1 UNK         0.3000 
    196 H196       -4.0529  -25.0883  -46.5521 H         1 UNK         0.0600 
    197 H197       -2.7135  -26.1136  -44.7313 H         1 UNK         0.0600 
    198 H198       -3.2401  -24.4960  -44.2913 H         1 UNK         0.0600 
    199 H199       -1.5732  -24.7771  -44.7849 H         1 UNK         0.0600 
    200 H200       -0.5772  -24.4141  -47.1654 H         1 UNK         0.3000 
    201 H201        0.0874  -26.8712  -48.3979 H         1 UNK         0.0600 
    202 H202        1.7741  -25.2587  -47.5593 H         1 UNK         0.0600 
    203 H203        1.3123  -24.0902  -48.7941 H         1 UNK         0.0600 
    204 H204        2.0600  -25.6130  -49.2566 H         1 UNK         0.0600 
    205 H205       -1.3079  -23.8965  -49.7766 H         1 UNK         0.3000 
    206 H206       -1.4171  -24.8671  -52.5106 H         1 UNK         0.0600 
    207 H207       -1.2190  -22.4412  -51.9264 H         1 UNK         0.0600 
    208 H208       -2.6387  -22.7637  -52.9079 H         1 UNK         0.0600 
    209 H209       -2.8141  -22.4922  -51.1789 H         1 UNK         0.0600 
    210 H210       -2.4947  -26.7765  -50.7966 H         1 UNK         0.3000 
    211 H211       -4.1524  -28.1903  -50.4125 H         1 UNK         0.0600 
    212 H212       -5.0329  -27.3025  -53.2036 H         1 UNK         0.0600 
    213 H213       -5.5234  -28.7952  -52.4120 H         1 UNK         0.0600 
    214 H214       -3.8386  -28.5386  -52.8313 H         1 UNK         0.0600 
    215 H215       -4.6060  -25.9396  -49.0327 H         1 UNK         0.3000 
    216 H216       -6.0514  -24.8162  -47.7758 H         1 UNK         0.0600 
    217 H217       -8.2454  -25.7874  -47.2249 H         1 UNK         0.0600 
    218 H218       -7.0262  -27.0508  -47.2691 H         1 UNK         0.0600 
    219 H219       -8.1637  -26.8726  -48.6042 H         1 UNK         0.0600 
    220 H220       -5.4622  -23.5011  -49.8352 H         1 UNK         0.3000 
    221 H221       -5.8861  -21.8150  -51.2078 H         1 UNK         0.0600 
    222 H222       -8.5400  -21.5388  -49.6971 H         1 UNK         0.0600 
    223 H223       -6.9940  -20.8545  -49.1968 H         1 UNK         0.0600 
    224 H224       -7.7661  -20.2966  -50.6683 H         1 UNK         0.0600 
    225 H225       -6.0846  -24.0248  -52.5723 H         1 UNK         0.3000 
    226 H226       -8.5705  -24.2267  -54.1177 H         1 UNK         0.0600 
    227 H227       -7.1934  -26.2374  -53.6843 H         1 UNK         0.0600 
    228 H228       -7.2634  -25.9010  -55.4084 H         1 UNK         0.0600 
    229 H229       -5.8124  -25.4998  -54.4981 H         1 UNK         0.0600 
    230 H230       -8.9679  -22.3736  -55.1931 H         1 UNK         0.3000 
    231 H231       -9.0306  -20.8244  -56.7299 H         1 UNK         0.0600 
    232 H232       -8.1897  -22.4876  -58.3747 H         1 UNK         0.0600 
    233 H233       -6.5259  -22.0225  -58.0216 H         1 UNK         0.0600 
    234 H234       -7.6265  -20.8674  -58.7539 H         1 UNK         0.0600 
    235 H235       -5.7419  -21.2196  -55.4800 H         1 UNK         0.3000 
    236 H236       -5.0239  -18.3971  -55.5031 H         1 UNK         0.0600 
    237 H237       -3.0974  -19.2311  -54.1299 H         1 UNK         0.0600 
    238 H238       -3.8701  -20.8058  -53.9773 H         1 UNK         0.0600 
    239 H239       -3.3186  -20.2368  -55.5513 H         1 UNK         0.0600 
    240 H240       -4.5203  -17.2409  -53.4393 H         1 UNK         0.3000 
    241 H241       -6.7567  -17.1353  -51.6669 H         1 UNK         0.0600 
    242 H242       -4.2397  -19.6313  -49.7557 H         1 UNK         0.3800 
    243 H243       -4.0144  -19.2661  -51.4509 H         1 UNK         0.3800 
    244 H244       -5.6882  -15.0755  -52.1659 H         1 UNK         0.0800 
    245 H245       -5.3999  -15.3484  -50.4780 H         1 UNK         0.0800 
    246 H246       -2.8361  -14.6812  -49.6034 H         1 UNK         0.0800 
    247 H247       -3.1737  -16.3944  -49.5439 H         1 UNK         0.0800 
@<TRIPOS>BOND
     1    1    2 1    
     2    1  127 1    
     3    1  128 1    
     4    1  129 1    
     5    2    3 2    
     6    2    4 am   BACKBONE|DICT|INTERRES
     7    4    5 1    
     8    4  130 1    
     9    5    6 1    
    10    5   65 1    
    11    5  131 1    
    12    6    7 1    
    13    6  132 1    
    14    6  133 1    
    15    7    8 1    
    16    8    9 1    
    17    8  134 1    
    18    8  135 1    
    19    9   10 ar   
    20    9   14 ar   
    21   10   11 ar   
    22   10  136 1    
    23   11   12 ar   
    24   11  126 1    
    25   12   13 ar   
    26   12  137 1    
    27   13   14 ar   
    28   13   15 1    
    29   14  138 1    
    30   15   16 1    
    31   15  139 1    
    32   15  140 1    
    33   16   17 1    
    34   17   18 1    
    35   17  141 1    
    36   17  142 1    
    37   18   19 1    
    38   18   67 1    
    39   18  143 1    
    40   19   20 am   BACKBONE|DICT|INTERRES
    41   19  144 1    
    42   20   21 2    
    43   20   22 1    
    44   22   23 1    
    45   22   24 1    
    46   22  145 1    
    47   23  146 1    
    48   23  147 1    
    49   23  148 1    
    50   24   25 am   BACKBONE|DICT|INTERRES
    51   24  149 1    
    52   25   26 2    
    53   25   27 1    
    54   27   28 1    
    55   27   29 1    
    56   27  150 1    
    57   28  151 1    
    58   28  152 1    
    59   28  153 1    
    60   29   30 am   BACKBONE|DICT|INTERRES
    61   29  154 1    
    62   30   31 2    
    63   30   32 1    
    64   32   33 1    
    65   32   34 1    
    66   32  155 1    
    67   33  156 1    
    68   33  157 1    
    69   33  158 1    
    70   34   35 am   BACKBONE|DICT|INTERRES
    71   34  159 1    
    72   35   36 2    
    73   35   37 1    
    74   37   38 1    
    75   37   39 1    
    76   37  160 1    
    77   38  161 1    
    78   38  162 1    
    79   38  163 1    
    80   39   40 am   BACKBONE|DICT|INTERRES
    81   39  164 1    
    82   40   41 2    
    83   40   42 1    
    84   42   43 1    
    85   42   44 1    
    86   42  165 1    
    87   43  166 1    
    88   43  167 1    
    89   43  168 1    
    90   44   45 am   BACKBONE|DICT|INTERRES
    91   44  169 1    
    92   45   46 2    
    93   45   47 1    
    94   47   48 1    
    95   47   49 1    
    96   47  170 1    
    97   48  171 1    
    98   48  172 1    
    99   48  173 1    
   100   49   50 am   BACKBONE|DICT|INTERRES
   101   49  174 1    
   102   50   51 2    
   103   50   52 1    
   104   52   53 1    
   105   52   54 1    
   106   52  175 1    
   107   53  176 1    
   108   53  177 1    
   109   53  178 1    
   110   54   55 am   BACKBONE|DICT|INTERRES
   111   54  179 1    
   112   55   56 2    
   113   55   57 1    
   114   57   58 1    
   115   57   59 1    
   116   57  180 1    
   117   58  181 1    
   118   58  182 1    
   119   58  183 1    
   120   59   60 am   BACKBONE|DICT|INTERRES
   121   59  184 1    
   122   60   61 2    
   123   60   62 1    
   124   62   63 1    
   125   62   64 1    
   126   62  185 1    
   127   63  186 1    
   128   63  187 1    
   129   63  188 1    
   130   64   65 am   BACKBONE|DICT|INTERRES
   131   64  189 1    
   132   65   66 2    
   133   67   68 2    
   134   67   69 am   BACKBONE|DICT|INTERRES
   135   69   70 1    
   136   69  190 1    
   137   70   71 1    
   138   70   72 1    
   139   70  191 1    
   140   71  192 1    
   141   71  193 1    
   142   71  194 1    
   143   72   73 2    
   144   72   74 am   BACKBONE|DICT|INTERRES
   145   74   75 1    
   146   74  195 1    
   147   75   76 1    
   148   75   77 1    
   149   75  196 1    
   150   76  197 1    
   151   76  198 1    
   152   76  199 1    
   153   77   78 2    
   154   77   79 am   BACKBONE|DICT|INTERRES
   155   79   80 1    
   156   79  200 1    
   157   80   81 1    
   158   80   82 1    
   159   80  201 1    
   160   81  202 1    
   161   81  203 1    
   162   81  204 1    
   163   82   83 2    
   164   82   84 am   BACKBONE|DICT|INTERRES
   165   84   85 1    
   166   84  205 1    
   167   85   86 1    
   168   85   87 1    
   169   85  206 1    
   170   86  207 1    
   171   86  208 1    
   172   86  209 1    
   173   87   88 2    
   174   87   89 am   BACKBONE|DICT|INTERRES
   175   89   90 1    
   176   89  210 1    
   177   90   91 1    
   178   90   92 1    
   179   90  211 1    
   180   91  212 1    
   181   91  213 1    
   182   91  214 1    
   183   92   93 2    
   184   92   94 am   BACKBONE|DICT|INTERRES
   185   94   95 1    
   186   94  215 1    
   187   95   96 1    
   188   95   97 1    
   189   95  216 1    
   190   96  217 1    
   191   96  218 1    
   192   96  219 1    
   193   97   98 2    
   194   97   99 am   BACKBONE|DICT|INTERRES
   195   99  100 1    
   196   99  220 1    
   197  100  101 1    
   198  100  102 1    
   199  100  221 1    
   200  101  222 1    
   201  101  223 1    
   202  101  224 1    
   203  102  103 2    
   204  102  104 am   BACKBONE|DICT|INTERRES
   205  104  105 1    
   206  104  225 1    
   207  105  106 1    
   208  105  107 1    
   209  105  226 1    
   210  106  227 1    
   211  106  228 1    
   212  106  229 1    
   213  107  108 2    
   214  107  109 am   BACKBONE|DICT|INTERRES
   215  109  110 1    
   216  109  230 1    
   217  110  111 1    
   218  110  112 1    
   219  110  231 1    
   220  111  232 1    
   221  111  233 1    
   222  111  234 1    
   223  112  113 2    
   224  112  114 am   BACKBONE|DICT|INTERRES
   225  114  115 1    
   226  114  235 1    
   227  115  116 1    
   228  115  117 1    
   229  115  236 1    
   230  116  237 1    
   231  116  238 1    
   232  116  239 1    
   233  117  118 2    
   234  117  119 am   BACKBONE|DICT|INTERRES
   235  119  120 1    
   236  119  240 1    
   237  120  121 1    
   238  120  124 1    
   239  120  241 1    
   240  121  122 am   BACKBONE|DICT|INTERRES
   241  121  123 2    
   242  122  242 1    
   243  122  243 1    
   244  124  125 1    
   245  124  244 1    
   246  124  245 1    
   247  125  126 1    
   248  126  246 1    
   249  126  247 1    
@<TRIPOS>SUBSTRUCTURE
     1 UNK         1 GROUP             0       ****    0 ROOT    
