@<TRIPOS>MOLECULE
3R540
247   249    1
SMALL
USER_CHARGES


@<TRIPOS>ATOM
      1 CA         -3.7168   -9.0620  -45.5012 C.3       0 UNK        -0.1800 
      2 C          -2.6284  -10.0642  -45.8573 C.2       0 UNK         0.5000 
      3 O          -1.4430   -9.7646  -45.7068 O.2       0 UNK        -0.5000 
      4 N          -3.0195  -11.2613  -46.3132 N.am      1 UNK        -0.5000 
      5 CA         -2.1355  -12.3645  -46.7148 C.3       1 UNK         0.1400 
      6 C6         -2.8342  -13.2814  -47.7559 C.3       23 UNK        -0.0398 
      7 S7         -1.6698  -14.0388  -48.9404 S.3       23 UNK        -0.2404 
      8 C8         -1.7613  -15.7856  -48.4492 C.3       23 UNK        -0.0205 
      9 C9         -1.0056  -16.6763  -49.4204 C.ar      23 UNK        -0.0193 
     10 C10        -1.6645  -17.2534  -50.5120 C.ar      23 UNK        -0.1150 
     11 C11        -0.9665  -18.0636  -51.4137 C.ar      23 UNK        -0.0193 
     12 C12         0.4000  -18.2759  -51.2240 C.ar      23 UNK        -0.1150 
     13 C13         1.0549  -17.7513  -50.1097 C.ar      23 UNK        -0.0193 
     14 C14         0.3516  -16.9397  -49.2159 C.ar      23 UNK        -0.1150 
     15 C15         2.5136  -18.0987  -49.8686 C.3       23 UNK        -0.0205 
     16 S16         2.6942  -19.8283  -49.3222 S.3       23 UNK        -0.2404 
     17 C17         2.0436  -19.7349  -47.6230 C.3       23 UNK        -0.0398 
     18 CA          1.0875  -20.8941  -47.2453 C.3       11 UNK         0.1400 
     19 N           1.0787  -21.1048  -45.7954 N.am      11 UNK        -0.5000 
     20 C           0.5152  -22.1425  -45.1629 C.2       10 UNK         0.5000 
     21 O          -0.0017  -23.0988  -45.7400 O.2       10 UNK        -0.5000 
     22 CA          0.4938  -22.0779  -43.6232 C.3       10 UNK         0.1400 
     23 CB          1.8114  -22.6062  -43.0373 C.3       10 UNK        -0.1800 
     24 N           0.2388  -20.7258  -43.1183 N.am      10 UNK        -0.5000 
     25 C          -0.9094  -20.0568  -43.2990 C.2       9 UNK         0.5000 
     26 O          -1.8941  -20.5407  -43.8540 O.2       9 UNK        -0.5000 
     27 CA         -0.9521  -18.5882  -42.8349 C.3       9 UNK         0.1400 
     28 CB         -1.2217  -18.4950  -41.3266 C.3       9 UNK        -0.1800 
     29 N           0.2715  -17.8572  -43.1668 N.am      9 UNK        -0.5000 
     30 C           0.6986  -17.6288  -44.4167 C.2       8 UNK         0.5000 
     31 O           0.0791  -17.9664  -45.4229 O.2       8 UNK        -0.5000 
     32 CA          2.0794  -16.9736  -44.5764 C.3       8 UNK         0.1400 
     33 CB          1.9821  -15.4437  -44.5173 C.3       8 UNK        -0.1800 
     34 N           3.0361  -17.4614  -43.5826 N.am      8 UNK        -0.5000 
     35 C           3.5472  -18.7008  -43.5861 C.2       7 UNK         0.5000 
     36 O           3.3007  -19.5375  -44.4537 O.2       7 UNK        -0.5000 
     37 CA          4.4353  -19.0868  -42.3913 C.3       7 UNK         0.1400 
     38 CB          5.8774  -18.6025  -42.5973 C.3       7 UNK        -0.1800 
     39 N           3.9098  -18.5679  -41.1277 N.am      7 UNK        -0.5000 
     40 C           2.7926  -19.0298  -40.5466 C.2       6 UNK         0.5000 
     41 O           2.1176  -19.9489  -41.0093 O.2       6 UNK        -0.5000 
     42 CA          2.3237  -18.3327  -39.2558 C.3       6 UNK         0.1400 
     43 CB          2.9380  -19.0151  -38.0249 C.3       6 UNK        -0.1800 
     44 N           2.6210  -16.9006  -39.2096 N.am      6 UNK        -0.5000 
     45 C           2.1837  -15.9853  -40.0848 C.2       5 UNK         0.5000 
     46 O           1.4863  -16.2565  -41.0641 O.2       5 UNK        -0.5000 
     47 CA          2.6158  -14.5230  -39.8546 C.3       5 UNK         0.1400 
     48 CB          3.3917  -14.2856  -38.5392 C.3       5 UNK        -0.1800 
     49 N           3.3752  -13.9969  -40.9912 N.am      5 UNK        -0.5000 
     50 C           4.5025  -14.4993  -41.5201 C.2       4 UNK         0.5000 
     51 O           5.0432  -15.5280  -41.1107 O.2       4 UNK        -0.5000 
     52 CA          5.1194  -13.7414  -42.7146 C.3       4 UNK         0.1400 
     53 CB          5.7424  -14.6981  -43.7473 C.3       4 UNK        -0.1800 
     54 N           4.1324  -12.8890  -43.3834 N.am      4 UNK        -0.5000 
     55 C           4.0619  -11.5564  -43.2753 C.2       3 UNK         0.5000 
     56 O           4.8631  -10.8744  -42.6358 O.2       3 UNK        -0.5000 
     57 CA          2.8763  -10.8686  -43.9813 C.3       3 UNK         0.1400 
     58 CB          3.2744  -10.4393  -45.4015 C.3       3 UNK        -0.1800 
     59 N           1.6536  -11.6781  -44.0548 N.am      3 UNK        -0.5000 
     60 C           0.9525  -12.1311  -43.0037 C.2       2 UNK         0.5000 
     61 O           1.3284  -12.0032  -41.8382 O.2       2 UNK        -0.5000 
     62 CA         -0.3853  -12.8343  -43.3061 C.3       2 UNK         0.1400 
     63 CB         -1.4265  -12.6289  -42.1909 C.3       2 UNK        -0.1800 
     64 N          -0.9372  -12.3725  -44.5791 N.am      2 UNK        -0.5000 
     65 C          -1.5867  -13.1198  -45.4777 C.2       1 UNK         0.5000 
     66 O          -1.7813  -14.3274  -45.3373 O.2       1 UNK        -0.5000 
     67 C          -0.3467  -20.7030  -47.7947 C.2       11 UNK         0.5000 
     68 O          -0.7159  -21.3533  -48.7724 O.2       11 UNK        -0.5000 
     69 N          -1.1504  -19.8774  -47.1061 N.am      12 UNK        -0.5000 
     70 CA         -2.5649  -19.6330  -47.3958 C.3       12 UNK         0.1400 
     71 CB         -3.0890  -18.5090  -46.4875 C.3       12 UNK        -0.1800 
     72 C          -3.4440  -20.8844  -47.2240 C.2       12 UNK         0.5000 
     73 O          -4.3411  -21.1120  -48.0332 O.2       12 UNK        -0.5000 
     74 N          -3.1718  -21.6855  -46.1843 N.am      13 UNK        -0.5000 
     75 CA         -3.8923  -22.9231  -45.8685 C.3       13 UNK         0.1400 
     76 CB         -3.4225  -23.4517  -44.5047 C.3       13 UNK        -0.1800 
     77 C          -3.7617  -24.0172  -46.9472 C.2       13 UNK         0.5000 
     78 O          -4.6242  -24.8921  -47.0281 O.2       13 UNK        -0.5000 
     79 N          -2.7085  -23.9374  -47.7701 N.am      14 UNK        -0.5000 
     80 CA         -2.4554  -24.8240  -48.9031 C.3       14 UNK         0.1400 
     81 CB         -0.9361  -24.9241  -49.1205 C.3       14 UNK        -0.1800 
     82 C          -3.2059  -24.4142  -50.1906 C.2       14 UNK         0.5000 
     83 O          -2.9890  -25.0410  -51.2305 O.2       14 UNK        -0.5000 
     84 N          -4.0726  -23.3898  -50.1377 N.am      15 UNK        -0.5000 
     85 CA         -4.9464  -22.9520  -51.2339 C.3       15 UNK         0.1400 
     86 CB         -5.4677  -21.5342  -50.9382 C.3       15 UNK        -0.1800 
     87 C          -6.1002  -23.9480  -51.4937 C.2       15 UNK         0.5000 
     88 O          -7.2725  -23.6016  -51.3332 O.2       15 UNK        -0.5000 
     89 N          -5.7438  -25.1849  -51.8607 N.am      16 UNK        -0.5000 
     90 CA         -6.6466  -26.2733  -52.2211 C.3       16 UNK         0.1400 
     91 CB         -5.8232  -27.5527  -52.4369 C.3       16 UNK        -0.1800 
     92 C          -7.4608  -25.9156  -53.4758 C.2       16 UNK         0.5000 
     93 O          -6.8796  -25.7361  -54.5472 O.2       16 UNK        -0.5000 
     94 N          -8.7803  -25.7723  -53.3000 N.am      17 UNK        -0.5000 
     95 CA         -9.7993  -25.3488  -54.2704 C.3       17 UNK         0.1400 
     96 CB         -9.8485  -26.2858  -55.4930 C.3       17 UNK        -0.1800 
     97 C          -9.7071  -23.8701  -54.7037 C.2       17 UNK         0.5000 
     98 O         -10.7505  -23.2399  -54.8831 O.2       17 UNK        -0.5000 
     99 N          -8.4926  -23.3312  -54.8519 N.am      18 UNK        -0.5000 
    100 CA        -8.2150  -21.9550  -55.2437 C.3       18 UNK         0.1400 
    101 CB        -8.4015  -21.8021  -56.7666 C.3       18 UNK        -0.1800 
    102 C         -6.7863  -21.5693  -54.8357 C.2       18 UNK         0.5000 
    103 O         -5.9560  -22.4383  -54.5581 O.2       18 UNK        -0.5000 
    104 N         -6.5026  -20.2612  -54.8871 N.am      19 UNK        -0.5000 
    105 CA        -5.1813  -19.6586  -54.6672 C.3       19 UNK         0.1400 
    106 CB        -5.3535  -18.1366  -54.5396 C.3       19 UNK        -0.1800 
    107 C         -4.1362  -20.0040  -55.7534 C.2       19 UNK         0.5000 
    108 O         -2.9653  -19.6584  -55.6021 O.2       19 UNK        -0.5000 
    109 N         -4.5672  -20.6892  -56.8218 N.am      20 UNK        -0.5000 
    110 CA        -3.7177  -21.2783  -57.8569 C.3       20 UNK         0.1400 
    111 CB        -4.6095  -21.7278  -59.0250 C.3       20 UNK        -0.1800 
    112 C         -2.8579  -22.4559  -57.3472 C.2       20 UNK         0.5000 
    113 O         -1.8732  -22.8003  -58.0025 O.2       20 UNK        -0.5000 
    114 N         -3.2401  -23.0511  -56.2066 N.am      21 UNK        -0.5000 
    115 CA        -2.4656  -24.0516  -55.4765 C.3       21 UNK         0.1400 
    116 CB        -3.4365  -24.9476  -54.6828 C.3       21 UNK        -0.1800 
    117 C         -1.3908  -23.3560  -54.6112 C.2       21 UNK         0.5000 
    118 O         -0.4537  -22.7795  -55.1653 O.2       21 UNK        -0.5000 
    119 N         -1.5266  -23.4256  -53.2801 N.am      22 UNK        -0.5000 
    120 CA        -0.6105  -22.8356  -52.2854 C.3       22 UNK         0.1400 
    121 C          0.7846  -23.5297  -52.2054 C.2       22 UNK         0.5000 
    122 N          0.9259  -24.7711  -52.6555 N.am      22 UNK        -0.7600 
    123 O          1.7497  -22.9562  -51.7090 O.2       22 UNK        -0.5000 
    124 C124       -0.5148  -21.2877  -52.3500 C.3       23 UNK        -0.0398 
    125 S125       -2.1334  -20.4503  -52.2266 S.3       23 UNK        -0.2404 
    126 C126       -1.6811  -18.7210  -52.5858 C.3       23 UNK        -0.0205 
    127 H127       -4.7137   -9.4639  -45.6832 H         1 UNK         0.0600 
    128 H128       -3.6013   -8.1562  -46.0964 H         1 UNK         0.0600 
    129 H129       -3.6461   -8.7906  -44.4479 H         1 UNK         0.0600 
    130 H130       -4.0089  -11.4567  -46.3740 H         1 UNK         0.3000 
    131 H131       -1.2702  -11.9141  -47.2066 H         1 UNK         0.0600 
    132 H132       -3.5195  -12.6894  -48.3644 H         1 UNK         0.0800 
    133 H133       -3.4605  -14.0380  -47.2799 H         1 UNK         0.0800 
    134 H134       -2.8049  -16.0984  -48.3939 H         1 UNK         0.0800 
    135 H135       -1.3433  -15.8932  -47.4476 H         1 UNK         0.0800 
    136 H136       -2.7201  -17.0727  -50.6584 H         1 UNK         0.1150 
    137 H137        0.9522  -18.8893  -51.9212 H         1 UNK         0.1150 
    138 H138        0.8542  -16.5192  -48.3561 H         1 UNK         0.1150 
    139 H139        3.0753  -17.9581  -50.7932 H         1 UNK         0.0800 
    140 H140        2.9613  -17.4297  -49.1320 H         1 UNK         0.0800 
    141 H141        1.5757  -18.7681  -47.4416 H         1 UNK         0.0800 
    142 H142        2.9233  -19.7580  -46.9805 H         1 UNK         0.0800 
    143 H143        1.4817  -21.8127  -47.6857 H         1 UNK         0.0600 
    144 H144        1.5298  -20.3911  -45.2350 H         1 UNK         0.3000 
    145 H145       -0.3149  -22.7238  -43.2754 H         1 UNK         0.0600 
    146 H146        1.7722  -22.6395  -41.9484 H         1 UNK         0.0600 
    147 H147        2.6587  -21.9815  -43.3216 H         1 UNK         0.0600 
    148 H148        2.0166  -23.6187  -43.3868 H         1 UNK         0.0600 
    149 H149        0.9862  -20.2882  -42.5881 H         1 UNK         0.3000 
    150 H150       -1.7776  -18.0987  -43.3561 H         1 UNK         0.0600 
    151 H151       -2.1793  -18.9524  -41.0753 H         1 UNK         0.0600 
    152 H152       -1.2574  -17.4575  -40.9936 H         1 UNK         0.0600 
    153 H153       -0.4542  -19.0080  -40.7485 H         1 UNK         0.0600 
    154 H154        0.8132  -17.4881  -42.3907 H         1 UNK         0.3000 
    155 H155        2.4492  -17.2414  -45.5686 H         1 UNK         0.0600 
    156 H156        1.8338  -15.0923  -43.4970 H         1 UNK         0.0600 
    157 H157        1.1505  -15.0797  -45.1229 H         1 UNK         0.0600 
    158 H158        2.8852  -14.9820  -44.9123 H         1 UNK         0.0600 
    159 H159        3.2271  -16.8646  -42.7909 H         1 UNK         0.3000 
    160 H160        4.4540  -20.1773  -42.3311 H         1 UNK         0.0600 
    161 H161        5.9343  -17.5170  -42.6649 H         1 UNK         0.0600 
    162 H162        6.2971  -19.0102  -43.5177 H         1 UNK         0.0600 
    163 H163        6.5210  -18.9210  -41.7772 H         1 UNK         0.0600 
    164 H164        4.3896  -17.7761  -40.7185 H         1 UNK         0.3000 
    165 H165        1.2397  -18.4427  -39.1974 H         1 UNK         0.0600 
    166 H166        2.5415  -18.5945  -37.1007 H         1 UNK         0.0600 
    167 H167        2.7128  -20.0825  -38.0171 H         1 UNK         0.0600 
    168 H168        4.0234  -18.9084  -38.0052 H         1 UNK         0.0600 
    169 H169        3.2124  -16.5896  -38.4528 H         1 UNK         0.3000 
    170 H170        1.6938  -13.9422  -39.8033 H         1 UNK         0.0600 
    171 H171        4.3408  -14.8224  -38.5153 H         1 UNK         0.0600 
    172 H172        3.6128  -13.2262  -38.4081 H         1 UNK         0.0600 
    173 H173        2.8067  -14.5962  -37.6725 H         1 UNK         0.0600 
    174 H174        2.9729  -13.1682  -41.4147 H         1 UNK         0.3000 
    175 H175        5.9274  -13.1307  -42.3074 H         1 UNK         0.0600 
    176 H176        5.0282  -15.4381  -44.1059 H         1 UNK         0.0600 
    177 H177        6.1227  -14.1526  -44.6110 H         1 UNK         0.0600 
    178 H178        6.5848  -15.2398  -43.3160 H         1 UNK         0.0600 
    179 H179        3.4219  -13.3577  -43.9247 H         1 UNK         0.3000 
    180 H180        2.6379   -9.9695  -43.4092 H         1 UNK         0.0600 
    181 H181        2.4809   -9.8619  -45.8765 H         1 UNK         0.0600 
    182 H182        3.4911  -11.2995  -46.0362 H         1 UNK         0.0600 
    183 H183        4.1658   -9.8106  -45.3850 H         1 UNK         0.0600 
    184 H184        1.2813  -11.8396  -44.9791 H         1 UNK         0.3000 
    185 H185       -0.1698  -13.9014  -43.3666 H         1 UNK         0.0600 
    186 H186       -1.6623  -11.5731  -42.0536 H         1 UNK         0.0600 
    187 H187       -2.3550  -13.1531  -42.4180 H         1 UNK         0.0600 
    188 H188       -1.0645  -13.0152  -41.2372 H         1 UNK         0.0600 
    189 H189       -0.8666  -11.3752  -44.7664 H         1 UNK         0.3000 
    190 H190       -0.7512  -19.3395  -46.3405 H         1 UNK         0.3000 
    191 H191       -2.6350  -19.3048  -48.4349 H         1 UNK         0.0600 
    192 H192       -3.1854  -18.8353  -45.4521 H         1 UNK         0.0600 
    193 H193       -4.0727  -18.1721  -46.8161 H         1 UNK         0.0600 
    194 H194       -2.4278  -17.6461  -46.4900 H         1 UNK         0.0600 
    195 H195       -2.4694  -21.3860  -45.5142 H         1 UNK         0.3000 
    196 H196       -4.9524  -22.6746  -45.7883 H         1 UNK         0.0600 
    197 H197       -3.5930  -22.7185  -43.7164 H         1 UNK         0.0600 
    198 H198       -2.3603  -23.6958  -44.5130 H         1 UNK         0.0600 
    199 H199       -3.9647  -24.3565  -44.2274 H         1 UNK         0.0600 
    200 H200       -2.0532  -23.1774  -47.6376 H         1 UNK         0.3000 
    201 H201       -2.8114  -25.8253  -48.6524 H         1 UNK         0.0600 
    202 H202       -0.4491  -25.3685  -48.2523 H         1 UNK         0.0600 
    203 H203       -0.4824  -23.9474  -49.2823 H         1 UNK         0.0600 
    204 H204       -0.6939  -25.5502  -49.9801 H         1 UNK         0.0600 
    205 H205       -4.1787  -22.8872  -49.2643 H         1 UNK         0.3000 
    206 H206       -4.3512  -22.8926  -52.1466 H         1 UNK         0.0600 
    207 H207       -6.0570  -21.1533  -51.7728 H         1 UNK         0.0600 
    208 H208       -6.1033  -21.5158  -50.0524 H         1 UNK         0.0600 
    209 H209       -4.6499  -20.8340  -50.7734 H         1 UNK         0.0600 
    210 H210       -4.7500  -25.3820  -51.9202 H         1 UNK         0.3000 
    211 H211       -7.3265  -26.4412  -51.3834 H         1 UNK         0.0600 
    212 H212       -5.2830  -27.8313  -51.5319 H         1 UNK         0.0600 
    213 H213       -5.0926  -27.4315  -53.2381 H         1 UNK         0.0600 
    214 H214       -6.4678  -28.3911  -52.7034 H         1 UNK         0.0600 
    215 H215       -9.1318  -25.8909  -52.3598 H         1 UNK         0.3000 
    216 H216      -10.7514  -25.4540  -53.7479 H         1 UNK         0.0600 
    217 H217      -10.6960  -26.0402  -56.1340 H         1 UNK         0.0600 
    218 H218       -9.9616  -27.3264  -55.1893 H         1 UNK         0.0600 
    219 H219       -8.9495  -26.2091  -56.1049 H         1 UNK         0.0600 
    220 H220       -7.6720  -23.9085  -54.6848 H         1 UNK         0.3000 
    221 H221       -8.9048  -21.2902  -54.7196 H         1 UNK         0.0600 
    222 H222       -7.7336  -22.4642  -57.3192 H         1 UNK         0.0600 
    223 H223       -9.4228  -22.0348  -57.0679 H         1 UNK         0.0600 
    224 H224       -8.1994  -20.7816  -57.0937 H         1 UNK         0.0600 
    225 H225       -7.2398  -19.6177  -55.1377 H         1 UNK         0.3000 
    226 H226       -4.7920  -20.0392  -53.7211 H         1 UNK         0.0600 
    227 H227       -6.0095  -17.8827  -53.7067 H         1 UNK         0.0600 
    228 H228       -4.3978  -17.6439  -54.3583 H         1 UNK         0.0600 
    229 H229       -5.7764  -17.7034  -55.4467 H         1 UNK         0.0600 
    230 H230       -5.5494  -20.9114  -56.8698 H         1 UNK         0.3000 
    231 H231       -3.0362  -20.5058  -58.2191 H         1 UNK         0.0600 
    232 H232       -4.0106  -22.1429  -59.8368 H         1 UNK         0.0600 
    233 H233       -5.1749  -20.8910  -59.4357 H         1 UNK         0.0600 
    234 H234       -5.3202  -22.4954  -58.7159 H         1 UNK         0.0600 
    235 H235       -4.0697  -22.7069  -55.7387 H         1 UNK         0.3000 
    236 H236       -1.9380  -24.6896  -56.1885 H         1 UNK         0.0600 
    237 H237       -4.0546  -24.3695  -53.9976 H         1 UNK         0.0600 
    238 H238       -4.1114  -25.4783  -55.3547 H         1 UNK         0.0600 
    239 H239       -2.9035  -25.7033  -54.1044 H         1 UNK         0.0600 
    240 H240       -2.2878  -23.9653  -52.8865 H         1 UNK         0.3000 
    241 H241       -1.0622  -23.0512  -51.3216 H         1 UNK         0.0600 
    242 H242        1.8267  -25.2190  -52.5963 H         1 UNK         0.3800 
    243 H243        0.1446  -25.2664  -53.0533 H         1 UNK         0.3800 
    244 H244        0.0902  -20.9412  -51.5121 H         1 UNK         0.0800 
    245 H245       -0.0083  -20.9662  -53.2607 H         1 UNK         0.0800 
    246 H246       -2.5898  -18.1675  -52.8231 H         1 UNK         0.0800 
    247 H247       -1.0599  -18.6808  -53.4818 H         1 UNK         0.0800 
@<TRIPOS>BOND
     1    1    2 1    
     2    1  127 1    
     3    1  128 1    
     4    1  129 1    
     5    2    3 2    
     6    2    4 am   BACKBONE|DICT|INTERRES
     7    4    5 1    
     8    4  130 1    
     9    5    6 1    
    10    5   65 1    
    11    5  131 1    
    12    6    7 1    
    13    6  132 1    
    14    6  133 1    
    15    7    8 1    
    16    8    9 1    
    17    8  134 1    
    18    8  135 1    
    19    9   10 ar   
    20    9   14 ar   
    21   10   11 ar   
    22   10  136 1    
    23   11   12 ar   
    24   11  126 1    
    25   12   13 ar   
    26   12  137 1    
    27   13   14 ar   
    28   13   15 1    
    29   14  138 1    
    30   15   16 1    
    31   15  139 1    
    32   15  140 1    
    33   16   17 1    
    34   17   18 1    
    35   17  141 1    
    36   17  142 1    
    37   18   19 1    
    38   18   67 1    
    39   18  143 1    
    40   19   20 am   BACKBONE|DICT|INTERRES
    41   19  144 1    
    42   20   21 2    
    43   20   22 1    
    44   22   23 1    
    45   22   24 1    
    46   22  145 1    
    47   23  146 1    
    48   23  147 1    
    49   23  148 1    
    50   24   25 am   BACKBONE|DICT|INTERRES
    51   24  149 1    
    52   25   26 2    
    53   25   27 1    
    54   27   28 1    
    55   27   29 1    
    56   27  150 1    
    57   28  151 1    
    58   28  152 1    
    59   28  153 1    
    60   29   30 am   BACKBONE|DICT|INTERRES
    61   29  154 1    
    62   30   31 2    
    63   30   32 1    
    64   32   33 1    
    65   32   34 1    
    66   32  155 1    
    67   33  156 1    
    68   33  157 1    
    69   33  158 1    
    70   34   35 am   BACKBONE|DICT|INTERRES
    71   34  159 1    
    72   35   36 2    
    73   35   37 1    
    74   37   38 1    
    75   37   39 1    
    76   37  160 1    
    77   38  161 1    
    78   38  162 1    
    79   38  163 1    
    80   39   40 am   BACKBONE|DICT|INTERRES
    81   39  164 1    
    82   40   41 2    
    83   40   42 1    
    84   42   43 1    
    85   42   44 1    
    86   42  165 1    
    87   43  166 1    
    88   43  167 1    
    89   43  168 1    
    90   44   45 am   BACKBONE|DICT|INTERRES
    91   44  169 1    
    92   45   46 2    
    93   45   47 1    
    94   47   48 1    
    95   47   49 1    
    96   47  170 1    
    97   48  171 1    
    98   48  172 1    
    99   48  173 1    
   100   49   50 am   BACKBONE|DICT|INTERRES
   101   49  174 1    
   102   50   51 2    
   103   50   52 1    
   104   52   53 1    
   105   52   54 1    
   106   52  175 1    
   107   53  176 1    
   108   53  177 1    
   109   53  178 1    
   110   54   55 am   BACKBONE|DICT|INTERRES
   111   54  179 1    
   112   55   56 2    
   113   55   57 1    
   114   57   58 1    
   115   57   59 1    
   116   57  180 1    
   117   58  181 1    
   118   58  182 1    
   119   58  183 1    
   120   59   60 am   BACKBONE|DICT|INTERRES
   121   59  184 1    
   122   60   61 2    
   123   60   62 1    
   124   62   63 1    
   125   62   64 1    
   126   62  185 1    
   127   63  186 1    
   128   63  187 1    
   129   63  188 1    
   130   64   65 am   BACKBONE|DICT|INTERRES
   131   64  189 1    
   132   65   66 2    
   133   67   68 2    
   134   67   69 am   BACKBONE|DICT|INTERRES
   135   69   70 1    
   136   69  190 1    
   137   70   71 1    
   138   70   72 1    
   139   70  191 1    
   140   71  192 1    
   141   71  193 1    
   142   71  194 1    
   143   72   73 2    
   144   72   74 am   BACKBONE|DICT|INTERRES
   145   74   75 1    
   146   74  195 1    
   147   75   76 1    
   148   75   77 1    
   149   75  196 1    
   150   76  197 1    
   151   76  198 1    
   152   76  199 1    
   153   77   78 2    
   154   77   79 am   BACKBONE|DICT|INTERRES
   155   79   80 1    
   156   79  200 1    
   157   80   81 1    
   158   80   82 1    
   159   80  201 1    
   160   81  202 1    
   161   81  203 1    
   162   81  204 1    
   163   82   83 2    
   164   82   84 am   BACKBONE|DICT|INTERRES
   165   84   85 1    
   166   84  205 1    
   167   85   86 1    
   168   85   87 1    
   169   85  206 1    
   170   86  207 1    
   171   86  208 1    
   172   86  209 1    
   173   87   88 2    
   174   87   89 am   BACKBONE|DICT|INTERRES
   175   89   90 1    
   176   89  210 1    
   177   90   91 1    
   178   90   92 1    
   179   90  211 1    
   180   91  212 1    
   181   91  213 1    
   182   91  214 1    
   183   92   93 2    
   184   92   94 am   BACKBONE|DICT|INTERRES
   185   94   95 1    
   186   94  215 1    
   187   95   96 1    
   188   95   97 1    
   189   95  216 1    
   190   96  217 1    
   191   96  218 1    
   192   96  219 1    
   193   97   98 2    
   194   97   99 am   BACKBONE|DICT|INTERRES
   195   99  100 1    
   196   99  220 1    
   197  100  101 1    
   198  100  102 1    
   199  100  221 1    
   200  101  222 1    
   201  101  223 1    
   202  101  224 1    
   203  102  103 2    
   204  102  104 am   BACKBONE|DICT|INTERRES
   205  104  105 1    
   206  104  225 1    
   207  105  106 1    
   208  105  107 1    
   209  105  226 1    
   210  106  227 1    
   211  106  228 1    
   212  106  229 1    
   213  107  108 2    
   214  107  109 am   BACKBONE|DICT|INTERRES
   215  109  110 1    
   216  109  230 1    
   217  110  111 1    
   218  110  112 1    
   219  110  231 1    
   220  111  232 1    
   221  111  233 1    
   222  111  234 1    
   223  112  113 2    
   224  112  114 am   BACKBONE|DICT|INTERRES
   225  114  115 1    
   226  114  235 1    
   227  115  116 1    
   228  115  117 1    
   229  115  236 1    
   230  116  237 1    
   231  116  238 1    
   232  116  239 1    
   233  117  118 2    
   234  117  119 am   BACKBONE|DICT|INTERRES
   235  119  120 1    
   236  119  240 1    
   237  120  121 1    
   238  120  124 1    
   239  120  241 1    
   240  121  122 am   BACKBONE|DICT|INTERRES
   241  121  123 2    
   242  122  242 1    
   243  122  243 1    
   244  124  125 1    
   245  124  244 1    
   246  124  245 1    
   247  125  126 1    
   248  126  246 1    
   249  126  247 1    
@<TRIPOS>SUBSTRUCTURE
     1 UNK         1 GROUP             0       ****    0 ROOT    
