@<TRIPOS>MOLECULE
3R540
247   249    1
SMALL
USER_CHARGES


@<TRIPOS>ATOM
      1 CA         -3.8779  -16.4978  -46.2429 C.3       0 UNK        -0.1800 
      2 C          -3.9807  -15.5795  -47.4517 C.2       0 UNK         0.5000 
      3 O          -4.7933  -14.6557  -47.4560 O.2       0 UNK        -0.5000 
      4 N          -3.1499  -15.8260  -48.4738 N.am      1 UNK        -0.5000 
      5 CA         -3.0559  -15.0129  -49.6957 C.3       1 UNK         0.1400 
      6 C6         -2.4462  -15.8116  -50.8766 C.3       23 UNK        -0.0398 
      7 S7         -0.7626  -16.4623  -50.5776 S.3       23 UNK        -0.2404 
      8 C8         -1.0706  -18.2371  -50.3159 C.3       23 UNK        -0.0205 
      9 C9          0.1819  -19.0455  -50.6121 C.ar      23 UNK        -0.0193 
     10 C10         0.3144  -19.6894  -51.8437 C.ar      23 UNK        -0.1150 
     11 C11         1.4609  -20.4307  -52.1401 C.ar      23 UNK        -0.0193 
     12 C12         2.4928  -20.5058  -51.2010 C.ar      23 UNK        -0.1150 
     13 C13         2.3814  -19.8497  -49.9708 C.ar      23 UNK        -0.0193 
     14 C14         1.2157  -19.1373  -49.6751 C.ar      23 UNK        -0.1150 
     15 C15         3.5473  -19.8624  -48.9933 C.3       23 UNK        -0.0205 
     16 S16         3.6683  -21.4234  -48.0677 S.3       23 UNK        -0.2404 
     17 C17         2.5265  -21.1507  -46.6710 C.3       23 UNK        -0.0398 
     18 CA          1.5187  -22.3197  -46.5128 C.3       11 UNK         0.1400 
     19 N           1.3383  -22.7137  -45.1119 N.am      11 UNK        -0.5000 
     20 C           0.7740  -23.8659  -44.7214 C.2       10 UNK         0.5000 
     21 O           0.3652  -24.7242  -45.5016 O.2       10 UNK        -0.5000 
     22 CA          0.5955  -24.0759  -43.2076 C.3       10 UNK         0.1400 
     23 CB          1.8540  -24.7099  -42.5982 C.3       10 UNK        -0.1800 
     24 N           0.2856  -22.8381  -42.4934 N.am      10 UNK        -0.5000 
     25 C          -0.8033  -22.0830  -42.6785 C.2       9 UNK         0.5000 
     26 O          -1.6875  -22.3608  -43.4885 O.2       9 UNK        -0.5000 
     27 CA         -0.9021  -20.7802  -41.8633 C.3       9 UNK         0.1400 
     28 CB         -1.3843  -21.0495  -40.4264 C.3       9 UNK        -0.1800 
     29 N           0.3211  -19.9682  -41.8798 N.am      9 UNK        -0.5000 
     30 C           1.5278  -20.2252  -41.3530 C.2       8 UNK         0.5000 
     31 O           1.8161  -21.2607  -40.7517 O.2       8 UNK        -0.5000 
     32 CA          2.6016  -19.1410  -41.5488 C.3       8 UNK         0.1400 
     33 CB          3.2370  -19.2649  -42.9429 C.3       8 UNK        -0.1800 
     34 N           2.0736  -17.7882  -41.3654 N.am      8 UNK        -0.5000 
     35 C           1.6431  -17.2962  -40.1940 C.2       7 UNK         0.5000 
     36 O           1.7063  -17.9104  -39.1281 O.2       7 UNK        -0.5000 
     37 CA          1.0255  -15.8864  -40.2148 C.3       7 UNK         0.1400 
     38 CB          2.1230  -14.8118  -40.1840 C.3       7 UNK        -0.1800 
     39 N           0.1540  -15.6676  -41.3695 N.am      7 UNK        -0.5000 
     40 C          -1.0192  -16.2868  -41.5681 C.2       6 UNK         0.5000 
     41 O          -1.5232  -17.0765  -40.7694 O.2       6 UNK        -0.5000 
     42 CA         -1.7383  -15.9959  -42.8988 C.3       6 UNK         0.1400 
     43 CB         -2.5107  -14.6698  -42.8229 C.3       6 UNK        -0.1800 
     44 N          -0.8184  -15.9569  -44.0344 N.am      6 UNK        -0.5000 
     45 C          -0.1000  -16.9994  -44.4738 C.2       5 UNK         0.5000 
     46 O          -0.1733  -18.1358  -44.0074 O.2       5 UNK        -0.5000 
     47 CA          0.8988  -16.7106  -45.6045 C.3       5 UNK         0.1400 
     48 CB          0.1850  -16.7050  -46.9626 C.3       5 UNK        -0.1800 
     49 N           1.5976  -15.4404  -45.4063 N.am      5 UNK        -0.5000 
     50 C           2.4914  -15.2141  -44.4328 C.2       4 UNK         0.5000 
     51 O           2.8396  -16.0646  -43.6149 O.2       4 UNK        -0.5000 
     52 CA          3.0595  -13.7867  -44.3321 C.3       4 UNK         0.1400 
     53 CB          4.2138  -13.5918  -45.3262 C.3       4 UNK        -0.1800 
     54 N           2.0425  -12.7595  -44.5610 N.am      4 UNK        -0.5000 
     55 C           1.0028  -12.5281  -43.7467 C.2       3 UNK         0.5000 
     56 O           0.8122  -13.1341  -42.6932 O.2       3 UNK        -0.5000 
     57 CA         -0.0270  -11.4834  -44.2190 C.3       3 UNK         0.1400 
     58 CB          0.4007  -10.0714  -43.7925 C.3       3 UNK        -0.1800 
     59 N          -0.2589  -11.5071  -45.6676 N.am      3 UNK        -0.5000 
     60 C          -0.7132  -12.5706  -46.3422 C.2       2 UNK         0.5000 
     61 O          -0.9748  -13.6546  -45.8096 O.2       2 UNK        -0.5000 
     62 CA         -0.8568  -12.4167  -47.8631 C.3       2 UNK         0.1400 
     63 CB          0.5200  -12.3630  -48.5494 C.3       2 UNK        -0.1800 
     64 N          -1.5972  -13.5712  -48.3463 N.am      2 UNK        -0.5000 
     65 C          -2.3206  -13.6701  -49.4650 C.2       1 UNK         0.5000 
     66 O          -2.4324  -12.7607  -50.2884 O.2       1 UNK        -0.5000 
     67 C           0.1675  -22.0182  -47.1921 C.2       11 UNK         0.5000 
     68 O          -0.0483  -22.4336  -48.3287 O.2       11 UNK        -0.5000 
     69 N          -0.7424  -21.3573  -46.4594 N.am      12 UNK        -0.5000 
     70 CA         -2.1139  -21.0967  -46.8966 C.3       12 UNK         0.1400 
     71 CB         -2.7768  -20.0864  -45.9504 C.3       12 UNK        -0.1800 
     72 C          -2.9450  -22.3885  -47.0022 C.2       12 UNK         0.5000 
     73 O          -3.7095  -22.5380  -47.9553 O.2       12 UNK        -0.5000 
     74 N          -2.7524  -23.3162  -46.0538 N.am      13 UNK        -0.5000 
     75 CA         -3.3546  -24.6501  -46.0663 C.3       13 UNK         0.1400 
     76 CB         -3.0858  -25.3579  -44.7303 C.3       13 UNK        -0.1800 
     77 C          -2.8704  -25.5007  -47.2560 C.2       13 UNK         0.5000 
     78 O          -3.6979  -26.0912  -47.9509 O.2       13 UNK        -0.5000 
     79 N          -1.5524  -25.4978  -47.5096 N.am      14 UNK        -0.5000 
     80 CA         -0.9129  -26.1477  -48.6600 C.3       14 UNK         0.1400 
     81 CB          0.6136  -26.0596  -48.5150 C.3       14 UNK        -0.1800 
     82 C          -1.3618  -25.5643  -50.0147 C.2       14 UNK         0.5000 
     83 O          -1.4536  -26.3003  -50.9969 O.2       14 UNK        -0.5000 
     84 N          -1.6909  -24.2669  -50.0237 N.am      15 UNK        -0.5000 
     85 CA         -2.2919  -23.5296  -51.1349 C.3       15 UNK         0.1400 
     86 CB         -1.9967  -22.0363  -50.9323 C.3       15 UNK        -0.1800 
     87 C          -3.8062  -23.7805  -51.3075 C.2       15 UNK         0.5000 
     88 O          -4.4430  -23.0489  -52.0670 O.2       15 UNK        -0.5000 
     89 N          -4.3567  -24.7823  -50.6038 N.am      16 UNK        -0.5000 
     90 CA         -5.7527  -25.2271  -50.6056 C.3       16 UNK         0.1400 
     91 CB         -6.1602  -25.7736  -51.9896 C.3       16 UNK        -0.1800 
     92 C          -6.7024  -24.1450  -50.0615 C.2       16 UNK         0.5000 
     93 O          -7.6908  -23.7989  -50.7093 O.2       16 UNK        -0.5000 
     94 N          -6.3524  -23.6231  -48.8769 N.am      17 UNK        -0.5000 
     95 CA         -6.9925  -22.5066  -48.1735 C.3       17 UNK         0.1400 
     96 CB         -8.4493  -22.8384  -47.7864 C.3       17 UNK        -0.1800 
     97 C          -6.8433  -21.1891  -48.9597 C.2       17 UNK         0.5000 
     98 O          -7.8143  -20.4512  -49.1360 O.2       17 UNK        -0.5000 
     99 N          -5.6075  -20.9406  -49.4190 N.am      18 UNK        -0.5000 
    100 CA        -5.1627  -19.7869  -50.2052 C.3       18 UNK         0.1400 
    101 CB        -5.1858  -18.5111  -49.3410 C.3       18 UNK        -0.1800 
    102 C         -5.9070  -19.6299  -51.5488 C.2       18 UNK         0.5000 
    103 O         -6.2158  -18.5095  -51.9591 O.2       18 UNK        -0.5000 
    104 N         -6.1760  -20.7600  -52.2168 N.am      19 UNK        -0.5000 
    105 CA        -6.7276  -20.8027  -53.5699 C.3       19 UNK         0.1400 
    106 CB        -7.3551  -22.1790  -53.8317 C.3       19 UNK        -0.1800 
    107 C         -5.6471  -20.4862  -54.6180 C.2       19 UNK         0.5000 
    108 O         -5.9374  -19.7998  -55.5990 O.2       19 UNK        -0.5000 
    109 N         -4.4158  -20.9632  -54.3792 N.am      20 UNK        -0.5000 
    110 CA        -3.2288  -20.5681  -55.1369 C.3       20 UNK         0.1400 
    111 CB        -2.0944  -21.5710  -54.8883 C.3       20 UNK        -0.1800 
    112 C         -2.8092  -19.1341  -54.7603 C.2       20 UNK         0.5000 
    113 O         -2.8917  -18.7579  -53.5889 O.2       20 UNK        -0.5000 
    114 N         -2.3910  -18.3619  -55.7690 N.am      21 UNK        -0.5000 
    115 CA        -2.2008  -16.9152  -55.6813 C.3       21 UNK         0.1400 
    116 CB        -2.1895  -16.3050  -57.0934 C.3       21 UNK        -0.1800 
    117 C         -1.0461  -16.3790  -54.7980 C.2       21 UNK         0.5000 
    118 O         -1.2318  -15.2975  -54.2435 O.2       21 UNK        -0.5000 
    119 N          0.1169  -17.0238  -54.6031 N.am      22 UNK        -0.5000 
    120 CA         0.7004  -18.2270  -55.2208 C.3       22 UNK         0.1400 
    121 C          0.8427  -18.1582  -56.7662 C.2       22 UNK         0.5000 
    122 N          1.1918  -17.0090  -57.3317 N.am      22 UNK        -0.7600 
    123 O          0.6066  -19.1449  -57.4564 O.2       22 UNK        -0.5000 
    124 C124        2.0761  -18.5213  -54.5615 C.3       23 UNK        -0.0398 
    125 S125        2.6389  -20.2562  -54.6772 S.3       23 UNK        -0.2404 
    126 C126        1.5799  -21.1378  -53.4816 C.3       23 UNK        -0.0205 
    127 H127       -2.8879  -16.9453  -46.1676 H         1 UNK         0.0600 
    128 H128       -4.0616  -15.9390  -45.3261 H         1 UNK         0.0600 
    129 H129       -4.6182  -17.2946  -46.3086 H         1 UNK         0.0600 
    130 H130       -2.5017  -16.5964  -48.4197 H         1 UNK         0.3000 
    131 H131       -4.0738  -14.7484  -49.9905 H         1 UNK         0.0600 
    132 H132       -2.4050  -15.1827  -51.7674 H         1 UNK         0.0800 
    133 H133       -3.1093  -16.6323  -51.1494 H         1 UNK         0.0800 
    134 H134       -1.3958  -18.4128  -49.2904 H         1 UNK         0.0800 
    135 H135       -1.8838  -18.5733  -50.9611 H         1 UNK         0.0800 
    136 H136       -0.4807  -19.6137  -52.5717 H         1 UNK         0.1150 
    137 H137        3.3909  -21.0601  -51.4350 H         1 UNK         0.1150 
    138 H138        1.1275  -18.6313  -48.7275 H         1 UNK         0.1150 
    139 H139        4.4743  -19.7217  -49.5511 H         1 UNK         0.0800 
    140 H140        3.4874  -19.0207  -48.3015 H         1 UNK         0.0800 
    141 H141        2.0258  -20.1849  -46.7624 H         1 UNK         0.0800 
    142 H142        3.1546  -21.0658  -45.7831 H         1 UNK         0.0800 
    143 H143        1.9288  -23.1983  -47.0164 H         1 UNK         0.0600 
    144 H144        1.6410  -22.0630  -44.4033 H         1 UNK         0.3000 
    145 H145       -0.2400  -24.7632  -43.0624 H         1 UNK         0.0600 
    146 H146        1.7081  -24.9372  -41.5420 H         1 UNK         0.0600 
    147 H147        2.1028  -25.6458  -43.1004 H         1 UNK         0.0600 
    148 H148        2.7188  -24.0503  -42.6823 H         1 UNK         0.0600 
    149 H149        0.9620  -22.5138  -41.8061 H         1 UNK         0.3000 
    150 H150       -1.6612  -20.1659  -42.3506 H         1 UNK         0.0600 
    151 H151       -2.3472  -21.5615  -40.4301 H         1 UNK         0.0600 
    152 H152       -1.5133  -20.1168  -39.8767 H         1 UNK         0.0600 
    153 H153       -0.6860  -21.6738  -39.8687 H         1 UNK         0.0600 
    154 H154        0.2318  -19.1161  -42.4278 H         1 UNK         0.3000 
    155 H155        3.3822  -19.3048  -40.8029 H         1 UNK         0.0600 
    156 H156        4.0558  -18.5558  -43.0655 H         1 UNK         0.0600 
    157 H157        2.5124  -19.0771  -43.7358 H         1 UNK         0.0600 
    158 H158        3.6471  -20.2634  -43.0996 H         1 UNK         0.0600 
    159 H159        2.0585  -17.1898  -42.1856 H         1 UNK         0.3000 
    160 H160        0.4205  -15.7760  -39.3124 H         1 UNK         0.0600 
    161 H161        1.6934  -13.8129  -40.1065 H         1 UNK         0.0600 
    162 H162        2.7412  -14.8410  -41.0817 H         1 UNK         0.0600 
    163 H163        2.7818  -14.9496  -39.3258 H         1 UNK         0.0600 
    164 H164        0.4627  -14.9752  -42.0447 H         1 UNK         0.3000 
    165 H165       -2.4546  -16.8006  -43.0781 H         1 UNK         0.0600 
    166 H166       -3.0286  -14.4557  -43.7574 H         1 UNK         0.0600 
    167 H167       -3.2613  -14.7015  -42.0324 H         1 UNK         0.0600 
    168 H168       -1.8488  -13.8296  -42.6127 H         1 UNK         0.0600 
    169 H169       -0.7254  -15.0666  -44.5150 H         1 UNK         0.3000 
    170 H170        1.6411  -17.5116  -45.6122 H         1 UNK         0.0600 
    171 H171       -0.2969  -17.6652  -47.1489 H         1 UNK         0.0600 
    172 H172       -0.5876  -15.9407  -47.0113 H         1 UNK         0.0600 
    173 H173        0.8855  -16.5186  -47.7766 H         1 UNK         0.0600 
    174 H174        1.3235  -14.6724  -45.9998 H         1 UNK         0.3000 
    175 H175        3.4531  -13.6559  -43.3218 H         1 UNK         0.0600 
    176 H176        4.6741  -12.6108  -45.2080 H         1 UNK         0.0600 
    177 H177        4.9945  -14.3371  -45.1679 H         1 UNK         0.0600 
    178 H178        3.8775  -13.6829  -46.3599 H         1 UNK         0.0600 
    179 H179        2.1224  -12.2147  -45.4066 H         1 UNK         0.3000 
    180 H180       -0.9751  -11.7142  -43.7291 H         1 UNK         0.0600 
    181 H181        1.3286   -9.7667  -44.2780 H         1 UNK         0.0600 
    182 H182        0.5621  -10.0216  -42.7147 H         1 UNK         0.0600 
    183 H183       -0.3653   -9.3359  -44.0388 H         1 UNK         0.0600 
    184 H184       -0.0604  -10.6537  -46.1698 H         1 UNK         0.3000 
    185 H185       -1.4203  -11.5052  -48.0716 H         1 UNK         0.0600 
    186 H186        0.4179  -12.2723  -49.6309 H         1 UNK         0.0600 
    187 H187        1.1004  -11.5052  -48.2084 H         1 UNK         0.0600 
    188 H188        1.1052  -13.2610  -48.3459 H         1 UNK         0.0600 
    189 H189       -1.6257  -14.3330  -47.6816 H         1 UNK         0.3000 
    190 H190       -0.5129  -21.0925  -45.5132 H         1 UNK         0.3000 
    191 H191       -2.0686  -20.6445  -47.8890 H         1 UNK         0.0600 
    192 H192       -2.1878  -19.1729  -45.8789 H         1 UNK         0.0600 
    193 H193       -3.7698  -19.8119  -46.3082 H         1 UNK         0.0600 
    194 H194       -2.8919  -20.4855  -44.9427 H         1 UNK         0.0600 
    195 H195       -2.1609  -23.0863  -45.2613 H         1 UNK         0.3000 
    196 H196       -4.4346  -24.5234  -46.1663 H         1 UNK         0.0600 
    197 H197       -3.5880  -26.3254  -44.6954 H         1 UNK         0.0600 
    198 H198       -3.4544  -24.7684  -43.8905 H         1 UNK         0.0600 
    199 H199       -2.0229  -25.5363  -44.5722 H         1 UNK         0.0600 
    200 H200       -0.9303  -25.0270  -46.8574 H         1 UNK         0.3000 
    201 H201       -1.1972  -27.2017  -48.6451 H         1 UNK         0.0600 
    202 H202        0.9508  -26.5377  -47.5952 H         1 UNK         0.0600 
    203 H203        0.9563  -25.0247  -48.4998 H         1 UNK         0.0600 
    204 H204        1.1151  -26.5597  -49.3444 H         1 UNK         0.0600 
    205 H205       -1.5103  -23.7276  -49.1848 H         1 UNK         0.3000 
    206 H206       -1.8114  -23.8456  -52.0627 H         1 UNK         0.0600 
    207 H207       -0.9220  -21.8685  -50.8931 H         1 UNK         0.0600 
    208 H208       -2.4004  -21.4215  -51.7352 H         1 UNK         0.0600 
    209 H209       -2.4189  -21.6633  -50.0028 H         1 UNK         0.0600 
    210 H210       -3.7572  -25.2832  -49.9597 H         1 UNK         0.3000 
    211 H211       -5.8082  -26.0591  -49.9021 H         1 UNK         0.0600 
    212 H212       -6.1434  -25.0008  -52.7565 H         1 UNK         0.0600 
    213 H213       -7.1695  -26.1857  -51.9641 H         1 UNK         0.0600 
    214 H214       -5.4913  -26.5732  -52.3076 H         1 UNK         0.0600 
    215 H215       -5.4752  -23.9301  -48.4764 H         1 UNK         0.3000 
    216 H216       -6.4347  -22.3713  -47.2457 H         1 UNK         0.0600 
    217 H217       -8.5066  -23.7773  -47.2360 H         1 UNK         0.0600 
    218 H218       -9.0975  -22.9201  -48.6591 H         1 UNK         0.0600 
    219 H219       -8.8660  -22.0605  -47.1456 H         1 UNK         0.0600 
    220 H220       -4.8863  -21.6114  -49.1688 H         1 UNK         0.3000 
    221 H221       -4.1226  -19.9775  -50.4697 H         1 UNK         0.0600 
    222 H222       -6.1949  -18.2566  -49.0166 H         1 UNK         0.0600 
    223 H223       -4.5663  -18.6311  -48.4531 H         1 UNK         0.0600 
    224 H224       -4.8003  -17.6559  -49.8938 H         1 UNK         0.0600 
    225 H225       -5.8454  -21.6430  -51.8418 H         1 UNK         0.3000 
    226 H226       -7.5151  -20.0507  -53.6538 H         1 UNK         0.0600 
    227 H227       -8.1278  -22.4070  -53.0975 H         1 UNK         0.0600 
    228 H228       -7.8206  -22.2134  -54.8173 H         1 UNK         0.0600 
    229 H229       -6.6101  -22.9730  -53.7937 H         1 UNK         0.0600 
    230 H230       -4.2706  -21.5236  -53.5477 H         1 UNK         0.3000 
    231 H231       -3.4773  -20.5985  -56.2000 H         1 UNK         0.0600 
    232 H232       -2.4110  -22.5899  -55.1123 H         1 UNK         0.0600 
    233 H233       -1.7502  -21.5473  -53.8568 H         1 UNK         0.0600 
    234 H234       -1.2384  -21.3495  -55.5268 H         1 UNK         0.0600 
    235 H235       -2.3210  -18.7622  -56.6934 H         1 UNK         0.3000 
    236 H236       -3.1063  -16.5317  -55.2049 H         1 UNK         0.0600 
    237 H237       -3.1729  -16.3865  -57.5568 H         1 UNK         0.0600 
    238 H238       -1.9355  -15.2444  -57.0672 H         1 UNK         0.0600 
    239 H239       -1.4793  -16.7979  -57.7543 H         1 UNK         0.0600 
    240 H240        0.7489  -16.5655  -53.9654 H         1 UNK         0.3000 
    241 H241        0.0413  -19.0601  -54.9843 H         1 UNK         0.0600 
    242 H242        1.3787  -16.1899  -56.7748 H         1 UNK         0.3800 
    243 H243        1.2817  -16.9594  -58.3345 H         1 UNK         0.3800 
    244 H244        2.0642  -18.2457  -53.5069 H         1 UNK         0.0800 
    245 H245        2.8520  -17.8877  -54.9954 H         1 UNK         0.0800 
    246 H246        1.9828  -22.1396  -53.3270 H         1 UNK         0.0800 
    247 H247        0.5953  -21.2789  -53.9235 H         1 UNK         0.0800 
@<TRIPOS>BOND
     1    1    2 1    
     2    1  127 1    
     3    1  128 1    
     4    1  129 1    
     5    2    3 2    
     6    2    4 am   BACKBONE|DICT|INTERRES
     7    4    5 1    
     8    4  130 1    
     9    5    6 1    
    10    5   65 1    
    11    5  131 1    
    12    6    7 1    
    13    6  132 1    
    14    6  133 1    
    15    7    8 1    
    16    8    9 1    
    17    8  134 1    
    18    8  135 1    
    19    9   10 ar   
    20    9   14 ar   
    21   10   11 ar   
    22   10  136 1    
    23   11   12 ar   
    24   11  126 1    
    25   12   13 ar   
    26   12  137 1    
    27   13   14 ar   
    28   13   15 1    
    29   14  138 1    
    30   15   16 1    
    31   15  139 1    
    32   15  140 1    
    33   16   17 1    
    34   17   18 1    
    35   17  141 1    
    36   17  142 1    
    37   18   19 1    
    38   18   67 1    
    39   18  143 1    
    40   19   20 am   BACKBONE|DICT|INTERRES
    41   19  144 1    
    42   20   21 2    
    43   20   22 1    
    44   22   23 1    
    45   22   24 1    
    46   22  145 1    
    47   23  146 1    
    48   23  147 1    
    49   23  148 1    
    50   24   25 am   BACKBONE|DICT|INTERRES
    51   24  149 1    
    52   25   26 2    
    53   25   27 1    
    54   27   28 1    
    55   27   29 1    
    56   27  150 1    
    57   28  151 1    
    58   28  152 1    
    59   28  153 1    
    60   29   30 am   BACKBONE|DICT|INTERRES
    61   29  154 1    
    62   30   31 2    
    63   30   32 1    
    64   32   33 1    
    65   32   34 1    
    66   32  155 1    
    67   33  156 1    
    68   33  157 1    
    69   33  158 1    
    70   34   35 am   BACKBONE|DICT|INTERRES
    71   34  159 1    
    72   35   36 2    
    73   35   37 1    
    74   37   38 1    
    75   37   39 1    
    76   37  160 1    
    77   38  161 1    
    78   38  162 1    
    79   38  163 1    
    80   39   40 am   BACKBONE|DICT|INTERRES
    81   39  164 1    
    82   40   41 2    
    83   40   42 1    
    84   42   43 1    
    85   42   44 1    
    86   42  165 1    
    87   43  166 1    
    88   43  167 1    
    89   43  168 1    
    90   44   45 am   BACKBONE|DICT|INTERRES
    91   44  169 1    
    92   45   46 2    
    93   45   47 1    
    94   47   48 1    
    95   47   49 1    
    96   47  170 1    
    97   48  171 1    
    98   48  172 1    
    99   48  173 1    
   100   49   50 am   BACKBONE|DICT|INTERRES
   101   49  174 1    
   102   50   51 2    
   103   50   52 1    
   104   52   53 1    
   105   52   54 1    
   106   52  175 1    
   107   53  176 1    
   108   53  177 1    
   109   53  178 1    
   110   54   55 am   BACKBONE|DICT|INTERRES
   111   54  179 1    
   112   55   56 2    
   113   55   57 1    
   114   57   58 1    
   115   57   59 1    
   116   57  180 1    
   117   58  181 1    
   118   58  182 1    
   119   58  183 1    
   120   59   60 am   BACKBONE|DICT|INTERRES
   121   59  184 1    
   122   60   61 2    
   123   60   62 1    
   124   62   63 1    
   125   62   64 1    
   126   62  185 1    
   127   63  186 1    
   128   63  187 1    
   129   63  188 1    
   130   64   65 am   BACKBONE|DICT|INTERRES
   131   64  189 1    
   132   65   66 2    
   133   67   68 2    
   134   67   69 am   BACKBONE|DICT|INTERRES
   135   69   70 1    
   136   69  190 1    
   137   70   71 1    
   138   70   72 1    
   139   70  191 1    
   140   71  192 1    
   141   71  193 1    
   142   71  194 1    
   143   72   73 2    
   144   72   74 am   BACKBONE|DICT|INTERRES
   145   74   75 1    
   146   74  195 1    
   147   75   76 1    
   148   75   77 1    
   149   75  196 1    
   150   76  197 1    
   151   76  198 1    
   152   76  199 1    
   153   77   78 2    
   154   77   79 am   BACKBONE|DICT|INTERRES
   155   79   80 1    
   156   79  200 1    
   157   80   81 1    
   158   80   82 1    
   159   80  201 1    
   160   81  202 1    
   161   81  203 1    
   162   81  204 1    
   163   82   83 2    
   164   82   84 am   BACKBONE|DICT|INTERRES
   165   84   85 1    
   166   84  205 1    
   167   85   86 1    
   168   85   87 1    
   169   85  206 1    
   170   86  207 1    
   171   86  208 1    
   172   86  209 1    
   173   87   88 2    
   174   87   89 am   BACKBONE|DICT|INTERRES
   175   89   90 1    
   176   89  210 1    
   177   90   91 1    
   178   90   92 1    
   179   90  211 1    
   180   91  212 1    
   181   91  213 1    
   182   91  214 1    
   183   92   93 2    
   184   92   94 am   BACKBONE|DICT|INTERRES
   185   94   95 1    
   186   94  215 1    
   187   95   96 1    
   188   95   97 1    
   189   95  216 1    
   190   96  217 1    
   191   96  218 1    
   192   96  219 1    
   193   97   98 2    
   194   97   99 am   BACKBONE|DICT|INTERRES
   195   99  100 1    
   196   99  220 1    
   197  100  101 1    
   198  100  102 1    
   199  100  221 1    
   200  101  222 1    
   201  101  223 1    
   202  101  224 1    
   203  102  103 2    
   204  102  104 am   BACKBONE|DICT|INTERRES
   205  104  105 1    
   206  104  225 1    
   207  105  106 1    
   208  105  107 1    
   209  105  226 1    
   210  106  227 1    
   211  106  228 1    
   212  106  229 1    
   213  107  108 2    
   214  107  109 am   BACKBONE|DICT|INTERRES
   215  109  110 1    
   216  109  230 1    
   217  110  111 1    
   218  110  112 1    
   219  110  231 1    
   220  111  232 1    
   221  111  233 1    
   222  111  234 1    
   223  112  113 2    
   224  112  114 am   BACKBONE|DICT|INTERRES
   225  114  115 1    
   226  114  235 1    
   227  115  116 1    
   228  115  117 1    
   229  115  236 1    
   230  116  237 1    
   231  116  238 1    
   232  116  239 1    
   233  117  118 2    
   234  117  119 am   BACKBONE|DICT|INTERRES
   235  119  120 1    
   236  119  240 1    
   237  120  121 1    
   238  120  124 1    
   239  120  241 1    
   240  121  122 am   BACKBONE|DICT|INTERRES
   241  121  123 2    
   242  122  242 1    
   243  122  243 1    
   244  124  125 1    
   245  124  244 1    
   246  124  245 1    
   247  125  126 1    
   248  126  246 1    
   249  126  247 1    
@<TRIPOS>SUBSTRUCTURE
     1 UNK         1 GROUP             0       ****    0 ROOT    
