@<TRIPOS>MOLECULE
3R540
247   249    1
SMALL
USER_CHARGES


@<TRIPOS>ATOM
      1 CA         -4.3522  -16.7110  -47.9374 C.3       0 UNK        -0.1800 
      2 C          -3.6155  -15.4820  -48.4526 C.2       0 UNK         0.5000 
      3 O          -4.1622  -14.7264  -49.2557 O.2       0 UNK        -0.5000 
      4 N          -2.3720  -15.2927  -48.0024 N.am      1 UNK        -0.5000 
      5 CA         -1.5136  -14.1563  -48.3486 C.3       1 UNK         0.1400 
      6 C6         -0.0205  -14.5220  -48.1452 C.3       23 UNK        -0.0398 
      7 S7          0.5988  -15.6494  -49.4365 S.3       23 UNK        -0.2404 
      8 C8          0.4063  -17.2744  -48.6467 C.3       23 UNK        -0.0205 
      9 C9          1.2034  -18.3319  -49.3916 C.ar      23 UNK        -0.0193 
     10 C10         0.6574  -18.9756  -50.5062 C.ar      23 UNK        -0.1150 
     11 C11         1.4074  -19.9124  -51.2250 C.ar      23 UNK        -0.0193 
     12 C12         2.7088  -20.2112  -50.8063 C.ar      23 UNK        -0.1150 
     13 C13         3.2608  -19.5864  -49.6845 C.ar      23 UNK        -0.0193 
     14 C14         2.5023  -18.6459  -48.9820 C.ar      23 UNK        -0.1150 
     15 C15         4.6915  -19.8972  -49.2625 C.3       23 UNK        -0.0205 
     16 S16         4.7992  -20.6143  -47.5923 S.3       23 UNK        -0.2404 
     17 C17         3.8073  -22.1320  -47.7841 C.3       23 UNK        -0.0398 
     18 CA          4.0759  -23.1559  -46.6523 C.3       11 UNK         0.1400 
     19 N           3.7075  -22.6158  -45.3383 N.am      11 UNK        -0.5000 
     20 C           4.2986  -22.9257  -44.1778 C.2       10 UNK         0.5000 
     21 O           5.2750  -23.6703  -44.0862 O.2       10 UNK        -0.5000 
     22 CA          3.6709  -22.3365  -42.8970 C.3       10 UNK         0.1400 
     23 CB          4.3381  -21.0021  -42.5319 C.3       10 UNK        -0.1800 
     24 N           2.2200  -22.1461  -42.9921 N.am      10 UNK        -0.5000 
     25 C           1.3297  -23.1376  -43.1453 C.2       9 UNK         0.5000 
     26 O           1.6368  -24.3290  -43.1749 O.2       9 UNK        -0.5000 
     27 CA         -0.1397  -22.7367  -43.3700 C.3       9 UNK         0.1400 
     28 CB         -0.8540  -22.5139  -42.0292 C.3       9 UNK        -0.1800 
     29 N          -0.2928  -21.5487  -44.2103 N.am      9 UNK        -0.5000 
     30 C           0.1305  -21.4419  -45.4773 C.2       8 UNK         0.5000 
     31 O           0.7101  -22.3419  -46.0828 O.2       8 UNK        -0.5000 
     32 CA         -0.0711  -20.0788  -46.1608 C.3       8 UNK         0.1400 
     33 CB         -1.5335  -19.8800  -46.5848 C.3       8 UNK        -0.1800 
     34 N           0.3498  -18.9752  -45.2986 N.am      8 UNK        -0.5000 
     35 C           1.6197  -18.7607  -44.9255 C.2       7 UNK         0.5000 
     36 O           2.5721  -19.4250  -45.3275 O.2       7 UNK        -0.5000 
     37 CA          1.8586  -17.6471  -43.8938 C.3       7 UNK         0.1400 
     38 CB          1.9769  -16.2811  -44.5807 C.3       7 UNK        -0.1800 
     39 N           0.8039  -17.5972  -42.8818 N.am      7 UNK        -0.5000 
     40 C           0.6312  -18.5318  -41.9353 C.2       6 UNK         0.5000 
     41 O           1.3634  -19.5122  -41.8018 O.2       6 UNK        -0.5000 
     42 CA         -0.5928  -18.3694  -41.0140 C.3       6 UNK         0.1400 
     43 CB         -0.2681  -17.4275  -39.8452 C.3       6 UNK        -0.1800 
     44 N          -1.7737  -17.8708  -41.7202 N.am      6 UNK        -0.5000 
     45 C          -2.3827  -18.5012  -42.7346 C.2       5 UNK         0.5000 
     46 O          -2.0477  -19.6111  -43.1422 O.2       5 UNK        -0.5000 
     47 CA         -3.5291  -17.7584  -43.4445 C.3       5 UNK         0.1400 
     48 CB         -4.8883  -18.2723  -42.9478 C.3       5 UNK        -0.1800 
     49 N          -3.4786  -16.3040  -43.2822 N.am      5 UNK        -0.5000 
     50 C          -2.5104  -15.5022  -43.7465 C.2       4 UNK         0.5000 
     51 O          -1.5455  -15.9088  -44.4007 O.2       4 UNK        -0.5000 
     52 CA         -2.6823  -14.0069  -43.4195 C.3       4 UNK         0.1400 
     53 CB         -2.9698  -13.7515  -41.9226 C.3       4 UNK        -0.1800 
     54 N          -1.5774  -13.1757  -43.8999 N.am      4 UNK        -0.5000 
     55 C          -0.3312  -13.0560  -43.4182 C.2       3 UNK         0.5000 
     56 O           0.0894  -13.6872  -42.4474 O.2       3 UNK        -0.5000 
     57 CA          0.6040  -12.0462  -44.1311 C.3       3 UNK         0.1400 
     58 CB          2.0176  -12.6139  -44.3413 C.3       3 UNK        -0.1800 
     59 N           0.0945  -11.6000  -45.4302 N.am      3 UNK        -0.5000 
     60 C          -0.8085  -10.6323  -45.6427 C.2       2 UNK         0.5000 
     61 O          -1.2461   -9.8976  -44.7576 O.2       2 UNK        -0.5000 
     62 CA         -1.3565  -10.5109  -47.0827 C.3       2 UNK         0.1400 
     63 CB         -0.6197   -9.4009  -47.8472 C.3       2 UNK        -0.1800 
     64 N          -1.2671  -11.7630  -47.8488 N.am      2 UNK        -0.5000 
     65 C          -1.8955  -12.9045  -47.5271 C.2       1 UNK         0.5000 
     66 O          -2.6922  -12.9877  -46.5894 O.2       1 UNK        -0.5000 
     67 C           3.3565  -24.4922  -46.9530 C.2       11 UNK         0.5000 
     68 O           3.6191  -25.0854  -48.0000 O.2       11 UNK        -0.5000 
     69 N           2.4563  -24.9325  -46.0578 N.am      12 UNK        -0.5000 
     70 CA          1.5407  -26.0729  -46.1895 C.3       12 UNK         0.1400 
     71 CB          2.3156  -27.4056  -46.2526 C.3       12 UNK        -0.1800 
     72 C           0.5266  -25.9020  -47.3434 C.2       12 UNK         0.5000 
     73 O           0.0888  -26.8893  -47.9375 O.2       12 UNK        -0.5000 
     74 N           0.1736  -24.6461  -47.6375 N.am      13 UNK        -0.5000 
     75 CA         -0.7852  -24.2432  -48.6587 C.3       13 UNK         0.1400 
     76 CB         -0.3231  -22.8856  -49.2112 C.3       13 UNK        -0.1800 
     77 C          -2.2053  -24.1760  -48.0588 C.2       13 UNK         0.5000 
     78 O          -2.3602  -24.0867  -46.8383 O.2       13 UNK        -0.5000 
     79 N          -3.2256  -24.2251  -48.9258 N.am      14 UNK        -0.5000 
     80 CA         -4.6397  -24.3669  -48.5483 C.3       14 UNK         0.1400 
     81 CB         -5.4270  -24.9001  -49.7566 C.3       14 UNK        -0.1800 
     82 C          -5.3039  -23.0949  -47.9753 C.2       14 UNK         0.5000 
     83 O          -6.4216  -23.1829  -47.4668 O.2       14 UNK        -0.5000 
     84 N          -4.6175  -21.9467  -48.0671 N.am      15 UNK        -0.5000 
     85 CA         -4.9825  -20.6363  -47.5081 C.3       15 UNK         0.1400 
     86 CB         -5.0320  -20.6986  -45.9669 C.3       15 UNK        -0.1800 
     87 C          -6.2518  -19.9914  -48.1103 C.2       15 UNK         0.5000 
     88 O          -6.8608  -19.1378  -47.4643 O.2       15 UNK        -0.5000 
     89 N          -6.6214  -20.3810  -49.3387 N.am      16 UNK        -0.5000 
     90 CA         -7.7739  -19.8367  -50.0643 C.3       16 UNK         0.1400 
     91 CB         -8.0997  -20.7529  -51.2539 C.3       16 UNK        -0.1800 
     92 C          -7.5577  -18.3816  -50.5289 C.2       16 UNK         0.5000 
     93 O          -8.4460  -17.5459  -50.3610 O.2       16 UNK        -0.5000 
     94 N          -6.3704  -18.1151  -51.0813 N.am      17 UNK        -0.5000 
     95 CA         -5.8529  -16.8271  -51.5397 C.3       17 UNK         0.1400 
     96 CB         -6.6297  -16.3041  -52.7646 C.3       17 UNK        -0.1800 
     97 C          -4.3725  -17.0483  -51.8863 C.2       17 UNK         0.5000 
     98 O          -3.9405  -18.2003  -51.9520 O.2       17 UNK        -0.5000 
     99 N          -3.6176  -15.9682  -52.1211 N.am      18 UNK        -0.5000 
    100 CA        -2.1671  -15.9967  -52.3582 C.3       18 UNK         0.1400 
    101 CB        -1.6656  -14.5639  -52.5920 C.3       18 UNK        -0.1800 
    102 C         -1.7167  -16.9200  -53.5108 C.2       18 UNK         0.5000 
    103 O         -0.6668  -17.5528  -53.4036 O.2       18 UNK        -0.5000 
    104 N         -2.5310  -17.0001  -54.5716 N.am      19 UNK        -0.5000 
    105 CA        -2.3468  -17.9391  -55.6776 C.3       19 UNK         0.1400 
    106 CB        -2.7899  -17.2752  -56.9911 C.3       19 UNK        -0.1800 
    107 C         -3.1264  -19.2433  -55.4365 C.2       19 UNK         0.5000 
    108 O         -2.5564  -20.3289  -55.5614 O.2       19 UNK        -0.5000 
    109 N         -4.4174  -19.1175  -55.0909 N.am      20 UNK        -0.5000 
    110 CA        -5.3755  -20.2242  -54.9735 C.3       20 UNK         0.1400 
    111 CB        -6.7839  -19.6572  -54.7412 C.3       20 UNK        -0.1800 
    112 C         -5.0377  -21.2615  -53.8870 C.2       20 UNK         0.5000 
    113 O         -5.4790  -22.4059  -53.9906 O.2       20 UNK        -0.5000 
    114 N         -4.2601  -20.8550  -52.8744 N.am      21 UNK        -0.5000 
    115 CA        -3.7383  -21.7222  -51.8217 C.3       21 UNK         0.1400 
    116 CB        -3.0701  -20.8558  -50.7433 C.3       21 UNK        -0.1800 
    117 C         -2.7542  -22.7907  -52.3347 C.2       21 UNK         0.5000 
    118 O         -2.6480  -23.8454  -51.7065 O.2       21 UNK        -0.5000 
    119 N         -2.0581  -22.4951  -53.4392 N.am      22 UNK        -0.5000 
    120 CA        -1.0819  -23.3858  -54.0841 C.3       22 UNK         0.1400 
    121 C         -1.5471  -23.8583  -55.4879 C.2       22 UNK         0.5000 
    122 N         -2.2869  -23.0593  -56.2474 N.am      22 UNK        -0.7600 
    123 O         -1.2380  -24.9753  -55.8935 O.2       22 UNK        -0.5000 
    124 C124        0.3177  -22.7299  -54.1792 C.3       23 UNK        -0.0398 
    125 S125        1.0309  -22.3517  -52.5427 S.3       23 UNK        -0.2404 
    126 C126        0.8355  -20.5403  -52.4914 C.3       23 UNK        -0.0205 
    127 H127       -3.8378  -17.1675  -47.0913 H         1 UNK         0.0600 
    128 H128       -4.4348  -17.4551  -48.7290 H         1 UNK         0.0600 
    129 H129       -5.3584  -16.4424  -47.6157 H         1 UNK         0.0600 
    130 H130       -2.0087  -15.9063  -47.2884 H         1 UNK         0.3000 
    131 H131       -1.6710  -13.9029  -49.3984 H         1 UNK         0.0600 
    132 H132        0.6173  -13.6387  -48.2000 H         1 UNK         0.0800 
    133 H133        0.1492  -14.9476  -47.1547 H         1 UNK         0.0800 
    134 H134        0.7313  -17.2263  -47.6067 H         1 UNK         0.0800 
    135 H135       -0.6501  -17.5412  -48.6395 H         1 UNK         0.0800 
    136 H136       -0.3391  -18.7167  -50.8357 H         1 UNK         0.1150 
    137 H137        3.2986  -20.9218  -51.3679 H         1 UNK         0.1150 
    138 H138        2.9307  -18.1510  -48.1214 H         1 UNK         0.1150 
    139 H139        5.1683  -20.5765  -49.9706 H         1 UNK         0.0800 
    140 H140        5.2730  -18.9747  -49.2857 H         1 UNK         0.0800 
    141 H141        2.7517  -21.8561  -47.8158 H         1 UNK         0.0800 
    142 H142        4.0418  -22.5640  -48.7587 H         1 UNK         0.0800 
    143 H143        5.1453  -23.3769  -46.6547 H         1 UNK         0.0600 
    144 H144        2.9188  -21.9810  -45.3291 H         1 UNK         0.3000 
    145 H145        3.8594  -23.0425  -42.0857 H         1 UNK         0.0600 
    146 H146        3.9584  -20.6169  -41.5855 H         1 UNK         0.0600 
    147 H147        4.1657  -20.2438  -43.2958 H         1 UNK         0.0600 
    148 H148        5.4170  -21.1209  -42.4251 H         1 UNK         0.0600 
    149 H149        1.8810  -21.1926  -42.9222 H         1 UNK         0.3000 
    150 H150       -0.6322  -23.5643  -43.8851 H         1 UNK         0.0600 
    151 H151       -0.7822  -23.3989  -41.3959 H         1 UNK         0.0600 
    152 H152       -1.9136  -22.3046  -42.1774 H         1 UNK         0.0600 
    153 H153       -0.4218  -21.6786  -41.4782 H         1 UNK         0.0600 
    154 H154       -0.8013  -20.7691  -43.7981 H         1 UNK         0.3000 
    155 H155        0.5487  -20.0658  -47.0598 H         1 UNK         0.0600 
    156 H156       -1.8697  -20.6976  -47.2214 H         1 UNK         0.0600 
    157 H157       -1.6677  -18.9550  -47.1422 H         1 UNK         0.0600 
    158 H158       -2.1995  -19.8448  -45.7251 H         1 UNK         0.0600 
    159 H159       -0.3747  -18.4011  -44.8928 H         1 UNK         0.3000 
    160 H160        2.8058  -17.8566  -43.3920 H         1 UNK         0.0600 
    161 H161        1.0491  -15.9933  -45.0750 H         1 UNK         0.0600 
    162 H162        2.7649  -16.2872  -45.3350 H         1 UNK         0.0600 
    163 H163        2.2252  -15.5084  -43.8539 H         1 UNK         0.0600 
    164 H164        0.1402  -16.8370  -42.9530 H         1 UNK         0.3000 
    165 H165       -0.8361  -19.3525  -40.6062 H         1 UNK         0.0600 
    166 H166       -1.0996  -17.3690  -39.1427 H         1 UNK         0.0600 
    167 H167        0.6015  -17.7810  -39.2895 H         1 UNK         0.0600 
    168 H168       -0.0483  -16.4164  -40.1913 H         1 UNK         0.0600 
    169 H169       -2.1161  -16.9619  -41.4481 H         1 UNK         0.3000 
    170 H170       -3.4469  -17.9787  -44.5106 H         1 UNK         0.0600 
    171 H171       -4.9591  -19.3562  -43.0496 H         1 UNK         0.0600 
    172 H172       -5.0497  -18.0322  -41.8962 H         1 UNK         0.0600 
    173 H173       -5.7076  -17.8397  -43.5224 H         1 UNK         0.0600 
    174 H174       -4.2425  -15.8903  -42.7676 H         1 UNK         0.3000 
    175 H175       -3.5554  -13.6745  -43.9826 H         1 UNK         0.0600 
    176 H176       -2.2116  -14.1983  -41.2787 H         1 UNK         0.0600 
    177 H177       -3.0044  -12.6838  -41.7056 H         1 UNK         0.0600 
    178 H178       -3.9335  -14.1652  -41.6249 H         1 UNK         0.0600 
    179 H179       -1.7926  -12.6822  -44.7576 H         1 UNK         0.3000 
    180 H180        0.6874  -11.1816  -43.4698 H         1 UNK         0.0600 
    181 H181        2.4486  -12.9732  -43.4060 H         1 UNK         0.0600 
    182 H182        2.6908  -11.8498  -44.7304 H         1 UNK         0.0600 
    183 H183        2.0143  -13.4428  -45.0486 H         1 UNK         0.0600 
    184 H184        0.3997  -12.1350  -46.2280 H         1 UNK         0.3000 
    185 H185       -2.4109  -10.2365  -47.0098 H         1 UNK         0.0600 
    186 H186       -0.6896   -8.4495  -47.3179 H         1 UNK         0.0600 
    187 H187        0.4394   -9.6308  -47.9702 H         1 UNK         0.0600 
    188 H188       -1.0493   -9.2514  -48.8379 H         1 UNK         0.0600 
    189 H189       -0.6474  -11.7485  -48.6465 H         1 UNK         0.3000 
    190 H190        2.3212  -24.3777  -45.2216 H         1 UNK         0.3000 
    191 H191        0.9473  -26.0852  -45.2744 H         1 UNK         0.0600 
    192 H192        1.6356  -28.2556  -46.1861 H         1 UNK         0.0600 
    193 H193        3.0206  -27.4906  -45.4256 H         1 UNK         0.0600 
    194 H194        2.8741  -27.5084  -47.1831 H         1 UNK         0.0600 
    195 H195        0.5151  -23.8929  -47.0442 H         1 UNK         0.3000 
    196 H196       -0.7766  -24.9714  -49.4726 H         1 UNK         0.0600 
    197 H197       -0.5255  -22.0673  -48.5229 H         1 UNK         0.0600 
    198 H198        0.7483  -22.8840  -49.4149 H         1 UNK         0.0600 
    199 H199       -0.8128  -22.6604  -50.1545 H         1 UNK         0.0600 
    200 H200       -3.0183  -24.2627  -49.9222 H         1 UNK         0.3000 
    201 H201       -4.6971  -25.1229  -47.7622 H         1 UNK         0.0600 
    202 H202       -6.4715  -25.0781  -49.4977 H         1 UNK         0.0600 
    203 H203       -5.0168  -25.8481  -50.1051 H         1 UNK         0.0600 
    204 H204       -5.4133  -24.2047  -50.5943 H         1 UNK         0.0600 
    205 H205       -3.7049  -22.0041  -48.4919 H         1 UNK         0.3000 
    206 H206       -4.1683  -19.9635  -47.7769 H         1 UNK         0.0600 
    207 H207       -4.1472  -21.1851  -45.5564 H         1 UNK         0.0600 
    208 H208       -5.0815  -19.6971  -45.5399 H         1 UNK         0.0600 
    209 H209       -5.9053  -21.2471  -45.6130 H         1 UNK         0.0600 
    210 H210       -6.0941  -21.1096  -49.7928 H         1 UNK         0.3000 
    211 H211       -8.6344  -19.8430  -49.3917 H         1 UNK         0.0600 
    212 H212       -7.2504  -20.8578  -51.9278 H         1 UNK         0.0600 
    213 H213       -8.9350  -20.3599  -51.8351 H         1 UNK         0.0600 
    214 H214       -8.3807  -21.7503  -50.9155 H         1 UNK         0.0600 
    215 H215       -5.6837  -18.8547  -51.1612 H         1 UNK         0.3000 
    216 H216       -5.9267  -16.1112  -50.7201 H         1 UNK         0.0600 
    217 H217       -6.4934  -16.9402  -53.6377 H         1 UNK         0.0600 
    218 H218       -6.2906  -15.3049  -53.0393 H         1 UNK         0.0600 
    219 H219       -7.6988  -16.2307  -52.5678 H         1 UNK         0.0600 
    220 H220       -4.0371  -15.0543  -52.0265 H         1 UNK         0.3000 
    221 H221       -1.7035  -16.3734  -51.4440 H         1 UNK         0.0600 
    222 H222       -0.5802  -14.5445  -52.6997 H         1 UNK         0.0600 
    223 H223       -2.0949  -14.1303  -53.4960 H         1 UNK         0.0600 
    224 H224       -1.9194  -13.9128  -51.7562 H         1 UNK         0.0600 
    225 H225       -3.3663  -16.4346  -54.5747 H         1 UNK         0.3000 
    226 H226       -1.2902  -18.1969  -55.7780 H         1 UNK         0.0600 
    227 H227       -2.1902  -16.3899  -57.2034 H         1 UNK         0.0600 
    228 H228       -2.6688  -17.9579  -57.8332 H         1 UNK         0.0600 
    229 H229       -3.8366  -16.9701  -56.9632 H         1 UNK         0.0600 
    230 H230       -4.7980  -18.1903  -54.9901 H         1 UNK         0.3000 
    231 H231       -5.3768  -20.7509  -55.9301 H         1 UNK         0.0600 
    232 H232       -7.5320  -20.4502  -54.7793 H         1 UNK         0.0600 
    233 H233       -7.0515  -18.9239  -55.5021 H         1 UNK         0.0600 
    234 H234       -6.8692  -19.1828  -53.7646 H         1 UNK         0.0600 
    235 H235       -3.9807  -19.8783  -52.8305 H         1 UNK         0.3000 
    236 H236       -4.5849  -22.2386  -51.3697 H         1 UNK         0.0600 
    237 H237       -3.7775  -20.1565  -50.3012 H         1 UNK         0.0600 
    238 H238       -2.6769  -21.4614  -49.9313 H         1 UNK         0.0600 
    239 H239       -2.2406  -20.2777  -51.1511 H         1 UNK         0.0600 
    240 H240       -2.2432  -21.6208  -53.9146 H         1 UNK         0.3000 
    241 H241       -0.9692  -24.2938  -53.4883 H         1 UNK         0.0600 
    242 H242       -2.4785  -22.0993  -55.9719 H         1 UNK         0.3800 
    243 H243       -2.5872  -23.3834  -57.1527 H         1 UNK         0.3800 
    244 H244        0.2756  -21.8226  -54.7845 H         1 UNK         0.0800 
    245 H245        1.0156  -23.3988  -54.6862 H         1 UNK         0.0800 
    246 H246       -0.2232  -20.2984  -52.5950 H         1 UNK         0.0800 
    247 H247        1.3392  -20.0974  -53.3515 H         1 UNK         0.0800 
@<TRIPOS>BOND
     1    1    2 1    
     2    1  127 1    
     3    1  128 1    
     4    1  129 1    
     5    2    3 2    
     6    2    4 am   BACKBONE|DICT|INTERRES
     7    4    5 1    
     8    4  130 1    
     9    5    6 1    
    10    5   65 1    
    11    5  131 1    
    12    6    7 1    
    13    6  132 1    
    14    6  133 1    
    15    7    8 1    
    16    8    9 1    
    17    8  134 1    
    18    8  135 1    
    19    9   10 ar   
    20    9   14 ar   
    21   10   11 ar   
    22   10  136 1    
    23   11   12 ar   
    24   11  126 1    
    25   12   13 ar   
    26   12  137 1    
    27   13   14 ar   
    28   13   15 1    
    29   14  138 1    
    30   15   16 1    
    31   15  139 1    
    32   15  140 1    
    33   16   17 1    
    34   17   18 1    
    35   17  141 1    
    36   17  142 1    
    37   18   19 1    
    38   18   67 1    
    39   18  143 1    
    40   19   20 am   BACKBONE|DICT|INTERRES
    41   19  144 1    
    42   20   21 2    
    43   20   22 1    
    44   22   23 1    
    45   22   24 1    
    46   22  145 1    
    47   23  146 1    
    48   23  147 1    
    49   23  148 1    
    50   24   25 am   BACKBONE|DICT|INTERRES
    51   24  149 1    
    52   25   26 2    
    53   25   27 1    
    54   27   28 1    
    55   27   29 1    
    56   27  150 1    
    57   28  151 1    
    58   28  152 1    
    59   28  153 1    
    60   29   30 am   BACKBONE|DICT|INTERRES
    61   29  154 1    
    62   30   31 2    
    63   30   32 1    
    64   32   33 1    
    65   32   34 1    
    66   32  155 1    
    67   33  156 1    
    68   33  157 1    
    69   33  158 1    
    70   34   35 am   BACKBONE|DICT|INTERRES
    71   34  159 1    
    72   35   36 2    
    73   35   37 1    
    74   37   38 1    
    75   37   39 1    
    76   37  160 1    
    77   38  161 1    
    78   38  162 1    
    79   38  163 1    
    80   39   40 am   BACKBONE|DICT|INTERRES
    81   39  164 1    
    82   40   41 2    
    83   40   42 1    
    84   42   43 1    
    85   42   44 1    
    86   42  165 1    
    87   43  166 1    
    88   43  167 1    
    89   43  168 1    
    90   44   45 am   BACKBONE|DICT|INTERRES
    91   44  169 1    
    92   45   46 2    
    93   45   47 1    
    94   47   48 1    
    95   47   49 1    
    96   47  170 1    
    97   48  171 1    
    98   48  172 1    
    99   48  173 1    
   100   49   50 am   BACKBONE|DICT|INTERRES
   101   49  174 1    
   102   50   51 2    
   103   50   52 1    
   104   52   53 1    
   105   52   54 1    
   106   52  175 1    
   107   53  176 1    
   108   53  177 1    
   109   53  178 1    
   110   54   55 am   BACKBONE|DICT|INTERRES
   111   54  179 1    
   112   55   56 2    
   113   55   57 1    
   114   57   58 1    
   115   57   59 1    
   116   57  180 1    
   117   58  181 1    
   118   58  182 1    
   119   58  183 1    
   120   59   60 am   BACKBONE|DICT|INTERRES
   121   59  184 1    
   122   60   61 2    
   123   60   62 1    
   124   62   63 1    
   125   62   64 1    
   126   62  185 1    
   127   63  186 1    
   128   63  187 1    
   129   63  188 1    
   130   64   65 am   BACKBONE|DICT|INTERRES
   131   64  189 1    
   132   65   66 2    
   133   67   68 2    
   134   67   69 am   BACKBONE|DICT|INTERRES
   135   69   70 1    
   136   69  190 1    
   137   70   71 1    
   138   70   72 1    
   139   70  191 1    
   140   71  192 1    
   141   71  193 1    
   142   71  194 1    
   143   72   73 2    
   144   72   74 am   BACKBONE|DICT|INTERRES
   145   74   75 1    
   146   74  195 1    
   147   75   76 1    
   148   75   77 1    
   149   75  196 1    
   150   76  197 1    
   151   76  198 1    
   152   76  199 1    
   153   77   78 2    
   154   77   79 am   BACKBONE|DICT|INTERRES
   155   79   80 1    
   156   79  200 1    
   157   80   81 1    
   158   80   82 1    
   159   80  201 1    
   160   81  202 1    
   161   81  203 1    
   162   81  204 1    
   163   82   83 2    
   164   82   84 am   BACKBONE|DICT|INTERRES
   165   84   85 1    
   166   84  205 1    
   167   85   86 1    
   168   85   87 1    
   169   85  206 1    
   170   86  207 1    
   171   86  208 1    
   172   86  209 1    
   173   87   88 2    
   174   87   89 am   BACKBONE|DICT|INTERRES
   175   89   90 1    
   176   89  210 1    
   177   90   91 1    
   178   90   92 1    
   179   90  211 1    
   180   91  212 1    
   181   91  213 1    
   182   91  214 1    
   183   92   93 2    
   184   92   94 am   BACKBONE|DICT|INTERRES
   185   94   95 1    
   186   94  215 1    
   187   95   96 1    
   188   95   97 1    
   189   95  216 1    
   190   96  217 1    
   191   96  218 1    
   192   96  219 1    
   193   97   98 2    
   194   97   99 am   BACKBONE|DICT|INTERRES
   195   99  100 1    
   196   99  220 1    
   197  100  101 1    
   198  100  102 1    
   199  100  221 1    
   200  101  222 1    
   201  101  223 1    
   202  101  224 1    
   203  102  103 2    
   204  102  104 am   BACKBONE|DICT|INTERRES
   205  104  105 1    
   206  104  225 1    
   207  105  106 1    
   208  105  107 1    
   209  105  226 1    
   210  106  227 1    
   211  106  228 1    
   212  106  229 1    
   213  107  108 2    
   214  107  109 am   BACKBONE|DICT|INTERRES
   215  109  110 1    
   216  109  230 1    
   217  110  111 1    
   218  110  112 1    
   219  110  231 1    
   220  111  232 1    
   221  111  233 1    
   222  111  234 1    
   223  112  113 2    
   224  112  114 am   BACKBONE|DICT|INTERRES
   225  114  115 1    
   226  114  235 1    
   227  115  116 1    
   228  115  117 1    
   229  115  236 1    
   230  116  237 1    
   231  116  238 1    
   232  116  239 1    
   233  117  118 2    
   234  117  119 am   BACKBONE|DICT|INTERRES
   235  119  120 1    
   236  119  240 1    
   237  120  121 1    
   238  120  124 1    
   239  120  241 1    
   240  121  122 am   BACKBONE|DICT|INTERRES
   241  121  123 2    
   242  122  242 1    
   243  122  243 1    
   244  124  125 1    
   245  124  244 1    
   246  124  245 1    
   247  125  126 1    
   248  126  246 1    
   249  126  247 1    
@<TRIPOS>SUBSTRUCTURE
     1 UNK         1 GROUP             0       ****    0 ROOT    
