@<TRIPOS>MOLECULE
3R540
247   249    1
SMALL
USER_CHARGES


@<TRIPOS>ATOM
      1 CA          0.0414  -14.8389  -52.6680 C.3       0 UNK        -0.1800 
      2 C          -0.0688  -14.1440  -51.3181 C.2       0 UNK         0.5000 
      3 O          -0.6077  -13.0395  -51.2405 O.2       0 UNK        -0.5000 
      4 N           0.4575  -14.7734  -50.2618 N.am      1 UNK        -0.5000 
      5 CA          0.3997  -14.2862  -48.8816 C.3       1 UNK         0.1400 
      6 C6          1.5445  -14.8712  -48.0133 C.3       23 UNK        -0.0398 
      7 S7          1.6793  -16.6934  -48.0558 S.3       23 UNK        -0.2404 
      8 C8          3.0027  -16.9738  -49.2811 C.3       23 UNK        -0.0205 
      9 C9          2.5918  -17.9785  -50.3517 C.ar      23 UNK        -0.0193 
     10 C10         2.6231  -17.6316  -51.7062 C.ar      23 UNK        -0.1150 
     11 C11         2.2760  -18.5577  -52.6971 C.ar      23 UNK        -0.0193 
     12 C12         1.8871  -19.8477  -52.3078 C.ar      23 UNK        -0.1150 
     13 C13         1.8454  -20.2113  -50.9590 C.ar      23 UNK        -0.0193 
     14 C14         2.2065  -19.2708  -49.9892 C.ar      23 UNK        -0.1150 
     15 C15         1.3622  -21.6042  -50.5670 C.3       23 UNK        -0.0205 
     16 S16         2.3344  -22.3613  -49.2223 S.3       23 UNK        -0.2404 
     17 C17         1.2908  -23.8034  -48.7993 C.3       23 UNK        -0.0398 
     18 CA          0.5265  -23.6799  -47.4472 C.3       11 UNK         0.1400 
     19 N           1.3701  -23.3090  -46.3032 N.am      11 UNK        -0.5000 
     20 C           2.3504  -24.0971  -45.8310 C.2       10 UNK         0.5000 
     21 O           2.5710  -25.2297  -46.2631 O.2       10 UNK        -0.5000 
     22 CA          3.2629  -23.5585  -44.7095 C.3       10 UNK         0.1400 
     23 CB          4.5401  -22.9551  -45.3140 C.3       10 UNK        -0.1800 
     24 N           2.6334  -22.5575  -43.8555 N.am      10 UNK        -0.5000 
     25 C           1.6820  -22.8039  -42.9443 C.2       9 UNK         0.5000 
     26 O           1.2782  -23.9340  -42.6691 O.2       9 UNK        -0.5000 
     27 CA          1.0586  -21.5806  -42.2338 C.3       9 UNK         0.1400 
     28 CB          1.6399  -21.4195  -40.8214 C.3       9 UNK        -0.1800 
     29 N           1.2194  -20.3126  -42.9526 N.am      9 UNK        -0.5000 
     30 C           0.8262  -20.0773  -44.2101 C.2       8 UNK         0.5000 
     31 O           0.2491  -20.9115  -44.9055 O.2       8 UNK        -0.5000 
     32 CA          1.1630  -18.7103  -44.8162 C.3       8 UNK         0.1400 
     33 CB         -0.0566  -17.7873  -44.7487 C.3       8 UNK        -0.1800 
     34 N           2.3078  -18.0548  -44.1882 N.am      8 UNK        -0.5000 
     35 C           3.5845  -18.4266  -44.3525 C.2       7 UNK         0.5000 
     36 O           3.9326  -19.4006  -45.0201 O.2       7 UNK        -0.5000 
     37 CA          4.6452  -17.5661  -43.6416 C.3       7 UNK         0.1400 
     38 CB          5.0620  -16.3889  -44.5369 C.3       7 UNK        -0.1800 
     39 N           4.1692  -17.0487  -42.3567 N.am      7 UNK        -0.5000 
     40 C           4.0636  -17.7862  -41.2424 C.2       6 UNK         0.5000 
     41 O           4.4264  -18.9597  -41.1615 O.2       6 UNK        -0.5000 
     42 CA          3.4073  -17.1073  -40.0235 C.3       6 UNK         0.1400 
     43 CB          4.4519  -16.3264  -39.2118 C.3       6 UNK        -0.1800 
     44 N           2.2940  -16.2148  -40.3696 N.am      6 UNK        -0.5000 
     45 C           1.1719  -16.6070  -40.9872 C.2       5 UNK         0.5000 
     46 O           0.9847  -17.7608  -41.3817 O.2       5 UNK        -0.5000 
     47 CA          0.1081  -15.5210  -41.2479 C.3       5 UNK         0.1400 
     48 CB          0.5124  -14.6481  -42.4470 C.3       5 UNK        -0.1800 
     49 N          -1.2010  -16.1175  -41.5185 N.am      5 UNK        -0.5000 
     50 C          -1.9673  -16.7150  -40.5955 C.2       4 UNK         0.5000 
     51 O          -1.7292  -16.6603  -39.3875 O.2       4 UNK        -0.5000 
     52 CA         -3.1650  -17.5586  -41.0864 C.3       4 UNK         0.1400 
     53 CB         -4.4524  -17.2750  -40.2842 C.3       4 UNK        -0.1800 
     54 N          -3.4092  -17.5115  -42.5354 N.am      4 UNK        -0.5000 
     55 C          -3.8917  -16.4906  -43.2572 C.2       3 UNK         0.5000 
     56 O          -4.2128  -15.3957  -42.7908 O.2       3 UNK        -0.5000 
     57 CA         -4.0623  -16.7678  -44.7643 C.3       3 UNK         0.1400 
     58 CB         -5.4628  -17.3324  -45.0494 C.3       3 UNK        -0.1800 
     59 N          -3.8485  -15.5856  -45.5997 N.am      3 UNK        -0.5000 
     60 C          -2.7083  -14.8866  -45.6644 C.2       2 UNK         0.5000 
     61 O          -1.7092  -15.1310  -44.9868 O.2       2 UNK        -0.5000 
     62 CA         -2.6852  -13.7010  -46.6449 C.3       2 UNK         0.1400 
     63 CB         -2.9151  -12.3798  -45.8957 C.3       2 UNK        -0.1800 
     64 N          -1.4174  -13.6247  -47.3726 N.am      2 UNK        -0.5000 
     65 C          -0.9957  -14.5314  -48.2651 C.2       1 UNK         0.5000 
     66 O          -1.6573  -15.5168  -48.5997 O.2       1 UNK        -0.5000 
     67 C          -0.7158  -22.7811  -47.5771 C.2       11 UNK         0.5000 
     68 O          -1.8314  -23.2991  -47.6157 O.2       11 UNK        -0.5000 
     69 N          -0.5230  -21.4570  -47.6581 N.am      12 UNK        -0.5000 
     70 CA         -1.5692  -20.4665  -47.9446 C.3       12 UNK         0.1400 
     71 CB         -0.9397  -19.0871  -48.1438 C.3       12 UNK        -0.1800 
     72 C          -2.7224  -20.4013  -46.9290 C.2       12 UNK         0.5000 
     73 O          -3.8254  -20.0054  -47.3044 O.2       12 UNK        -0.5000 
     74 N          -2.4719  -20.8211  -45.6840 N.am      13 UNK        -0.5000 
     75 CA         -3.4899  -20.9933  -44.6481 C.3       13 UNK         0.1400 
     76 CB         -2.7970  -21.2641  -43.3044 C.3       13 UNK        -0.1800 
     77 C          -4.5080  -22.1057  -44.9771 C.2       13 UNK         0.5000 
     78 O          -5.6668  -21.9957  -44.5765 O.2       13 UNK        -0.5000 
     79 N          -4.0679  -23.1370  -45.7116 N.am      14 UNK        -0.5000 
     80 CA         -4.9084  -24.2277  -46.2060 C.3       14 UNK         0.1400 
     81 CB         -4.1135  -25.5420  -46.1560 C.3       14 UNK        -0.1800 
     82 C          -5.4000  -23.9489  -47.6372 C.2       14 UNK         0.5000 
     83 O          -6.5502  -24.2515  -47.9533 O.2       14 UNK        -0.5000 
     84 N          -4.5327  -23.3569  -48.4712 N.am      15 UNK        -0.5000 
     85 CA         -4.7776  -23.0447  -49.8831 C.3       15 UNK         0.1400 
     86 CB         -3.4347  -23.0341  -50.6364 C.3       15 UNK        -0.1800 
     87 C          -5.5871  -21.7503  -50.1242 C.2       15 UNK         0.5000 
     88 O          -5.6194  -21.2731  -51.2594 O.2       15 UNK        -0.5000 
     89 N          -6.2290  -21.2187  -49.0731 N.am      16 UNK        -0.5000 
     90 CA         -7.1728  -20.0959  -49.0673 C.3       16 UNK         0.1400 
     91 CB         -8.4475  -20.4604  -49.8577 C.3       16 UNK        -0.1800 
     92 C          -6.5354  -18.7740  -49.5344 C.2       16 UNK         0.5000 
     93 O          -6.9522  -18.2030  -50.5422 O.2       16 UNK        -0.5000 
     94 N          -5.5064  -18.3321  -48.7981 N.am      17 UNK        -0.5000 
     95 CA         -4.6767  -17.1489  -49.0630 C.3       17 UNK         0.1400 
     96 CB         -5.5000  -15.8469  -48.9735 C.3       17 UNK        -0.1800 
     97 C          -3.8943  -17.2960  -50.3825 C.2       17 UNK         0.5000 
     98 O          -3.8051  -16.3566  -51.1743 O.2       17 UNK        -0.5000 
     99 N          -3.3842  -18.5189  -50.5892 N.am      18 UNK        -0.5000 
    100 CA        -2.6186  -19.0005  -51.7398 C.3       18 UNK         0.1400 
    101 CB        -1.3330  -18.1750  -51.9435 C.3       18 UNK        -0.1800 
    102 C         -3.4242  -19.1028  -53.0487 C.2       18 UNK         0.5000 
    103 O         -2.8199  -19.3861  -54.0812 O.2       18 UNK        -0.5000 
    104 N         -4.7520  -18.9220  -53.0128 N.am      19 UNK        -0.5000 
    105 CA        -5.6312  -18.9716  -54.1846 C.3       19 UNK         0.1400 
    106 CB        -7.0672  -18.6270  -53.7662 C.3       19 UNK        -0.1800 
    107 C         -5.5963  -20.3205  -54.9264 C.2       19 UNK         0.5000 
    108 O         -5.5966  -20.3351  -56.1576 O.2       19 UNK        -0.5000 
    109 N         -5.5229  -21.4233  -54.1706 N.am      20 UNK        -0.5000 
    110 CA        -5.4171  -22.7784  -54.7140 C.3       20 UNK         0.1400 
    111 CB        -6.0252  -23.7664  -53.7060 C.3       20 UNK        -0.1800 
    112 C         -3.9709  -23.1822  -55.0714 C.2       20 UNK         0.5000 
    113 O         -3.7887  -24.1892  -55.7569 O.2       20 UNK        -0.5000 
    114 N         -2.9745  -22.4221  -54.5953 N.am      21 UNK        -0.5000 
    115 CA        -1.5505  -22.7143  -54.7714 C.3       21 UNK         0.1400 
    116 CB        -0.8107  -22.4390  -53.4514 C.3       21 UNK        -0.1800 
    117 C         -0.9305  -21.8955  -55.9156 C.2       21 UNK         0.5000 
    118 O         -0.2449  -22.4626  -56.7672 O.2       21 UNK        -0.5000 
    119 N         -1.1773  -20.5824  -55.9026 N.am      22 UNK        -0.5000 
    120 CA        -0.6114  -19.5787  -56.8159 C.3       22 UNK         0.1400 
    121 C         -1.6925  -18.8429  -57.6603 C.2       22 UNK         0.5000 
    122 N         -2.9761  -19.1570  -57.5361 N.am      22 UNK        -0.7600 
    123 O         -1.3592  -17.9810  -58.4692 O.2       22 UNK        -0.5000 
    124 C124        0.2834  -18.5694  -56.0442 C.3       23 UNK        -0.0398 
    125 S125        1.8141  -19.3364  -55.4111 S.3       23 UNK        -0.2404 
    126 C126        2.3656  -18.1169  -54.1623 C.3       23 UNK        -0.0205 
    127 H127        0.4788  -15.8325  -52.5767 H         1 UNK         0.0600 
    128 H128        0.6660  -14.2533  -53.3423 H         1 UNK         0.0600 
    129 H129       -0.9456  -14.9414  -53.1191 H         1 UNK         0.0600 
    130 H130        0.8308  -15.7061  -50.3654 H         1 UNK         0.3000 
    131 H131        0.5498  -13.2046  -48.9097 H         1 UNK         0.0600 
    132 H132        2.4946  -14.4349  -48.3227 H         1 UNK         0.0800 
    133 H133        1.4226  -14.5689  -46.9715 H         1 UNK         0.0800 
    134 H134        3.8849  -17.3509  -48.7622 H         1 UNK         0.0800 
    135 H135        3.3009  -16.0319  -49.7428 H         1 UNK         0.0800 
    136 H136        2.9337  -16.6372  -51.9955 H         1 UNK         0.1150 
    137 H137        1.6084  -20.5810  -53.0488 H         1 UNK         0.1150 
    138 H138        2.1772  -19.5366  -48.9422 H         1 UNK         0.1150 
    139 H139        0.3136  -21.5325  -50.2793 H         1 UNK         0.0800 
    140 H140        1.4032  -22.2749  -51.4258 H         1 UNK         0.0800 
    141 H141        1.9488  -24.6719  -48.7652 H         1 UNK         0.0800 
    142 H142        0.5986  -24.0140  -49.6169 H         1 UNK         0.0800 
    143 H143        0.1299  -24.6725  -47.2212 H         1 UNK         0.0600 
    144 H144        1.1698  -22.4215  -45.8535 H         1 UNK         0.3000 
    145 H145        3.5512  -24.4058  -44.0837 H         1 UNK         0.0600 
    146 H146        5.2294  -22.6259  -44.5362 H         1 UNK         0.0600 
    147 H147        5.0671  -23.6874  -45.9269 H         1 UNK         0.0600 
    148 H148        4.3160  -22.0968  -45.9492 H         1 UNK         0.0600 
    149 H149        2.9016  -21.5964  -44.0165 H         1 UNK         0.3000 
    150 H150       -0.0118  -21.7716  -42.1432 H         1 UNK         0.0600 
    151 H151        1.4990  -22.3269  -40.2328 H         1 UNK         0.0600 
    152 H152        1.1530  -20.6045  -40.2850 H         1 UNK         0.0600 
    153 H153        2.7095  -21.2084  -40.8513 H         1 UNK         0.0600 
    154 H154        1.6142  -19.5403  -42.4288 H         1 UNK         0.3000 
    155 H155        1.4143  -18.8794  -45.8643 H         1 UNK         0.0600 
    156 H156       -0.9410  -18.2553  -45.1800 H         1 UNK         0.0600 
    157 H157        0.1314  -16.8707  -45.3065 H         1 UNK         0.0600 
    158 H158       -0.3055  -17.5208  -43.7239 H         1 UNK         0.0600 
    159 H159        2.1048  -17.2809  -43.5750 H         1 UNK         0.3000 
    160 H160        5.5239  -18.1911  -43.4677 H         1 UNK         0.0600 
    161 H161        5.8553  -15.8023  -44.0733 H         1 UNK         0.0600 
    162 H162        5.4396  -16.7442  -45.4967 H         1 UNK         0.0600 
    163 H163        4.2248  -15.7204  -44.7422 H         1 UNK         0.0600 
    164 H164        3.8642  -16.0870  -42.3311 H         1 UNK         0.3000 
    165 H165        3.0068  -17.8999  -39.3877 H         1 UNK         0.0600 
    166 H166        4.0201  -15.9258  -38.2945 H         1 UNK         0.0600 
    167 H167        5.2834  -16.9708  -38.9229 H         1 UNK         0.0600 
    168 H168        4.8649  -15.4930  -39.7814 H         1 UNK         0.0600 
    169 H169        2.3862  -15.2505  -40.0840 H         1 UNK         0.3000 
    170 H170        0.0295  -14.8883  -40.3614 H         1 UNK         0.0600 
    171 H171        1.4531  -14.1296  -42.2591 H         1 UNK         0.0600 
    172 H172        0.6388  -15.2371  -43.3556 H         1 UNK         0.0600 
    173 H173       -0.2408  -13.8864  -42.6503 H         1 UNK         0.0600 
    174 H174       -1.4671  -16.1943  -42.4893 H         1 UNK         0.3000 
    175 H175       -2.8857  -18.5929  -40.8798 H         1 UNK         0.0600 
    176 H176       -5.2801  -17.8919  -40.6339 H         1 UNK         0.0600 
    177 H177       -4.3096  -17.4968  -39.2261 H         1 UNK         0.0600 
    178 H178       -4.7563  -16.2306  -40.3558 H         1 UNK         0.0600 
    179 H179       -3.1713  -18.3614  -43.0237 H         1 UNK         0.3000 
    180 H180       -3.3237  -17.5137  -45.0655 H         1 UNK         0.0600 
    181 H181       -6.2417  -16.5993  -44.8361 H         1 UNK         0.0600 
    182 H182       -5.6677  -18.2119  -44.4379 H         1 UNK         0.0600 
    183 H183       -5.5629  -17.6357  -46.0904 H         1 UNK         0.0600 
    184 H184       -4.6396  -15.2779  -46.1440 H         1 UNK         0.3000 
    185 H185       -3.4860  -13.8276  -47.3758 H         1 UNK         0.0600 
    186 H186       -3.8649  -12.3958  -45.3594 H         1 UNK         0.0600 
    187 H187       -2.1291  -12.1912  -45.1631 H         1 UNK         0.0600 
    188 H188       -2.9449  -11.5345  -46.5835 H         1 UNK         0.0600 
    189 H189       -0.8106  -12.8575  -47.1247 H         1 UNK         0.3000 
    190 H190        0.4213  -21.1067  -47.5934 H         1 UNK         0.3000 
    191 H191       -2.0225  -20.7433  -48.8941 H         1 UNK         0.0600 
    192 H192       -0.3042  -18.8112  -47.3097 H         1 UNK         0.0600 
    193 H193       -1.6925  -18.3060  -48.2520 H         1 UNK         0.0600 
    194 H194       -0.3280  -19.0688  -49.0416 H         1 UNK         0.0600 
    195 H195       -1.5170  -21.0798  -45.4463 H         1 UNK         0.3000 
    196 H196       -4.0456  -20.0582  -44.5644 H         1 UNK         0.0600 
    197 H197       -3.5267  -21.3641  -42.4998 H         1 UNK         0.0600 
    198 H198       -2.1228  -20.4515  -43.0341 H         1 UNK         0.0600 
    199 H199       -2.2132  -22.1850  -43.3360 H         1 UNK         0.0600 
    200 H200       -3.1108  -23.1260  -46.0445 H         1 UNK         0.3000 
    201 H201       -5.7854  -24.3430  -45.5655 H         1 UNK         0.0600 
    202 H202       -3.7942  -25.7691  -45.1388 H         1 UNK         0.0600 
    203 H203       -3.2234  -25.5036  -46.7850 H         1 UNK         0.0600 
    204 H204       -4.7224  -26.3789  -46.5002 H         1 UNK         0.0600 
    205 H205       -3.5861  -23.1961  -48.1365 H         1 UNK         0.3000 
    206 H206       -5.3763  -23.8542  -50.3051 H         1 UNK         0.0600 
    207 H207       -2.9120  -23.9835  -50.5190 H         1 UNK         0.0600 
    208 H208       -3.5754  -22.8771  -51.7055 H         1 UNK         0.0600 
    209 H209       -2.7742  -22.2480  -50.2814 H         1 UNK         0.0600 
    210 H210       -6.0915  -21.6736  -48.1824 H         1 UNK         0.3000 
    211 H211       -7.4667  -19.9451  -48.0274 H         1 UNK         0.0600 
    212 H212       -8.2400  -20.6202  -50.9163 H         1 UNK         0.0600 
    213 H213       -9.1901  -19.6648  -49.7879 H         1 UNK         0.0600 
    214 H214       -8.9064  -21.3684  -49.4666 H         1 UNK         0.0600 
    215 H215       -5.1648  -18.9346  -48.0521 H         1 UNK         0.3000 
    216 H216       -3.9293  -17.1165  -48.2688 H         1 UNK         0.0600 
    217 H217       -4.8508  -14.9743  -49.0496 H         1 UNK         0.0600 
    218 H218       -6.0317  -15.7793  -48.0248 H         1 UNK         0.0600 
    219 H219       -6.2344  -15.7727  -49.7758 H         1 UNK         0.0600 
    220 H220       -3.5947  -19.2130  -49.8872 H         1 UNK         0.3000 
    221 H221       -2.3185  -20.0188  -51.4913 H         1 UNK         0.0600 
    222 H222       -1.5601  -17.1758  -52.3114 H         1 UNK         0.0600 
    223 H223       -0.7634  -18.0678  -51.0223 H         1 UNK         0.0600 
    224 H224       -0.6793  -18.6458  -52.6774 H         1 UNK         0.0600 
    225 H225       -5.1971  -18.7376  -52.1233 H         1 UNK         0.3000 
    226 H226       -5.2870  -18.2053  -54.8821 H         1 UNK         0.0600 
    227 H227       -7.7379  -18.6293  -54.6262 H         1 UNK         0.0600 
    228 H228       -7.4559  -19.3449  -53.0428 H         1 UNK         0.0600 
    229 H229       -7.1192  -17.6357  -53.3155 H         1 UNK         0.0600 
    230 H230       -5.5390  -21.3270  -53.1570 H         1 UNK         0.3000 
    231 H231       -6.0061  -22.8402  -55.6316 H         1 UNK         0.0600 
    232 H232       -7.0550  -23.5015  -53.4656 H         1 UNK         0.0600 
    233 H233       -5.4610  -23.7930  -52.7754 H         1 UNK         0.0600 
    234 H234       -6.0363  -24.7795  -54.1099 H         1 UNK         0.0600 
    235 H235       -3.2109  -21.5678  -54.1106 H         1 UNK         0.3000 
    236 H236       -1.4118  -23.7715  -55.0078 H         1 UNK         0.0600 
    237 H237        0.2541  -22.6488  -53.5582 H         1 UNK         0.0600 
    238 H238       -0.9103  -21.4004  -53.1348 H         1 UNK         0.0600 
    239 H239       -1.1856  -23.0734  -52.6486 H         1 UNK         0.0600 
    240 H240       -1.7761  -20.1955  -55.1738 H         1 UNK         0.3000 
    241 H241        0.0164  -20.0782  -57.5557 H         1 UNK         0.0600 
    242 H242       -3.2816  -19.8607  -56.8821 H         1 UNK         0.3800 
    243 H243       -3.6588  -18.6770  -58.1004 H         1 UNK         0.3800 
    244 H244        0.5854  -17.7402  -56.6864 H         1 UNK         0.0800 
    245 H245       -0.2742  -18.1303  -55.2148 H         1 UNK         0.0800 
    246 H246        3.4076  -17.8760  -54.3769 H         1 UNK         0.0800 
    247 H247        1.8096  -17.1874  -54.2909 H         1 UNK         0.0800 
@<TRIPOS>BOND
     1    1    2 1    
     2    1  127 1    
     3    1  128 1    
     4    1  129 1    
     5    2    3 2    
     6    2    4 am   BACKBONE|DICT|INTERRES
     7    4    5 1    
     8    4  130 1    
     9    5    6 1    
    10    5   65 1    
    11    5  131 1    
    12    6    7 1    
    13    6  132 1    
    14    6  133 1    
    15    7    8 1    
    16    8    9 1    
    17    8  134 1    
    18    8  135 1    
    19    9   10 ar   
    20    9   14 ar   
    21   10   11 ar   
    22   10  136 1    
    23   11   12 ar   
    24   11  126 1    
    25   12   13 ar   
    26   12  137 1    
    27   13   14 ar   
    28   13   15 1    
    29   14  138 1    
    30   15   16 1    
    31   15  139 1    
    32   15  140 1    
    33   16   17 1    
    34   17   18 1    
    35   17  141 1    
    36   17  142 1    
    37   18   19 1    
    38   18   67 1    
    39   18  143 1    
    40   19   20 am   BACKBONE|DICT|INTERRES
    41   19  144 1    
    42   20   21 2    
    43   20   22 1    
    44   22   23 1    
    45   22   24 1    
    46   22  145 1    
    47   23  146 1    
    48   23  147 1    
    49   23  148 1    
    50   24   25 am   BACKBONE|DICT|INTERRES
    51   24  149 1    
    52   25   26 2    
    53   25   27 1    
    54   27   28 1    
    55   27   29 1    
    56   27  150 1    
    57   28  151 1    
    58   28  152 1    
    59   28  153 1    
    60   29   30 am   BACKBONE|DICT|INTERRES
    61   29  154 1    
    62   30   31 2    
    63   30   32 1    
    64   32   33 1    
    65   32   34 1    
    66   32  155 1    
    67   33  156 1    
    68   33  157 1    
    69   33  158 1    
    70   34   35 am   BACKBONE|DICT|INTERRES
    71   34  159 1    
    72   35   36 2    
    73   35   37 1    
    74   37   38 1    
    75   37   39 1    
    76   37  160 1    
    77   38  161 1    
    78   38  162 1    
    79   38  163 1    
    80   39   40 am   BACKBONE|DICT|INTERRES
    81   39  164 1    
    82   40   41 2    
    83   40   42 1    
    84   42   43 1    
    85   42   44 1    
    86   42  165 1    
    87   43  166 1    
    88   43  167 1    
    89   43  168 1    
    90   44   45 am   BACKBONE|DICT|INTERRES
    91   44  169 1    
    92   45   46 2    
    93   45   47 1    
    94   47   48 1    
    95   47   49 1    
    96   47  170 1    
    97   48  171 1    
    98   48  172 1    
    99   48  173 1    
   100   49   50 am   BACKBONE|DICT|INTERRES
   101   49  174 1    
   102   50   51 2    
   103   50   52 1    
   104   52   53 1    
   105   52   54 1    
   106   52  175 1    
   107   53  176 1    
   108   53  177 1    
   109   53  178 1    
   110   54   55 am   BACKBONE|DICT|INTERRES
   111   54  179 1    
   112   55   56 2    
   113   55   57 1    
   114   57   58 1    
   115   57   59 1    
   116   57  180 1    
   117   58  181 1    
   118   58  182 1    
   119   58  183 1    
   120   59   60 am   BACKBONE|DICT|INTERRES
   121   59  184 1    
   122   60   61 2    
   123   60   62 1    
   124   62   63 1    
   125   62   64 1    
   126   62  185 1    
   127   63  186 1    
   128   63  187 1    
   129   63  188 1    
   130   64   65 am   BACKBONE|DICT|INTERRES
   131   64  189 1    
   132   65   66 2    
   133   67   68 2    
   134   67   69 am   BACKBONE|DICT|INTERRES
   135   69   70 1    
   136   69  190 1    
   137   70   71 1    
   138   70   72 1    
   139   70  191 1    
   140   71  192 1    
   141   71  193 1    
   142   71  194 1    
   143   72   73 2    
   144   72   74 am   BACKBONE|DICT|INTERRES
   145   74   75 1    
   146   74  195 1    
   147   75   76 1    
   148   75   77 1    
   149   75  196 1    
   150   76  197 1    
   151   76  198 1    
   152   76  199 1    
   153   77   78 2    
   154   77   79 am   BACKBONE|DICT|INTERRES
   155   79   80 1    
   156   79  200 1    
   157   80   81 1    
   158   80   82 1    
   159   80  201 1    
   160   81  202 1    
   161   81  203 1    
   162   81  204 1    
   163   82   83 2    
   164   82   84 am   BACKBONE|DICT|INTERRES
   165   84   85 1    
   166   84  205 1    
   167   85   86 1    
   168   85   87 1    
   169   85  206 1    
   170   86  207 1    
   171   86  208 1    
   172   86  209 1    
   173   87   88 2    
   174   87   89 am   BACKBONE|DICT|INTERRES
   175   89   90 1    
   176   89  210 1    
   177   90   91 1    
   178   90   92 1    
   179   90  211 1    
   180   91  212 1    
   181   91  213 1    
   182   91  214 1    
   183   92   93 2    
   184   92   94 am   BACKBONE|DICT|INTERRES
   185   94   95 1    
   186   94  215 1    
   187   95   96 1    
   188   95   97 1    
   189   95  216 1    
   190   96  217 1    
   191   96  218 1    
   192   96  219 1    
   193   97   98 2    
   194   97   99 am   BACKBONE|DICT|INTERRES
   195   99  100 1    
   196   99  220 1    
   197  100  101 1    
   198  100  102 1    
   199  100  221 1    
   200  101  222 1    
   201  101  223 1    
   202  101  224 1    
   203  102  103 2    
   204  102  104 am   BACKBONE|DICT|INTERRES
   205  104  105 1    
   206  104  225 1    
   207  105  106 1    
   208  105  107 1    
   209  105  226 1    
   210  106  227 1    
   211  106  228 1    
   212  106  229 1    
   213  107  108 2    
   214  107  109 am   BACKBONE|DICT|INTERRES
   215  109  110 1    
   216  109  230 1    
   217  110  111 1    
   218  110  112 1    
   219  110  231 1    
   220  111  232 1    
   221  111  233 1    
   222  111  234 1    
   223  112  113 2    
   224  112  114 am   BACKBONE|DICT|INTERRES
   225  114  115 1    
   226  114  235 1    
   227  115  116 1    
   228  115  117 1    
   229  115  236 1    
   230  116  237 1    
   231  116  238 1    
   232  116  239 1    
   233  117  118 2    
   234  117  119 am   BACKBONE|DICT|INTERRES
   235  119  120 1    
   236  119  240 1    
   237  120  121 1    
   238  120  124 1    
   239  120  241 1    
   240  121  122 am   BACKBONE|DICT|INTERRES
   241  121  123 2    
   242  122  242 1    
   243  122  243 1    
   244  124  125 1    
   245  124  244 1    
   246  124  245 1    
   247  125  126 1    
   248  126  246 1    
   249  126  247 1    
@<TRIPOS>SUBSTRUCTURE
     1 UNK         1 GROUP             0       ****    0 ROOT    
