@<TRIPOS>MOLECULE
3R540
247   249    1
SMALL
USER_CHARGES


@<TRIPOS>ATOM
      1 CA         -5.0291  -16.3924  -47.0926 C.3       0 UNK        -0.1800 
      2 C          -3.8289  -15.8145  -46.3582 C.2       0 UNK         0.5000 
      3 O          -3.5496  -14.6197  -46.4813 O.2       0 UNK        -0.5000 
      4 N          -3.1286  -16.6485  -45.5778 N.am      1 UNK        -0.5000 
      5 CA         -1.8829  -16.3405  -44.8585 C.3       1 UNK         0.1400 
      6 C6         -1.0714  -17.6178  -44.5269 C.3       23 UNK        -0.0398 
      7 S7         -0.6410  -18.5682  -46.0203 S.3       23 UNK        -0.2404 
      8 C8          0.9082  -17.7463  -46.4914 C.3       23 UNK        -0.0205 
      9 C9          1.4067  -18.2465  -47.8330 C.ar      23 UNK        -0.0193 
     10 C10         1.0800  -17.5762  -49.0138 C.ar      23 UNK        -0.1150 
     11 C11         1.5205  -18.0616  -50.2485 C.ar      23 UNK        -0.0193 
     12 C12         2.2631  -19.2463  -50.2952 C.ar      23 UNK        -0.1150 
     13 C13         2.5722  -19.9424  -49.1220 C.ar      23 UNK        -0.0193 
     14 C14         2.1792  -19.4045  -47.8929 C.ar      23 UNK        -0.1150 
     15 C15         3.3109  -21.2781  -49.2063 C.3       23 UNK        -0.0205 
     16 S16         2.8050  -22.5220  -47.9586 S.3       23 UNK        -0.2404 
     17 C17         0.9807  -22.4574  -48.0601 C.3       23 UNK        -0.0398 
     18 CA          0.2632  -23.5404  -47.2240 C.3       11 UNK         0.1400 
     19 N           0.7366  -23.5941  -45.8369 N.am      11 UNK        -0.5000 
     20 C           0.4609  -24.5914  -44.9848 C.2       10 UNK         0.5000 
     21 O          -0.2122  -25.5751  -45.2879 O.2       10 UNK        -0.5000 
     22 CA          0.9693  -24.4400  -43.5374 C.3       10 UNK         0.1400 
     23 CB          2.3873  -25.0142  -43.4041 C.3       10 UNK        -0.1800 
     24 N           0.9664  -23.0567  -43.0569 N.am      10 UNK        -0.5000 
     25 C          -0.0974  -22.2418  -43.0290 C.2       9 UNK         0.5000 
     26 O          -1.2271  -22.6001  -43.3638 O.2       9 UNK        -0.5000 
     27 CA          0.1289  -20.7792  -42.5931 C.3       9 UNK         0.1400 
     28 CB         -0.6647  -20.4597  -41.3170 C.3       9 UNK        -0.1800 
     29 N           1.5324  -20.4017  -42.3892 N.am      9 UNK        -0.5000 
     30 C           2.4533  -20.2948  -43.3559 C.2       8 UNK         0.5000 
     31 O           2.2374  -20.5712  -44.5372 O.2       8 UNK        -0.5000 
     32 CA          3.8664  -19.8826  -42.9010 C.3       8 UNK         0.1400 
     33 CB          4.6595  -21.1216  -42.4555 C.3       8 UNK        -0.1800 
     34 N           4.6172  -19.2011  -43.9553 N.am      8 UNK        -0.5000 
     35 C           4.3345  -17.9835  -44.4333 C.2       7 UNK         0.5000 
     36 O           3.4347  -17.2667  -43.9846 O.2       7 UNK        -0.5000 
     37 CA          5.2050  -17.4737  -45.5966 C.3       7 UNK         0.1400 
     38 CB          5.6235  -18.5838  -46.5855 C.3       7 UNK        -0.1800 
     39 N           4.4774  -16.4176  -46.2922 N.am      7 UNK        -0.5000 
     40 C           5.0117  -15.4541  -47.0490 C.2       6 UNK         0.5000 
     41 O           6.2170  -15.3591  -47.2849 O.2       6 UNK        -0.5000 
     42 CA          4.0407  -14.4161  -47.6466 C.3       6 UNK         0.1400 
     43 CB          3.7340  -14.7548  -49.1138 C.3       6 UNK        -0.1800 
     44 N           2.7749  -14.3036  -46.9179 N.am      6 UNK        -0.5000 
     45 C           2.6146  -13.7312  -45.7185 C.2       5 UNK         0.5000 
     46 O           3.5403  -13.2293  -45.0790 O.2       5 UNK        -0.5000 
     47 CA          1.1711  -13.6988  -45.1638 C.3       5 UNK         0.1400 
     48 CB          1.0913  -13.1021  -43.7478 C.3       5 UNK        -0.1800 
     49 N           0.2440  -12.9652  -46.0323 N.am      5 UNK        -0.5000 
     50 C          -0.2234  -13.3804  -47.2174 C.2       4 UNK         0.5000 
     51 O           0.0587  -14.4747  -47.7053 O.2       4 UNK        -0.5000 
     52 CA         -1.1711  -12.4198  -47.9528 C.3       4 UNK         0.1400 
     53 CB         -1.7118  -13.0083  -49.2690 C.3       4 UNK        -0.1800 
     54 N          -2.2951  -12.1074  -47.0775 N.am      4 UNK        -0.5000 
     55 C          -2.6789  -10.8836  -46.6948 C.2       3 UNK         0.5000 
     56 O          -2.1226   -9.8444  -47.0508 O.2       3 UNK        -0.5000 
     57 CA         -3.8783  -10.8138  -45.7312 C.3       3 UNK         0.1400 
     58 CB         -5.2008  -10.8768  -46.5108 C.3       3 UNK        -0.1800 
     59 N          -3.8500  -11.8951  -44.7454 N.am      3 UNK        -0.5000 
     60 C          -3.0294  -11.9321  -43.6846 C.2       2 UNK         0.5000 
     61 O          -2.2652  -11.0185  -43.3737 O.2       2 UNK        -0.5000 
     62 CA         -3.0160  -13.2395  -42.8831 C.3       2 UNK         0.1400 
     63 CB         -4.3166  -13.4450  -42.0889 C.3       2 UNK        -0.1800 
     64 N          -2.8120  -14.3371  -43.8188 N.am      2 UNK        -0.5000 
     65 C          -2.0996  -15.4444  -43.6152 C.2       1 UNK         0.5000 
     66 O          -1.6151  -15.7509  -42.5250 O.2       1 UNK        -0.5000 
     67 C          -1.2624  -23.3160  -47.3016 C.2       11 UNK         0.5000 
     68 O          -1.8978  -23.8039  -48.2362 O.2       11 UNK        -0.5000 
     69 N          -1.8294  -22.5756  -46.3375 N.am      12 UNK        -0.5000 
     70 CA         -3.2695  -22.3384  -46.2290 C.3       12 UNK         0.1400 
     71 CB         -3.5421  -21.0628  -45.4179 C.3       12 UNK        -0.1800 
     72 C          -3.9867  -23.5529  -45.6217 C.2       12 UNK         0.5000 
     73 O          -5.0718  -23.9014  -46.0841 O.2       12 UNK        -0.5000 
     74 N          -3.3429  -24.2186  -44.6511 N.am      13 UNK        -0.5000 
     75 CA         -3.7926  -25.4884  -44.0714 C.3       13 UNK         0.1400 
     76 CB         -2.9019  -25.8493  -42.8735 C.3       13 UNK        -0.1800 
     77 C          -3.8199  -26.6348  -45.1038 C.2       13 UNK         0.5000 
     78 O          -4.7352  -27.4577  -45.0787 O.2       13 UNK        -0.5000 
     79 N          -2.8472  -26.6309  -46.0262 N.am      14 UNK        -0.5000 
     80 CA         -2.7747  -27.5136  -47.1937 C.3       14 UNK         0.1400 
     81 CB         -1.3304  -27.5105  -47.7206 C.3       14 UNK        -0.1800 
     82 C          -3.7575  -27.1339  -48.3241 C.2       14 UNK         0.5000 
     83 O          -3.8617  -27.8801  -49.2982 O.2       14 UNK        -0.5000 
     84 N          -4.4415  -25.9870  -48.1890 N.am      15 UNK        -0.5000 
     85 CA         -5.4046  -25.3942  -49.1226 C.3       15 UNK         0.1400 
     86 CB         -6.6345  -26.3063  -49.3119 C.3       15 UNK        -0.1800 
     87 C          -4.7831  -24.9343  -50.4583 C.2       15 UNK         0.5000 
     88 O          -5.5018  -24.7978  -51.4490 O.2       15 UNK        -0.5000 
     89 N          -3.4714  -24.6623  -50.4607 N.am      16 UNK        -0.5000 
     90 CA         -2.7501  -24.0847  -51.5918 C.3       16 UNK         0.1400 
     91 CB         -1.2693  -24.4949  -51.5318 C.3       16 UNK        -0.1800 
     92 C          -2.9174  -22.5587  -51.5850 C.2       16 UNK         0.5000 
     93 O          -3.4391  -21.9966  -52.5465 O.2       16 UNK        -0.5000 
     94 N          -2.5522  -21.9237  -50.4607 N.am      17 UNK        -0.5000 
     95 CA         -2.6606  -20.4746  -50.2379 C.3       17 UNK         0.1400 
     96 CB         -1.6997  -20.0497  -49.1198 C.3       17 UNK        -0.1800 
     97 C          -4.1003  -19.9855  -49.9745 C.2       17 UNK         0.5000 
     98 O          -4.3130  -18.7884  -49.7819 O.2       17 UNK        -0.5000 
     99 N          -5.0709  -20.9098  -49.9997 N.am      18 UNK        -0.5000 
    100 CA        -6.4994  -20.6090  -50.0833 C.3       18 UNK         0.1400 
    101 CB        -7.2995  -21.8875  -49.7919 C.3       18 UNK        -0.1800 
    102 C         -6.8877  -20.0166  -51.4560 C.2       18 UNK         0.5000 
    103 O         -7.8479  -19.2484  -51.5291 O.2       18 UNK        -0.5000 
    104 N         -6.1268  -20.3572  -52.5078 N.am      19 UNK        -0.5000 
    105 CA        -6.1872  -19.7122  -53.8162 C.3       19 UNK         0.1400 
    106 CB        -5.8100  -20.7359  -54.8999 C.3       19 UNK        -0.1800 
    107 C         -5.2046  -18.5303  -53.8349 C.2       19 UNK         0.5000 
    108 O         -4.1098  -18.6409  -53.2778 O.2       19 UNK        -0.5000 
    109 N         -5.5858  -17.4375  -54.5094 N.am      20 UNK        -0.5000 
    110 CA        -4.8105  -16.1921  -54.5903 C.3       20 UNK         0.1400 
    111 CB        -5.6651  -15.1166  -55.2801 C.3       20 UNK        -0.1800 
    112 C         -3.4465  -16.3336  -55.2988 C.2       20 UNK         0.5000 
    113 O         -2.5315  -15.5599  -55.0141 O.2       20 UNK        -0.5000 
    114 N         -3.3328  -17.3208  -56.1977 N.am      21 UNK        -0.5000 
    115 CA        -2.0930  -17.6816  -56.8893 C.3       21 UNK         0.1400 
    116 CB        -2.4572  -18.4214  -58.1874 C.3       21 UNK        -0.1800 
    117 C         -1.1440  -18.5423  -56.0278 C.2       21 UNK         0.5000 
    118 O          0.0221  -18.6954  -56.3942 O.2       21 UNK        -0.5000 
    119 N         -1.6575  -19.1045  -54.9244 N.am      22 UNK        -0.5000 
    120 CA        -0.9639  -20.0062  -53.9882 C.3       22 UNK         0.1400 
    121 C         -0.5472  -21.3860  -54.5856 C.2       22 UNK         0.5000 
    122 N         -1.1238  -21.8262  -55.6978 N.am      22 UNK        -0.7600 
    123 O          0.2916  -22.0856  -54.0238 O.2       22 UNK        -0.5000 
    124 C124        0.1836  -19.3219  -53.1945 C.3       23 UNK        -0.0398 
    125 S125       -0.3644  -17.8401  -52.2799 S.3       23 UNK        -0.2404 
    126 C126        1.1995  -17.2960  -51.5242 C.3       23 UNK        -0.0205 
    127 H127       -4.9099  -16.2536  -48.1673 H         1 UNK         0.0600 
    128 H128       -5.9416  -15.8850  -46.7800 H         1 UNK         0.0600 
    129 H129       -5.1467  -17.4595  -46.9019 H         1 UNK         0.0600 
    130 H130       -3.4285  -17.6097  -45.5096 H         1 UNK         0.3000 
    131 H131       -1.2712  -15.7461  -45.5381 H         1 UNK         0.0600 
    132 H132       -0.1485  -17.3751  -43.9960 H         1 UNK         0.0800 
    133 H133       -1.6459  -18.2640  -43.8615 H         1 UNK         0.0800 
    134 H134        0.7609  -16.6690  -46.5266 H         1 UNK         0.0800 
    135 H135        1.6534  -17.9410  -45.7226 H         1 UNK         0.0800 
    136 H136        0.4802  -16.6783  -48.9740 H         1 UNK         0.1150 
    137 H137        2.5909  -19.6337  -51.2493 H         1 UNK         0.1150 
    138 H138        2.4249  -19.9196  -46.9763 H         1 UNK         0.1150 
    139 H139        3.1684  -21.7184  -50.1944 H         1 UNK         0.0800 
    140 H140        4.3803  -21.0919  -49.1014 H         1 UNK         0.0800 
    141 H141        0.6938  -22.5332  -49.1107 H         1 UNK         0.0800 
    142 H142        0.6514  -21.4764  -47.7197 H         1 UNK         0.0800 
    143 H143        0.4736  -24.5087  -47.6830 H         1 UNK         0.0600 
    144 H144        1.3019  -22.8170  -45.5203 H         1 UNK         0.3000 
    145 H145        0.3037  -25.0141  -42.8906 H         1 UNK         0.0600 
    146 H146        2.7258  -24.9950  -42.3679 H         1 UNK         0.0600 
    147 H147        2.4209  -26.0527  -43.7365 H         1 UNK         0.0600 
    148 H148        3.1063  -24.4538  -44.0033 H         1 UNK         0.0600 
    149 H149        1.8562  -22.6750  -42.7750 H         1 UNK         0.3000 
    150 H150       -0.2645  -20.1602  -43.3996 H         1 UNK         0.0600 
    151 H151       -0.3052  -21.0380  -40.4650 H         1 UNK         0.0600 
    152 H152       -1.7241  -20.6872  -41.4453 H         1 UNK         0.0600 
    153 H153       -0.5924  -19.4021  -41.0623 H         1 UNK         0.0600 
    154 H154        1.7987  -20.1889  -41.4383 H         1 UNK         0.3000 
    155 H155        3.7749  -19.2002  -42.0531 H         1 UNK         0.0600 
    156 H156        4.7809  -21.8363  -43.2711 H         1 UNK         0.0600 
    157 H157        4.1561  -21.6392  -41.6379 H         1 UNK         0.0600 
    158 H158        5.6529  -20.8475  -42.0992 H         1 UNK         0.0600 
    159 H159        5.3446  -19.7387  -44.4025 H         1 UNK         0.3000 
    160 H160        6.1032  -17.0404  -45.1524 H         1 UNK         0.0600 
    161 H161        4.7614  -19.1259  -46.9711 H         1 UNK         0.0600 
    162 H162        6.2863  -19.3093  -46.1133 H         1 UNK         0.0600 
    163 H163        6.1645  -18.1756  -47.4391 H         1 UNK         0.0600 
    164 H164        3.4898  -16.3791  -46.0830 H         1 UNK         0.3000 
    165 H165        4.5380  -13.4444  -47.6171 H         1 UNK         0.0600 
    166 H166        3.0749  -14.0120  -49.5636 H         1 UNK         0.0600 
    167 H167        4.6483  -14.7811  -49.7080 H         1 UNK         0.0600 
    168 H168        3.2556  -15.7297  -49.2082 H         1 UNK         0.0600 
    169 H169        1.9391  -14.6294  -47.3958 H         1 UNK         0.3000 
    170 H170        0.8383  -14.7350  -45.0957 H         1 UNK         0.0600 
    171 H171        1.7337  -13.6485  -43.0559 H         1 UNK         0.0600 
    172 H172        1.4021  -12.0568  -43.7324 H         1 UNK         0.0600 
    173 H173        0.0770  -13.1541  -43.3533 H         1 UNK         0.0600 
    174 H174       -0.0284  -12.0465  -45.7132 H         1 UNK         0.3000 
    175 H175       -0.5965  -11.5220  -48.1885 H         1 UNK         0.0600 
    176 H176       -0.8984  -13.2500  -49.9544 H         1 UNK         0.0600 
    177 H177       -2.2806  -13.9231  -49.0957 H         1 UNK         0.0600 
    178 H178       -2.3657  -12.2994  -49.7769 H         1 UNK         0.0600 
    179 H179       -2.8169  -12.9163  -46.7493 H         1 UNK         0.3000 
    180 H180       -3.8362   -9.8568  -45.2065 H         1 UNK         0.0600 
    181 H181       -5.3095  -11.8213  -47.0460 H         1 UNK         0.0600 
    182 H182       -5.2583  -10.0736  -47.2467 H         1 UNK         0.0600 
    183 H183       -6.0566  -10.7679  -45.8443 H         1 UNK         0.0600 
    184 H184       -4.4603  -12.6788  -44.9255 H         1 UNK         0.3000 
    185 H185       -2.1793  -13.1931  -42.1826 H         1 UNK         0.0600 
    186 H186       -4.4946  -12.6101  -41.4100 H         1 UNK         0.0600 
    187 H187       -5.1844  -13.5298  -42.7438 H         1 UNK         0.0600 
    188 H188       -4.2662  -14.3508  -41.4845 H         1 UNK         0.0600 
    189 H189       -3.1507  -14.1935  -44.7668 H         1 UNK         0.3000 
    190 H190       -1.2598  -22.2474  -45.5693 H         1 UNK         0.3000 
    191 H191       -3.6775  -22.1833  -47.2305 H         1 UNK         0.0600 
    192 H192       -3.1206  -20.1885  -45.9117 H         1 UNK         0.0600 
    193 H193       -4.6141  -20.8885  -45.3171 H         1 UNK         0.0600 
    194 H194       -3.1239  -21.1169  -44.4130 H         1 UNK         0.0600 
    195 H195       -2.4796  -23.8264  -44.2880 H         1 UNK         0.3000 
    196 H196       -4.8117  -25.3440  -43.7069 H         1 UNK         0.0600 
    197 H197       -3.2698  -26.7453  -42.3723 H         1 UNK         0.0600 
    198 H198       -2.8849  -25.0462  -42.1363 H         1 UNK         0.0600 
    199 H199       -1.8749  -26.0455  -43.1797 H         1 UNK         0.0600 
    200 H200       -2.0786  -25.9782  -45.9108 H         1 UNK         0.3000 
    201 H201       -3.0208  -28.5286  -46.8756 H         1 UNK         0.0600 
    202 H202       -1.2159  -28.1963  -48.5609 H         1 UNK         0.0600 
    203 H203       -0.6278  -27.8255  -46.9489 H         1 UNK         0.0600 
    204 H204       -1.0308  -26.5197  -48.0629 H         1 UNK         0.0600 
    205 H205       -4.2960  -25.4529  -47.3415 H         1 UNK         0.3000 
    206 H206       -5.7562  -24.4819  -48.6397 H         1 UNK         0.0600 
    207 H207       -7.0536  -26.6065  -48.3514 H         1 UNK         0.0600 
    208 H208       -7.4234  -25.7902  -49.8604 H         1 UNK         0.0600 
    209 H209       -6.3885  -27.2104  -49.8697 H         1 UNK         0.0600 
    210 H210       -2.9585  -24.7285  -49.5869 H         1 UNK         0.3000 
    211 H211       -3.1656  -24.4701  -52.5256 H         1 UNK         0.0600 
    212 H212       -0.7745  -24.1358  -50.6296 H         1 UNK         0.0600 
    213 H213       -0.7220  -24.0942  -52.3856 H         1 UNK         0.0600 
    214 H214       -1.1630  -25.5796  -51.5587 H         1 UNK         0.0600 
    215 H215       -2.2053  -22.4824  -49.6885 H         1 UNK         0.3000 
    216 H216       -2.3373  -19.9644  -51.1452 H         1 UNK         0.0600 
    217 H217       -1.7169  -18.9679  -48.9807 H         1 UNK         0.0600 
    218 H218       -0.6718  -20.3175  -49.3629 H         1 UNK         0.0600 
    219 H219       -1.9594  -20.5025  -48.1652 H         1 UNK         0.0600 
    220 H220       -4.7985  -21.8662  -50.1656 H         1 UNK         0.3000 
    221 H221       -6.7422  -19.8691  -49.3174 H         1 UNK         0.0600 
    222 H222       -7.1002  -22.6652  -50.5301 H         1 UNK         0.0600 
    223 H223       -7.0610  -22.2871  -48.8057 H         1 UNK         0.0600 
    224 H224       -8.3717  -21.6872  -49.8096 H         1 UNK         0.0600 
    225 H225       -5.3117  -20.9402  -52.3544 H         1 UNK         0.3000 
    226 H226       -7.1998  -19.3511  -54.0127 H         1 UNK         0.0600 
    227 H227       -5.8766  -20.2947  -55.8952 H         1 UNK         0.0600 
    228 H228       -4.7905  -21.1049  -54.7715 H         1 UNK         0.0600 
    229 H229       -6.4807  -21.5954  -54.8801 H         1 UNK         0.0600 
    230 H230       -6.4916  -17.4290  -54.9579 H         1 UNK         0.3000 
    231 H231       -4.6082  -15.8624  -53.5682 H         1 UNK         0.0600 
    232 H232       -5.9272  -15.4040  -56.2998 H         1 UNK         0.0600 
    233 H233       -5.1304  -14.1671  -55.3334 H         1 UNK         0.0600 
    234 H234       -6.5907  -14.9349  -54.7326 H         1 UNK         0.0600 
    235 H235       -4.1413  -17.8973  -56.3796 H         1 UNK         0.3000 
    236 H236       -1.5557  -16.7688  -57.1568 H         1 UNK         0.0600 
    237 H237       -3.0756  -17.7999  -58.8357 H         1 UNK         0.0600 
    238 H238       -1.5616  -18.6855  -58.7525 H         1 UNK         0.0600 
    239 H239       -3.0033  -19.3442  -57.9863 H         1 UNK         0.0600 
    240 H240       -2.6084  -18.8768  -54.6572 H         1 UNK         0.3000 
    241 H241       -1.7280  -20.2625  -53.2607 H         1 UNK         0.0600 
    242 H242       -1.8246  -21.2748  -56.1658 H         1 UNK         0.3800 
    243 H243       -0.8541  -22.7213  -56.0737 H         1 UNK         0.3800 
    244 H244        0.5952  -20.0200  -52.4647 H         1 UNK         0.0800 
    245 H245        1.0026  -19.0497  -53.8619 H         1 UNK         0.0800 
    246 H246        2.0151  -17.3933  -52.2422 H         1 UNK         0.0800 
    247 H247        1.1233  -16.2310  -51.2995 H         1 UNK         0.0800 
@<TRIPOS>BOND
     1    1    2 1    
     2    1  127 1    
     3    1  128 1    
     4    1  129 1    
     5    2    3 2    
     6    2    4 am   BACKBONE|DICT|INTERRES
     7    4    5 1    
     8    4  130 1    
     9    5    6 1    
    10    5   65 1    
    11    5  131 1    
    12    6    7 1    
    13    6  132 1    
    14    6  133 1    
    15    7    8 1    
    16    8    9 1    
    17    8  134 1    
    18    8  135 1    
    19    9   10 ar   
    20    9   14 ar   
    21   10   11 ar   
    22   10  136 1    
    23   11   12 ar   
    24   11  126 1    
    25   12   13 ar   
    26   12  137 1    
    27   13   14 ar   
    28   13   15 1    
    29   14  138 1    
    30   15   16 1    
    31   15  139 1    
    32   15  140 1    
    33   16   17 1    
    34   17   18 1    
    35   17  141 1    
    36   17  142 1    
    37   18   19 1    
    38   18   67 1    
    39   18  143 1    
    40   19   20 am   BACKBONE|DICT|INTERRES
    41   19  144 1    
    42   20   21 2    
    43   20   22 1    
    44   22   23 1    
    45   22   24 1    
    46   22  145 1    
    47   23  146 1    
    48   23  147 1    
    49   23  148 1    
    50   24   25 am   BACKBONE|DICT|INTERRES
    51   24  149 1    
    52   25   26 2    
    53   25   27 1    
    54   27   28 1    
    55   27   29 1    
    56   27  150 1    
    57   28  151 1    
    58   28  152 1    
    59   28  153 1    
    60   29   30 am   BACKBONE|DICT|INTERRES
    61   29  154 1    
    62   30   31 2    
    63   30   32 1    
    64   32   33 1    
    65   32   34 1    
    66   32  155 1    
    67   33  156 1    
    68   33  157 1    
    69   33  158 1    
    70   34   35 am   BACKBONE|DICT|INTERRES
    71   34  159 1    
    72   35   36 2    
    73   35   37 1    
    74   37   38 1    
    75   37   39 1    
    76   37  160 1    
    77   38  161 1    
    78   38  162 1    
    79   38  163 1    
    80   39   40 am   BACKBONE|DICT|INTERRES
    81   39  164 1    
    82   40   41 2    
    83   40   42 1    
    84   42   43 1    
    85   42   44 1    
    86   42  165 1    
    87   43  166 1    
    88   43  167 1    
    89   43  168 1    
    90   44   45 am   BACKBONE|DICT|INTERRES
    91   44  169 1    
    92   45   46 2    
    93   45   47 1    
    94   47   48 1    
    95   47   49 1    
    96   47  170 1    
    97   48  171 1    
    98   48  172 1    
    99   48  173 1    
   100   49   50 am   BACKBONE|DICT|INTERRES
   101   49  174 1    
   102   50   51 2    
   103   50   52 1    
   104   52   53 1    
   105   52   54 1    
   106   52  175 1    
   107   53  176 1    
   108   53  177 1    
   109   53  178 1    
   110   54   55 am   BACKBONE|DICT|INTERRES
   111   54  179 1    
   112   55   56 2    
   113   55   57 1    
   114   57   58 1    
   115   57   59 1    
   116   57  180 1    
   117   58  181 1    
   118   58  182 1    
   119   58  183 1    
   120   59   60 am   BACKBONE|DICT|INTERRES
   121   59  184 1    
   122   60   61 2    
   123   60   62 1    
   124   62   63 1    
   125   62   64 1    
   126   62  185 1    
   127   63  186 1    
   128   63  187 1    
   129   63  188 1    
   130   64   65 am   BACKBONE|DICT|INTERRES
   131   64  189 1    
   132   65   66 2    
   133   67   68 2    
   134   67   69 am   BACKBONE|DICT|INTERRES
   135   69   70 1    
   136   69  190 1    
   137   70   71 1    
   138   70   72 1    
   139   70  191 1    
   140   71  192 1    
   141   71  193 1    
   142   71  194 1    
   143   72   73 2    
   144   72   74 am   BACKBONE|DICT|INTERRES
   145   74   75 1    
   146   74  195 1    
   147   75   76 1    
   148   75   77 1    
   149   75  196 1    
   150   76  197 1    
   151   76  198 1    
   152   76  199 1    
   153   77   78 2    
   154   77   79 am   BACKBONE|DICT|INTERRES
   155   79   80 1    
   156   79  200 1    
   157   80   81 1    
   158   80   82 1    
   159   80  201 1    
   160   81  202 1    
   161   81  203 1    
   162   81  204 1    
   163   82   83 2    
   164   82   84 am   BACKBONE|DICT|INTERRES
   165   84   85 1    
   166   84  205 1    
   167   85   86 1    
   168   85   87 1    
   169   85  206 1    
   170   86  207 1    
   171   86  208 1    
   172   86  209 1    
   173   87   88 2    
   174   87   89 am   BACKBONE|DICT|INTERRES
   175   89   90 1    
   176   89  210 1    
   177   90   91 1    
   178   90   92 1    
   179   90  211 1    
   180   91  212 1    
   181   91  213 1    
   182   91  214 1    
   183   92   93 2    
   184   92   94 am   BACKBONE|DICT|INTERRES
   185   94   95 1    
   186   94  215 1    
   187   95   96 1    
   188   95   97 1    
   189   95  216 1    
   190   96  217 1    
   191   96  218 1    
   192   96  219 1    
   193   97   98 2    
   194   97   99 am   BACKBONE|DICT|INTERRES
   195   99  100 1    
   196   99  220 1    
   197  100  101 1    
   198  100  102 1    
   199  100  221 1    
   200  101  222 1    
   201  101  223 1    
   202  101  224 1    
   203  102  103 2    
   204  102  104 am   BACKBONE|DICT|INTERRES
   205  104  105 1    
   206  104  225 1    
   207  105  106 1    
   208  105  107 1    
   209  105  226 1    
   210  106  227 1    
   211  106  228 1    
   212  106  229 1    
   213  107  108 2    
   214  107  109 am   BACKBONE|DICT|INTERRES
   215  109  110 1    
   216  109  230 1    
   217  110  111 1    
   218  110  112 1    
   219  110  231 1    
   220  111  232 1    
   221  111  233 1    
   222  111  234 1    
   223  112  113 2    
   224  112  114 am   BACKBONE|DICT|INTERRES
   225  114  115 1    
   226  114  235 1    
   227  115  116 1    
   228  115  117 1    
   229  115  236 1    
   230  116  237 1    
   231  116  238 1    
   232  116  239 1    
   233  117  118 2    
   234  117  119 am   BACKBONE|DICT|INTERRES
   235  119  120 1    
   236  119  240 1    
   237  120  121 1    
   238  120  124 1    
   239  120  241 1    
   240  121  122 am   BACKBONE|DICT|INTERRES
   241  121  123 2    
   242  122  242 1    
   243  122  243 1    
   244  124  125 1    
   245  124  244 1    
   246  124  245 1    
   247  125  126 1    
   248  126  246 1    
   249  126  247 1    
@<TRIPOS>SUBSTRUCTURE
     1 UNK         1 GROUP             0       ****    0 ROOT    
