@<TRIPOS>MOLECULE
3R540
247   249    1
SMALL
USER_CHARGES


@<TRIPOS>ATOM
      1 CA         -1.5714  -16.3157  -47.7941 C.3       0 UNK        -0.1800 
      2 C          -1.9266  -14.8538  -47.5637 C.2       0 UNK         0.5000 
      3 O          -1.5523  -14.0109  -48.3765 O.2       0 UNK        -0.5000 
      4 N          -2.6041  -14.5631  -46.4423 N.am      1 UNK        -0.5000 
      5 CA         -3.1557  -13.2829  -45.9490 C.3       1 UNK         0.1400 
      6 C6         -4.5210  -12.8863  -46.5791 C.3       23 UNK        -0.0398 
      7 S7         -4.5091  -12.5033  -48.3674 S.3       23 UNK        -0.2404 
      8 C8         -5.8348  -13.5821  -49.0026 C.3       23 UNK        -0.0205 
      9 C9         -5.4274  -15.0480  -49.0169 C.ar      23 UNK        -0.0193 
     10 C10        -4.6968  -15.5646  -50.0921 C.ar      23 UNK        -0.1150 
     11 C11        -4.3094  -16.9078  -50.1050 C.ar      23 UNK        -0.0193 
     12 C12        -4.6511  -17.7316  -49.0297 C.ar      23 UNK        -0.1150 
     13 C13        -5.3901  -17.2295  -47.9573 C.ar      23 UNK        -0.0193 
     14 C14        -5.7852  -15.8907  -47.9598 C.ar      23 UNK        -0.1150 
     15 C15        -5.7479  -18.1396  -46.7980 C.3       23 UNK        -0.0205 
     16 S16        -4.3550  -18.2696  -45.6384 S.3       23 UNK        -0.2404 
     17 C17        -4.6660  -19.9213  -44.9372 C.3       23 UNK        -0.0398 
     18 CA         -4.0297  -21.0565  -45.7793 C.3       11 UNK         0.1400 
     19 N          -2.5997  -20.8623  -46.0343 N.am      11 UNK        -0.5000 
     20 C          -1.8739  -21.5545  -46.9236 C.2       10 UNK         0.5000 
     21 O          -2.3387  -22.4138  -47.6725 O.2       10 UNK        -0.5000 
     22 CA         -0.3639  -21.2666  -46.9549 C.3       10 UNK         0.1400 
     23 CB         -0.0593  -20.1021  -47.9083 C.3       10 UNK        -0.1800 
     24 N           0.1661  -20.9798  -45.6197 N.am      10 UNK        -0.5000 
     25 C           0.2793  -21.9034  -44.6507 C.2       9 UNK         0.5000 
     26 O          -0.0014  -23.0899  -44.8116 O.2       9 UNK        -0.5000 
     27 CA          0.7236  -21.4250  -43.2545 C.3       9 UNK         0.1400 
     28 CB          2.2526  -21.4815  -43.1290 C.3       9 UNK        -0.1800 
     29 N           0.2539  -20.0767  -42.9347 N.am      9 UNK        -0.5000 
     30 C          -1.0384  -19.7227  -42.8578 C.2       8 UNK         0.5000 
     31 O          -1.9629  -20.5315  -42.9462 O.2       8 UNK        -0.5000 
     32 CA         -1.3676  -18.2211  -42.7142 C.3       8 UNK         0.1400 
     33 CB         -1.7630  -17.8959  -41.2668 C.3       8 UNK        -0.1800 
     34 N          -0.2848  -17.3230  -43.1251 N.am      8 UNK        -0.5000 
     35 C           0.2763  -17.2778  -44.3423 C.2       7 UNK         0.5000 
     36 O          -0.1097  -17.9565  -45.2929 O.2       7 UNK        -0.5000 
     37 CA          1.5147  -16.3734  -44.5092 C.3       7 UNK         0.1400 
     38 CB          1.1083  -15.0182  -45.1064 C.3       7 UNK        -0.1800 
     39 N           2.2736  -16.1340  -43.2751 N.am      7 UNK        -0.5000 
     40 C           2.8097  -17.0695  -42.4754 C.2       6 UNK         0.5000 
     41 O           2.6527  -18.2802  -42.6393 O.2       6 UNK        -0.5000 
     42 CA          3.6487  -16.5385  -41.2947 C.3       6 UNK         0.1400 
     43 CB          4.4183  -17.6482  -40.5476 C.3       6 UNK        -0.1800 
     44 N           4.5435  -15.4461  -41.6991 N.am      6 UNK        -0.5000 
     45 C           5.5525  -15.5057  -42.5835 C.2       5 UNK         0.5000 
     46 O           5.9037  -16.5422  -43.1489 O.2       5 UNK        -0.5000 
     47 CA          6.2789  -14.1836  -42.9113 C.3       5 UNK         0.1400 
     48 CB          6.6097  -14.0788  -44.4106 C.3       5 UNK        -0.1800 
     49 N           5.4951  -13.0058  -42.5361 N.am      5 UNK        -0.5000 
     50 C           5.5900  -12.3152  -41.3971 C.2       4 UNK         0.5000 
     51 O           6.3485  -12.6215  -40.4774 O.2       4 UNK        -0.5000 
     52 CA          4.6690  -11.0862  -41.2481 C.3       4 UNK         0.1400 
     53 CB          5.2240   -9.8833  -42.0348 C.3       4 UNK        -0.1800 
     54 N           3.2499  -11.3198  -41.5662 N.am      4 UNK        -0.5000 
     55 C           2.6777  -11.6273  -42.7404 C.2       3 UNK         0.5000 
     56 O           3.3140  -11.8558  -43.7723 O.2       3 UNK        -0.5000 
     57 CA          1.1370  -11.7562  -42.7424 C.3       3 UNK         0.1400 
     58 CB          0.4369  -10.7041  -41.8537 C.3       3 UNK        -0.1800 
     59 N           0.5695  -11.7501  -44.0956 N.am      3 UNK        -0.5000 
     60 C           0.6145  -10.7607  -45.0014 C.2       2 UNK         0.5000 
     61 O           1.0976   -9.6468  -44.7910 O.2       2 UNK        -0.5000 
     62 CA          0.0174  -11.0703  -46.3896 C.3       2 UNK         0.1400 
     63 CB          1.1337  -11.4539  -47.3734 C.3       2 UNK        -0.1800 
     64 N          -0.9917  -12.1340  -46.3926 N.am      2 UNK        -0.5000 
     65 C          -2.1973  -12.0702  -45.8161 C.2       1 UNK         0.5000 
     66 O          -2.5663  -11.0976  -45.1556 O.2       1 UNK        -0.5000 
     67 C          -4.2842  -22.4251  -45.1234 C.2       11 UNK         0.5000 
     68 O          -5.1485  -23.1699  -45.5864 O.2       11 UNK        -0.5000 
     69 N          -3.4854  -22.7526  -44.0963 N.am      12 UNK        -0.5000 
     70 CA         -3.4999  -24.0396  -43.3948 C.3       12 UNK         0.1400 
     71 CB         -2.5326  -23.9757  -42.2036 C.3       12 UNK        -0.1800 
     72 C          -3.1568  -25.2304  -44.3116 C.2       12 UNK         0.5000 
     73 O          -3.7331  -26.3072  -44.1567 O.2       12 UNK        -0.5000 
     74 N          -2.2595  -24.9969  -45.2774 N.am      13 UNK        -0.5000 
     75 CA         -1.8720  -25.9380  -46.3268 C.3       13 UNK         0.1400 
     76 CB         -0.4504  -25.5882  -46.7957 C.3       13 UNK        -0.1800 
     77 C          -2.8534  -25.9872  -47.5184 C.2       13 UNK         0.5000 
     78 O          -2.5468  -26.6647  -48.4983 O.2       13 UNK        -0.5000 
     79 N          -3.9937  -25.2828  -47.4393 N.am      14 UNK        -0.5000 
     80 CA         -5.0629  -25.2109  -48.4417 C.3       14 UNK         0.1400 
     81 CB         -5.7484  -26.5826  -48.6151 C.3       14 UNK        -0.1800 
     82 C          -4.5678  -24.6136  -49.7731 C.2       14 UNK         0.5000 
     83 O          -4.4806  -25.3155  -50.7834 O.2       14 UNK        -0.5000 
     84 N          -4.2074  -23.3236  -49.7227 N.am      15 UNK        -0.5000 
     85 CA         -3.6272  -22.5269  -50.8104 C.3       15 UNK         0.1400 
     86 CB         -4.6370  -22.3463  -51.9652 C.3       15 UNK        -0.1800 
     87 C          -2.2664  -23.0890  -51.2669 C.2       15 UNK         0.5000 
     88 O          -1.9912  -23.1529  -52.4660 O.2       15 UNK        -0.5000 
     89 N          -1.4568  -23.5201  -50.2867 N.am      16 UNK        -0.5000 
     90 CA         -0.1602  -24.1875  -50.4467 C.3       16 UNK         0.1400 
     91 CB          0.8938  -23.1848  -50.9614 C.3       16 UNK        -0.1800 
     92 C          -0.2649  -25.4581  -51.3183 C.2       16 UNK         0.5000 
     93 O           0.4668  -25.5962  -52.2975 O.2       16 UNK        -0.5000 
     94 N          -1.2193  -26.3363  -50.9761 N.am      17 UNK        -0.5000 
     95 CA         -1.6345  -27.5282  -51.7252 C.3       17 UNK         0.1400 
     96 CB         -0.5238  -28.5991  -51.7157 C.3       17 UNK        -0.1800 
     97 C          -2.1396  -27.1811  -53.1429 C.2       17 UNK         0.5000 
     98 O          -1.8018  -27.8643  -54.1112 O.2       17 UNK        -0.5000 
     99 N          -2.9244  -26.0970  -53.2253 N.am      18 UNK        -0.5000 
    100 CA        -3.4856  -25.4759  -54.4296 C.3       18 UNK         0.1400 
    101 CB        -4.5163  -26.4126  -55.0927 C.3       18 UNK        -0.1800 
    102 C         -2.4375  -24.9372  -55.4314 C.2       18 UNK         0.5000 
    103 O         -2.7701  -24.7365  -56.6013 O.2       18 UNK        -0.5000 
    104 N         -1.1996  -24.6989  -54.9751 N.am      19 UNK        -0.5000 
    105 CA        -0.1234  -24.1276  -55.7856 C.3       19 UNK         0.1400 
    106 CB         1.2355  -24.5762  -55.2285 C.3       19 UNK        -0.1800 
    107 C         -0.1862  -22.5913  -55.8541 C.2       19 UNK         0.5000 
    108 O          0.3004  -22.0171  -56.8299 O.2       19 UNK        -0.5000 
    109 N         -0.7582  -21.9468  -54.8273 N.am      20 UNK        -0.5000 
    110 CA        -0.9271  -20.4960  -54.7638 C.3       20 UNK         0.1400 
    111 CB        -1.1841  -20.0811  -53.3078 C.3       20 UNK        -0.1800 
    112 C         -2.0698  -20.0181  -55.6788 C.2       20 UNK         0.5000 
    113 O         -3.0134  -20.7687  -55.9399 O.2       20 UNK        -0.5000 
    114 N         -1.9826  -18.7541  -56.1160 N.am      21 UNK        -0.5000 
    115 CA        -2.9238  -18.0978  -57.0345 C.3       21 UNK         0.1400 
    116 CB        -2.3846  -16.7019  -57.3820 C.3       21 UNK        -0.1800 
    117 C         -4.3734  -17.9997  -56.5149 C.2       21 UNK         0.5000 
    118 O         -5.2993  -17.8736  -57.3176 O.2       21 UNK        -0.5000 
    119 N         -4.5421  -18.0783  -55.1910 N.am      22 UNK        -0.5000 
    120 CA        -5.8317  -18.2203  -54.5019 C.3       22 UNK         0.1400 
    121 C         -6.5263  -19.6049  -54.6875 C.2       22 UNK         0.5000 
    122 N         -5.8583  -20.6326  -55.2004 N.am      22 UNK        -0.7600 
    123 O         -7.7055  -19.7428  -54.3723 O.2       22 UNK        -0.5000 
    124 C124       -5.7102  -17.8392  -53.0042 C.3       23 UNK        -0.0398 
    125 S125       -4.4152  -18.7882  -52.1276 S.3       23 UNK        -0.2404 
    126 C126       -3.5027  -17.4744  -51.2626 C.3       23 UNK        -0.0205 
    127 H127       -2.0920  -16.9758  -47.1012 H         1 UNK         0.0600 
    128 H128       -0.5000  -16.4706  -47.6729 H         1 UNK         0.0600 
    129 H129       -1.8368  -16.6115  -48.8072 H         1 UNK         0.0600 
    130 H130       -2.8314  -15.3457  -45.8450 H         1 UNK         0.3000 
    131 H131       -3.3854  -13.5172  -44.9081 H         1 UNK         0.0600 
    132 H132       -4.9347  -12.0180  -46.0633 H         1 UNK         0.0800 
    133 H133       -5.2377  -13.6810  -46.3836 H         1 UNK         0.0800 
    134 H134       -6.7397  -13.4394  -48.4098 H         1 UNK         0.0800 
    135 H135       -6.0861  -13.2665  -50.0162 H         1 UNK         0.0800 
    136 H136       -4.4220  -14.9158  -50.9118 H         1 UNK         0.1150 
    137 H137       -4.3401  -18.7671  -49.0286 H         1 UNK         0.1150 
    138 H138       -6.3625  -15.5056  -47.1317 H         1 UNK         0.1150 
    139 H139       -6.6278  -17.7699  -46.2694 H         1 UNK         0.0800 
    140 H140       -6.0117  -19.1242  -47.1866 H         1 UNK         0.0800 
    141 H141       -5.7435  -20.0700  -44.8452 H         1 UNK         0.0800 
    142 H142       -4.2789  -19.9246  -43.9180 H         1 UNK         0.0800 
    143 H143       -4.5295  -21.0678  -46.7501 H         1 UNK         0.0600 
    144 H144       -2.1321  -20.1794  -45.4564 H         1 UNK         0.3000 
    145 H145        0.1397  -22.1560  -47.3392 H         1 UNK         0.0600 
    146 H146       -0.5745  -19.1891  -47.6091 H         1 UNK         0.0600 
    147 H147        1.0090  -19.8890  -47.9446 H         1 UNK         0.0600 
    148 H148       -0.3796  -20.3385  -48.9240 H         1 UNK         0.0600 
    149 H149        0.3570  -20.0071  -45.4060 H         1 UNK         0.3000 
    150 H150        0.2965  -22.1082  -42.5180 H         1 UNK         0.0600 
    151 H151        2.6233  -22.4897  -43.3188 H         1 UNK         0.0600 
    152 H152        2.5773  -21.1981  -42.1276 H         1 UNK         0.0600 
    153 H153        2.7389  -20.8125  -43.8401 H         1 UNK         0.0600 
    154 H154        0.9695  -19.3616  -42.8462 H         1 UNK         0.3000 
    155 H155       -2.2251  -18.0174  -43.3582 H         1 UNK         0.0600 
    156 H156       -2.5903  -18.5259  -40.9367 H         1 UNK         0.0600 
    157 H157       -2.0874  -16.8598  -41.1691 H         1 UNK         0.0600 
    158 H158       -0.9326  -18.0562  -40.5780 H         1 UNK         0.0600 
    159 H159        0.1113  -16.7406  -42.4029 H         1 UNK         0.3000 
    160 H160        2.1888  -16.8704  -45.2094 H         1 UNK         0.0600 
    161 H161        1.9630  -14.3469  -45.1968 H         1 UNK         0.0600 
    162 H162        0.3510  -14.5273  -44.4957 H         1 UNK         0.0600 
    163 H163        0.6943  -15.1423  -46.1060 H         1 UNK         0.0600 
    164 H164        2.4764  -15.1695  -43.0624 H         1 UNK         0.3000 
    165 H165        2.9375  -16.1067  -40.5892 H         1 UNK         0.0600 
    166 H166        5.1081  -18.1801  -41.2033 H         1 UNK         0.0600 
    167 H167        4.9930  -17.2386  -39.7171 H         1 UNK         0.0600 
    168 H168        3.7312  -18.3868  -40.1332 H         1 UNK         0.0600 
    169 H169        4.3542  -14.5449  -41.2849 H         1 UNK         0.3000 
    170 H170        7.2197  -14.1894  -42.3576 H         1 UNK         0.0600 
    171 H171        5.7078  -14.1154  -45.0230 H         1 UNK         0.0600 
    172 H172        7.1283  -13.1464  -44.6347 H         1 UNK         0.0600 
    173 H173        7.2607  -14.8931  -44.7313 H         1 UNK         0.0600 
    174 H174        4.8069  -12.6796  -43.2132 H         1 UNK         0.3000 
    175 H175        4.6888  -10.8146  -40.1914 H         1 UNK         0.0600 
    176 H176        5.2409  -10.0690  -43.1091 H         1 UNK         0.0600 
    177 H177        4.6259   -8.9890  -41.8597 H         1 UNK         0.0600 
    178 H178        6.2458   -9.6559  -41.7284 H         1 UNK         0.0600 
    179 H179        2.6289  -11.1970  -40.7785 H         1 UNK         0.3000 
    180 H180        0.9133  -12.7410  -42.3297 H         1 UNK         0.0600 
    181 H181        0.7352   -9.6880  -42.1150 H         1 UNK         0.0600 
    182 H182        0.6672  -10.8540  -40.7985 H         1 UNK         0.0600 
    183 H183       -0.6469  -10.7669  -41.9523 H         1 UNK         0.0600 
    184 H184        0.1564  -12.6176  -44.4011 H         1 UNK         0.3000 
    185 H185       -0.4595  -10.1569  -46.7514 H         1 UNK         0.0600 
    186 H186        0.7407  -11.5991  -48.3800 H         1 UNK         0.0600 
    187 H187        1.8919  -10.6716  -47.4300 H         1 UNK         0.0600 
    188 H188        1.6342  -12.3752  -47.0719 H         1 UNK         0.0600 
    189 H189       -0.8294  -12.9193  -47.0155 H         1 UNK         0.3000 
    190 H190       -2.8212  -22.0601  -43.7601 H         1 UNK         0.3000 
    191 H191       -4.5095  -24.1965  -43.0098 H         1 UNK         0.0600 
    192 H192       -1.5035  -23.8247  -42.5301 H         1 UNK         0.0600 
    193 H193       -2.7919  -23.1613  -41.5268 H         1 UNK         0.0600 
    194 H194       -2.5616  -24.9012  -41.6271 H         1 UNK         0.0600 
    195 H195       -1.7832  -24.1021  -45.2851 H         1 UNK         0.3000 
    196 H196       -1.8442  -26.9437  -45.9027 H         1 UNK         0.0600 
    197 H197        0.2598  -25.6512  -45.9711 H         1 UNK         0.0600 
    198 H198       -0.4040  -24.5760  -47.1959 H         1 UNK         0.0600 
    199 H199       -0.1027  -26.2722  -47.5709 H         1 UNK         0.0600 
    200 H200       -4.1471  -24.7183  -46.6120 H         1 UNK         0.3000 
    201 H201       -5.8115  -24.5222  -48.0469 H         1 UNK         0.0600 
    202 H202       -6.5977  -26.5073  -49.2950 H         1 UNK         0.0600 
    203 H203       -6.1257  -26.9564  -47.6632 H         1 UNK         0.0600 
    204 H204       -5.0714  -27.3328  -49.0246 H         1 UNK         0.0600 
    205 H205       -4.1987  -22.8749  -48.8156 H         1 UNK         0.3000 
    206 H206       -3.4195  -21.5381  -50.3988 H         1 UNK         0.0600 
    207 H207       -4.2151  -21.7491  -52.7739 H         1 UNK         0.0600 
    208 H208       -5.5339  -21.8313  -51.6215 H         1 UNK         0.0600 
    209 H209       -4.9466  -23.2968  -52.3959 H         1 UNK         0.0600 
    210 H210       -1.7849  -23.3980  -49.3337 H         1 UNK         0.3000 
    211 H211        0.1553  -24.5167  -49.4577 H         1 UNK         0.0600 
    212 H212        0.9607  -22.3146  -50.3086 H         1 UNK         0.0600 
    213 H213        1.8831  -23.6423  -50.9958 H         1 UNK         0.0600 
    214 H214        0.6630  -22.8314  -51.9670 H         1 UNK         0.0600 
    215 H215       -1.7638  -26.1677  -50.1335 H         1 UNK         0.3000 
    216 H216       -2.4918  -27.9379  -51.1891 H         1 UNK         0.0600 
    217 H217       -0.8774  -29.5308  -52.1586 H         1 UNK         0.0600 
    218 H218        0.3529  -28.2814  -52.2806 H         1 UNK         0.0600 
    219 H219       -0.2045  -28.8248  -50.6983 H         1 UNK         0.0600 
    220 H220       -3.1709  -25.6350  -52.3554 H         1 UNK         0.3000 
    221 H221       -4.0260  -24.5964  -54.0812 H         1 UNK         0.0600 
    222 H222       -5.2562  -26.7576  -54.3704 H         1 UNK         0.0600 
    223 H223       -5.0584  -25.9002  -55.8883 H         1 UNK         0.0600 
    224 H224       -4.0416  -27.2896  -55.5334 H         1 UNK         0.0600 
    225 H225       -0.9989  -24.8639  -53.9962 H         1 UNK         0.3000 
    226 H226       -0.2060  -24.5114  -56.8046 H         1 UNK         0.0600 
    227 H227        1.2864  -25.6608  -55.1292 H         1 UNK         0.0600 
    228 H228        2.0464  -24.2700  -55.8902 H         1 UNK         0.0600 
    229 H229        1.4328  -24.1376  -54.2498 H         1 UNK         0.0600 
    230 H230       -1.1802  -22.4853  -54.0752 H         1 UNK         0.3000 
    231 H231        0.0022  -20.0264  -55.0934 H         1 UNK         0.0600 
    232 H232       -1.2430  -18.9966  -53.2108 H         1 UNK         0.0600 
    233 H233       -0.3850  -20.4245  -52.6506 H         1 UNK         0.0600 
    234 H234       -2.1211  -20.4935  -52.9367 H         1 UNK         0.0600 
    235 H235       -1.1847  -18.2018  -55.8373 H         1 UNK         0.3000 
    236 H236       -2.9526  -18.6904  -57.9505 H         1 UNK         0.0600 
    237 H237       -1.3989  -16.7624  -57.8434 H         1 UNK         0.0600 
    238 H238       -3.0414  -16.1924  -58.0888 H         1 UNK         0.0600 
    239 H239       -2.3040  -16.0712  -56.4964 H         1 UNK         0.0600 
    240 H240       -3.7251  -18.1977  -54.6111 H         1 UNK         0.3000 
    241 H241       -6.5123  -17.4970  -54.9559 H         1 UNK         0.0600 
    242 H242       -4.8790  -20.5540  -55.4598 H         1 UNK         0.3800 
    243 H243       -6.3316  -21.5130  -55.3192 H         1 UNK         0.3800 
    244 H244       -5.4894  -16.7740  -52.9264 H         1 UNK         0.0800 
    245 H245       -6.6595  -17.9780  -52.4840 H         1 UNK         0.0800 
    246 H246       -2.5723  -17.8922  -50.8747 H         1 UNK         0.0800 
    247 H247       -3.2188  -16.6937  -51.9703 H         1 UNK         0.0800 
@<TRIPOS>BOND
     1    1    2 1    
     2    1  127 1    
     3    1  128 1    
     4    1  129 1    
     5    2    3 2    
     6    2    4 am   BACKBONE|DICT|INTERRES
     7    4    5 1    
     8    4  130 1    
     9    5    6 1    
    10    5   65 1    
    11    5  131 1    
    12    6    7 1    
    13    6  132 1    
    14    6  133 1    
    15    7    8 1    
    16    8    9 1    
    17    8  134 1    
    18    8  135 1    
    19    9   10 ar   
    20    9   14 ar   
    21   10   11 ar   
    22   10  136 1    
    23   11   12 ar   
    24   11  126 1    
    25   12   13 ar   
    26   12  137 1    
    27   13   14 ar   
    28   13   15 1    
    29   14  138 1    
    30   15   16 1    
    31   15  139 1    
    32   15  140 1    
    33   16   17 1    
    34   17   18 1    
    35   17  141 1    
    36   17  142 1    
    37   18   19 1    
    38   18   67 1    
    39   18  143 1    
    40   19   20 am   BACKBONE|DICT|INTERRES
    41   19  144 1    
    42   20   21 2    
    43   20   22 1    
    44   22   23 1    
    45   22   24 1    
    46   22  145 1    
    47   23  146 1    
    48   23  147 1    
    49   23  148 1    
    50   24   25 am   BACKBONE|DICT|INTERRES
    51   24  149 1    
    52   25   26 2    
    53   25   27 1    
    54   27   28 1    
    55   27   29 1    
    56   27  150 1    
    57   28  151 1    
    58   28  152 1    
    59   28  153 1    
    60   29   30 am   BACKBONE|DICT|INTERRES
    61   29  154 1    
    62   30   31 2    
    63   30   32 1    
    64   32   33 1    
    65   32   34 1    
    66   32  155 1    
    67   33  156 1    
    68   33  157 1    
    69   33  158 1    
    70   34   35 am   BACKBONE|DICT|INTERRES
    71   34  159 1    
    72   35   36 2    
    73   35   37 1    
    74   37   38 1    
    75   37   39 1    
    76   37  160 1    
    77   38  161 1    
    78   38  162 1    
    79   38  163 1    
    80   39   40 am   BACKBONE|DICT|INTERRES
    81   39  164 1    
    82   40   41 2    
    83   40   42 1    
    84   42   43 1    
    85   42   44 1    
    86   42  165 1    
    87   43  166 1    
    88   43  167 1    
    89   43  168 1    
    90   44   45 am   BACKBONE|DICT|INTERRES
    91   44  169 1    
    92   45   46 2    
    93   45   47 1    
    94   47   48 1    
    95   47   49 1    
    96   47  170 1    
    97   48  171 1    
    98   48  172 1    
    99   48  173 1    
   100   49   50 am   BACKBONE|DICT|INTERRES
   101   49  174 1    
   102   50   51 2    
   103   50   52 1    
   104   52   53 1    
   105   52   54 1    
   106   52  175 1    
   107   53  176 1    
   108   53  177 1    
   109   53  178 1    
   110   54   55 am   BACKBONE|DICT|INTERRES
   111   54  179 1    
   112   55   56 2    
   113   55   57 1    
   114   57   58 1    
   115   57   59 1    
   116   57  180 1    
   117   58  181 1    
   118   58  182 1    
   119   58  183 1    
   120   59   60 am   BACKBONE|DICT|INTERRES
   121   59  184 1    
   122   60   61 2    
   123   60   62 1    
   124   62   63 1    
   125   62   64 1    
   126   62  185 1    
   127   63  186 1    
   128   63  187 1    
   129   63  188 1    
   130   64   65 am   BACKBONE|DICT|INTERRES
   131   64  189 1    
   132   65   66 2    
   133   67   68 2    
   134   67   69 am   BACKBONE|DICT|INTERRES
   135   69   70 1    
   136   69  190 1    
   137   70   71 1    
   138   70   72 1    
   139   70  191 1    
   140   71  192 1    
   141   71  193 1    
   142   71  194 1    
   143   72   73 2    
   144   72   74 am   BACKBONE|DICT|INTERRES
   145   74   75 1    
   146   74  195 1    
   147   75   76 1    
   148   75   77 1    
   149   75  196 1    
   150   76  197 1    
   151   76  198 1    
   152   76  199 1    
   153   77   78 2    
   154   77   79 am   BACKBONE|DICT|INTERRES
   155   79   80 1    
   156   79  200 1    
   157   80   81 1    
   158   80   82 1    
   159   80  201 1    
   160   81  202 1    
   161   81  203 1    
   162   81  204 1    
   163   82   83 2    
   164   82   84 am   BACKBONE|DICT|INTERRES
   165   84   85 1    
   166   84  205 1    
   167   85   86 1    
   168   85   87 1    
   169   85  206 1    
   170   86  207 1    
   171   86  208 1    
   172   86  209 1    
   173   87   88 2    
   174   87   89 am   BACKBONE|DICT|INTERRES
   175   89   90 1    
   176   89  210 1    
   177   90   91 1    
   178   90   92 1    
   179   90  211 1    
   180   91  212 1    
   181   91  213 1    
   182   91  214 1    
   183   92   93 2    
   184   92   94 am   BACKBONE|DICT|INTERRES
   185   94   95 1    
   186   94  215 1    
   187   95   96 1    
   188   95   97 1    
   189   95  216 1    
   190   96  217 1    
   191   96  218 1    
   192   96  219 1    
   193   97   98 2    
   194   97   99 am   BACKBONE|DICT|INTERRES
   195   99  100 1    
   196   99  220 1    
   197  100  101 1    
   198  100  102 1    
   199  100  221 1    
   200  101  222 1    
   201  101  223 1    
   202  101  224 1    
   203  102  103 2    
   204  102  104 am   BACKBONE|DICT|INTERRES
   205  104  105 1    
   206  104  225 1    
   207  105  106 1    
   208  105  107 1    
   209  105  226 1    
   210  106  227 1    
   211  106  228 1    
   212  106  229 1    
   213  107  108 2    
   214  107  109 am   BACKBONE|DICT|INTERRES
   215  109  110 1    
   216  109  230 1    
   217  110  111 1    
   218  110  112 1    
   219  110  231 1    
   220  111  232 1    
   221  111  233 1    
   222  111  234 1    
   223  112  113 2    
   224  112  114 am   BACKBONE|DICT|INTERRES
   225  114  115 1    
   226  114  235 1    
   227  115  116 1    
   228  115  117 1    
   229  115  236 1    
   230  116  237 1    
   231  116  238 1    
   232  116  239 1    
   233  117  118 2    
   234  117  119 am   BACKBONE|DICT|INTERRES
   235  119  120 1    
   236  119  240 1    
   237  120  121 1    
   238  120  124 1    
   239  120  241 1    
   240  121  122 am   BACKBONE|DICT|INTERRES
   241  121  123 2    
   242  122  242 1    
   243  122  243 1    
   244  124  125 1    
   245  124  244 1    
   246  124  245 1    
   247  125  126 1    
   248  126  246 1    
   249  126  247 1    
@<TRIPOS>SUBSTRUCTURE
     1 UNK         1 GROUP             0       ****    0 ROOT    
