@<TRIPOS>MOLECULE
3R540
247   249    1
SMALL
USER_CHARGES


@<TRIPOS>ATOM
      1 CA          2.7497  -19.1027  -52.8964 C.3       0 UNK        -0.1800 
      2 C           2.4393  -18.7980  -51.4380 C.2       0 UNK         0.5000 
      3 O           1.5890  -19.4549  -50.8410 O.2       0 UNK        -0.5000 
      4 N           3.1255  -17.8049  -50.8606 N.am      1 UNK        -0.5000 
      5 CA          2.9844  -17.3799  -49.4647 C.3       1 UNK         0.1400 
      6 C6          3.5578  -15.9617  -49.2344 C.3       23 UNK        -0.0398 
      7 S7          2.6613  -14.6769  -50.1675 S.3       23 UNK        -0.2404 
      8 C8          1.4159  -14.1497  -48.9496 C.3       23 UNK        -0.0205 
      9 C9          0.0670  -14.8116  -49.1870 C.ar      23 UNK        -0.0193 
     10 C10        -0.7997  -14.2787  -50.1459 C.ar      23 UNK        -0.1150 
     11 C11        -2.0649  -14.8344  -50.3474 C.ar      23 UNK        -0.0193 
     12 C12        -2.4552  -15.9429  -49.5936 C.ar      23 UNK        -0.1150 
     13 C13        -1.5991  -16.4898  -48.6326 C.ar      23 UNK        -0.0193 
     14 C14        -0.3387  -15.9170  -48.4295 C.ar      23 UNK        -0.1150 
     15 C15        -2.0813  -17.6488  -47.7729 C.3       23 UNK        -0.0205 
     16 S16        -1.1299  -19.1872  -48.0166 S.3       23 UNK        -0.2404 
     17 C17        -2.4155  -20.3950  -47.5501 C.3       23 UNK        -0.0398 
     18 CA         -1.8925  -21.7222  -46.9468 C.3       11 UNK         0.1400 
     19 N          -1.1162  -21.5264  -45.7095 N.am      11 UNK        -0.5000 
     20 C          -0.6235  -22.4920  -44.9124 C.2       10 UNK         0.5000 
     21 O          -0.8120  -23.6929  -45.1113 O.2       10 UNK        -0.5000 
     22 CA          0.2042  -22.0696  -43.6831 C.3       10 UNK         0.1400 
     23 CB          1.5464  -22.8180  -43.6337 C.3       10 UNK        -0.1800 
     24 N           0.4652  -20.6325  -43.6530 N.am      10 UNK        -0.5000 
     25 C          -0.2534  -19.7256  -42.9868 C.2       9 UNK         0.5000 
     26 O          -1.2355  -19.9963  -42.2920 O.2       9 UNK        -0.5000 
     27 CA          0.1743  -18.2650  -43.2095 C.3       9 UNK         0.1400 
     28 CB         -0.4164  -17.7554  -44.5286 C.3       9 UNK        -0.1800 
     29 N          -0.2448  -17.3771  -42.1280 N.am      9 UNK        -0.5000 
     30 C           0.2836  -17.3825  -40.8961 C.2       8 UNK         0.5000 
     31 O           1.1825  -18.1493  -40.5473 O.2       8 UNK        -0.5000 
     32 CA         -0.2391  -16.3402  -39.8877 C.3       8 UNK         0.1400 
     33 CB          0.8092  -15.2388  -39.6612 C.3       8 UNK        -0.1800 
     34 N          -1.4949  -15.7159  -40.3044 N.am      8 UNK        -0.5000 
     35 C          -2.7048  -16.2703  -40.1480 C.2       7 UNK         0.5000 
     36 O          -2.8900  -17.3503  -39.5862 O.2       7 UNK        -0.5000 
     37 CA         -3.9168  -15.4961  -40.7070 C.3       7 UNK         0.1400 
     38 CB         -4.6799  -14.8002  -39.5690 C.3       7 UNK        -0.1800 
     39 N          -3.5799  -14.4980  -41.7265 N.am      7 UNK        -0.5000 
     40 C          -3.0876  -14.7720  -42.9418 C.2       6 UNK         0.5000 
     41 O          -2.8396  -15.9160  -43.3253 O.2       6 UNK        -0.5000 
     42 CA         -2.8240  -13.5808  -43.8900 C.3       6 UNK         0.1400 
     43 CB         -2.8906  -12.1977  -43.2023 C.3       6 UNK        -0.1800 
     44 N          -1.5623  -13.7226  -44.6240 N.am      6 UNK        -0.5000 
     45 C          -0.3370  -13.8486  -44.0967 C.2       5 UNK         0.5000 
     46 O          -0.0992  -13.8589  -42.8854 O.2       5 UNK        -0.5000 
     47 CA          0.8154  -13.9565  -45.1068 C.3       5 UNK         0.1400 
     48 CB          1.1888  -12.5638  -45.6420 C.3       5 UNK        -0.1800 
     49 N           1.9854  -14.5356  -44.4545 N.am      5 UNK        -0.5000 
     50 C           2.6365  -15.6374  -44.8419 C.2       4 UNK         0.5000 
     51 O           2.3589  -16.2745  -45.8601 O.2       4 UNK        -0.5000 
     52 CA          3.7934  -16.1055  -43.9398 C.3       4 UNK         0.1400 
     53 CB          3.5582  -15.7937  -42.4436 C.3       4 UNK        -0.1800 
     54 N           4.0119  -17.5364  -44.1369 N.am      4 UNK        -0.5000 
     55 C           5.0967  -18.2240  -43.7676 C.2       3 UNK         0.5000 
     56 O           6.0798  -17.7054  -43.2366 O.2       3 UNK        -0.5000 
     57 CA          5.1067  -19.7448  -44.0243 C.3       3 UNK         0.1400 
     58 CB          4.3415  -20.4972  -42.9183 C.3       3 UNK        -0.1800 
     59 N           4.6661  -20.1527  -45.3650 N.am      3 UNK        -0.5000 
     60 C           3.4437  -20.0837  -45.9047 C.2       2 UNK         0.5000 
     61 O           2.4521  -19.6474  -45.3175 O.2       2 UNK        -0.5000 
     62 CA          3.3086  -20.5795  -47.3543 C.3       2 UNK         0.1400 
     63 CB          2.2817  -21.7160  -47.4624 C.3       2 UNK        -0.1800 
     64 N           2.9046  -19.4949  -48.2402 N.am      2 UNK        -0.5000 
     65 C           3.6362  -18.4115  -48.5225 C.2       1 UNK         0.5000 
     66 O           4.7863  -18.2372  -48.1131 O.2       1 UNK        -0.5000 
     67 C          -3.0891  -22.6845  -46.7781 C.2       11 UNK         0.5000 
     68 O          -3.3780  -23.4514  -47.6930 O.2       11 UNK        -0.5000 
     69 N          -3.7396  -22.6564  -45.6062 N.am      12 UNK        -0.5000 
     70 CA         -4.8671  -23.5233  -45.2540 C.3       12 UNK         0.1400 
     71 CB         -5.4358  -23.0701  -43.9007 C.3       12 UNK        -0.1800 
     72 C          -4.5235  -25.0278  -45.2161 C.2       12 UNK         0.5000 
     73 O          -5.4177  -25.8501  -45.4198 O.2       12 UNK        -0.5000 
     74 N          -3.2507  -25.3588  -44.9615 N.am      13 UNK        -0.5000 
     75 CA         -2.7306  -26.7246  -44.9513 C.3       13 UNK         0.1400 
     76 CB         -1.8617  -26.9186  -43.6980 C.3       13 UNK        -0.1800 
     77 C          -1.9130  -27.0177  -46.2198 C.2       13 UNK         0.5000 
     78 O          -2.0418  -28.1024  -46.7885 O.2       13 UNK        -0.5000 
     79 N          -1.0758  -26.0566  -46.6317 N.am      14 UNK        -0.5000 
     80 CA         -0.1285  -26.1956  -47.7371 C.3       14 UNK         0.1400 
     81 CB          0.9549  -25.1156  -47.5889 C.3       14 UNK        -0.1800 
     82 C          -0.7709  -26.0986  -49.1319 C.2       14 UNK         0.5000 
     83 O          -0.2021  -26.6299  -50.0872 O.2       14 UNK        -0.5000 
     84 N          -1.9045  -25.3890  -49.2359 N.am      15 UNK        -0.5000 
     85 CA         -2.5906  -24.9354  -50.4514 C.3       15 UNK         0.1400 
     86 CB         -3.0436  -26.1055  -51.3473 C.3       15 UNK        -0.1800 
     87 C          -1.7599  -23.8897  -51.2178 C.2       15 UNK         0.5000 
     88 O          -2.1599  -22.7262  -51.2873 O.2       15 UNK        -0.5000 
     89 N          -0.6120  -24.3318  -51.7555 N.am      16 UNK        -0.5000 
     90 CA          0.4579  -23.5514  -52.3909 C.3       16 UNK         0.1400 
     91 CB          1.2253  -22.7669  -51.3081 C.3       16 UNK        -0.1800 
     92 C          -0.0096  -22.6493  -53.5540 C.2       16 UNK         0.5000 
     93 O           0.5950  -21.6066  -53.8052 O.2       16 UNK        -0.5000 
     94 N          -1.1127  -23.0410  -54.2093 N.am      17 UNK        -0.5000 
     95 CA         -1.9197  -22.3016  -55.1904 C.3       17 UNK         0.1400 
     96 CB         -1.1068  -21.9314  -56.4449 C.3       17 UNK        -0.1800 
     97 C          -2.6398  -21.0669  -54.6086 C.2       17 UNK         0.5000 
     98 O          -3.8047  -20.8453  -54.9397 O.2       17 UNK        -0.5000 
     99 N          -1.9614  -20.3082  -53.7375 N.am      18 UNK        -0.5000 
    100 CA        -2.4148  -19.0851  -53.0727 C.3       18 UNK         0.1400 
    101 CB        -1.3371  -18.6217  -52.0867 C.3       18 UNK        -0.1800 
    102 C         -3.7716  -19.2045  -52.3609 C.2       18 UNK         0.5000 
    103 O         -4.5575  -18.2589  -52.4148 O.2       18 UNK        -0.5000 
    104 N         -4.0598  -20.3722  -51.7669 N.am      19 UNK        -0.5000 
    105 CA        -5.3411  -20.6784  -51.1226 C.3       19 UNK         0.1400 
    106 CB        -5.2637  -22.0695  -50.4793 C.3       19 UNK        -0.1800 
    107 C         -6.5623  -20.5953  -52.0636 C.2       19 UNK         0.5000 
    108 O         -7.6664  -20.3290  -51.5873 O.2       19 UNK        -0.5000 
    109 N         -6.3449  -20.8096  -53.3681 N.am      20 UNK        -0.5000 
    110 CA        -7.3533  -20.6624  -54.4154 C.3       20 UNK         0.1400 
    111 CB        -7.2892  -21.8849  -55.3448 C.3       20 UNK        -0.1800 
    112 C         -7.1425  -19.3676  -55.2193 C.2       20 UNK         0.5000 
    113 O         -8.1226  -18.7152  -55.5805 O.2       20 UNK        -0.5000 
    114 N         -5.8776  -19.0296  -55.5066 N.am      21 UNK        -0.5000 
    115 CA        -5.4892  -17.9235  -56.3816 C.3       21 UNK         0.1400 
    116 CB        -4.0265  -18.1095  -56.8137 C.3       21 UNK        -0.1800 
    117 C         -5.6983  -16.5238  -55.7759 C.2       21 UNK         0.5000 
    118 O         -5.9160  -15.5797  -56.5376 O.2       21 UNK        -0.5000 
    119 N         -5.6271  -16.3959  -54.4453 N.am      22 UNK        -0.5000 
    120 CA        -5.7798  -15.1120  -53.7411 C.3       22 UNK         0.1400 
    121 C         -6.4327  -15.2130  -52.3350 C.2       22 UNK         0.5000 
    122 N         -6.3921  -16.3498  -51.6537 N.am      22 UNK        -0.7600 
    123 O         -7.0113  -14.2396  -51.8597 O.2       22 UNK        -0.5000 
    124 C124       -4.4719  -14.2739  -53.7355 C.3       23 UNK        -0.0398 
    125 S125       -3.0544  -15.0976  -52.9238 S.3       23 UNK        -0.2404 
    126 C126       -3.0340  -14.2101  -51.3375 C.3       23 UNK        -0.0205 
    127 H127        3.5261  -18.4483  -53.2931 H         1 UNK         0.0600 
    128 H128        1.8542  -18.9778  -53.5050 H         1 UNK         0.0600 
    129 H129        3.0865  -20.1343  -52.9990 H         1 UNK         0.0600 
    130 H130        3.8156  -17.3022  -51.3993 H         1 UNK         0.3000 
    131 H131        1.9206  -17.3507  -49.2230 H         1 UNK         0.0600 
    132 H132        3.5504  -15.7065  -48.1741 H         1 UNK         0.0800 
    133 H133        4.6058  -15.9228  -49.5365 H         1 UNK         0.0800 
    134 H134        1.7667  -14.3523  -47.9387 H         1 UNK         0.0800 
    135 H135        1.3023  -13.0666  -49.0146 H         1 UNK         0.0800 
    136 H136       -0.4941  -13.4174  -50.7234 H         1 UNK         0.1150 
    137 H137       -3.4377  -16.3674  -49.7488 H         1 UNK         0.1150 
    138 H138        0.3179  -16.3278  -47.6749 H         1 UNK         0.1150 
    139 H139       -2.0433  -17.3521  -46.7265 H         1 UNK         0.0800 
    140 H140       -3.1329  -17.8446  -47.9883 H         1 UNK         0.0800 
    141 H141       -2.9939  -20.5910  -48.4555 H         1 UNK         0.0800 
    142 H142       -3.1044  -19.9233  -46.8465 H         1 UNK         0.0800 
    143 H143       -1.2171  -22.1801  -47.6725 H         1 UNK         0.0600 
    144 H144       -0.8954  -20.5698  -45.4773 H         1 UNK         0.3000 
    145 H145       -0.3711  -22.3605  -42.8021 H         1 UNK         0.0600 
    146 H146        2.0866  -22.5867  -42.7159 H         1 UNK         0.0600 
    147 H147        1.4009  -23.8988  -43.6552 H         1 UNK         0.0600 
    148 H148        2.1876  -22.5552  -44.4742 H         1 UNK         0.0600 
    149 H149        1.2292  -20.3041  -44.2450 H         1 UNK         0.3000 
    150 H150        1.2633  -18.2224  -43.2739 H         1 UNK         0.0600 
    151 H151        0.0164  -18.2830  -45.3788 H         1 UNK         0.0600 
    152 H152       -0.2169  -16.6970  -44.6769 H         1 UNK         0.0600 
    153 H153       -1.4967  -17.8993  -44.5585 H         1 UNK         0.0600 
    154 H154       -1.0157  -16.7527  -42.3297 H         1 UNK         0.3000 
    155 H155       -0.3962  -16.8552  -38.9376 H         1 UNK         0.0600 
    156 H156        1.0198  -14.6875  -40.5779 H         1 UNK         0.0600 
    157 H157        1.7518  -15.6614  -39.3109 H         1 UNK         0.0600 
    158 H158        0.4752  -14.5242  -38.9088 H         1 UNK         0.0600 
    159 H159       -1.4210  -14.8380  -40.8002 H         1 UNK         0.3000 
    160 H160       -4.5831  -16.2297  -41.1657 H         1 UNK         0.0600 
    161 H161       -4.0698  -14.0373  -39.0839 H         1 UNK         0.0600 
    162 H162       -4.9798  -15.5166  -38.8029 H         1 UNK         0.0600 
    163 H163       -5.5882  -14.3221  -39.9365 H         1 UNK         0.0600 
    164 H164       -3.7446  -13.5325  -41.4810 H         1 UNK         0.3000 
    165 H165       -3.6167  -13.6146  -44.6385 H         1 UNK         0.0600 
    166 H166       -2.6836  -11.3993  -43.9152 H         1 UNK         0.0600 
    167 H167       -3.8821  -12.0035  -42.7919 H         1 UNK         0.0600 
    168 H168       -2.1674  -12.1082  -42.3906 H         1 UNK         0.0600 
    169 H169       -1.6555  -13.7532  -45.6292 H         1 UNK         0.3000 
    170 H170        0.4836  -14.5863  -45.9331 H         1 UNK         0.0600 
    171 H171        0.3653  -12.1269  -46.2081 H         1 UNK         0.0600 
    172 H172        1.4339  -11.8750  -44.8325 H         1 UNK         0.0600 
    173 H173        2.0513  -12.6109  -46.3065 H         1 UNK         0.0600 
    174 H174        2.2164  -14.1222  -43.5617 H         1 UNK         0.3000 
    175 H175        4.6868  -15.5748  -44.2741 H         1 UNK         0.0600 
    176 H176        2.6301  -16.2383  -42.0889 H         1 UNK         0.0600 
    177 H177        4.3646  -16.1751  -41.8180 H         1 UNK         0.0600 
    178 H178        3.5061  -14.7207  -42.2580 H         1 UNK         0.0600 
    179 H179        3.2756  -18.0247  -44.6414 H         1 UNK         0.3000 
    180 H180        6.1496  -20.0597  -43.9601 H         1 UNK         0.0600 
    181 H181        4.3932  -21.5755  -43.0672 H         1 UNK         0.0600 
    182 H182        3.2908  -20.2107  -42.8763 H         1 UNK         0.0600 
    183 H183        4.7705  -20.2841  -41.9386 H         1 UNK         0.0600 
    184 H184        5.4133  -20.4804  -45.9614 H         1 UNK         0.3000 
    185 H185        4.2730  -20.9582  -47.6987 H         1 UNK         0.0600 
    186 H186        2.2124  -22.0862  -48.4849 H         1 UNK         0.0600 
    187 H187        2.5611  -22.5595  -46.8310 H         1 UNK         0.0600 
    188 H188        1.2873  -21.3876  -47.1612 H         1 UNK         0.0600 
    189 H189        2.0005  -19.5844  -48.6890 H         1 UNK         0.3000 
    190 H190       -3.4284  -22.0090  -44.8970 H         1 UNK         0.3000 
    191 H191       -5.6400  -23.3863  -46.0132 H         1 UNK         0.0600 
    192 H192       -6.2977  -23.6752  -43.6160 H         1 UNK         0.0600 
    193 H193       -5.7682  -22.0326  -43.9390 H         1 UNK         0.0600 
    194 H194       -4.6956  -23.1578  -43.1043 H         1 UNK         0.0600 
    195 H195       -2.5679  -24.6179  -44.8478 H         1 UNK         0.3000 
    196 H196       -3.5479  -27.4474  -44.9068 H         1 UNK         0.0600 
    197 H197       -1.0236  -26.2205  -43.6735 H         1 UNK         0.0600 
    198 H198       -2.4456  -26.7706  -42.7896 H         1 UNK         0.0600 
    199 H199       -1.4507  -27.9282  -43.6598 H         1 UNK         0.0600 
    200 H200       -1.0083  -25.1984  -46.0892 H         1 UNK         0.3000 
    201 H201        0.3518  -27.1733  -47.6608 H         1 UNK         0.0600 
    202 H202        0.5312  -24.1135  -47.6631 H         1 UNK         0.0600 
    203 H203        1.7136  -25.2093  -48.3671 H         1 UNK         0.0600 
    204 H204        1.4630  -25.1928  -46.6274 H         1 UNK         0.0600 
    205 H205       -2.2767  -24.9729  -48.3883 H         1 UNK         0.3000 
    206 H206       -3.4959  -24.4324  -50.1125 H         1 UNK         0.0600 
    207 H207       -3.6725  -26.8008  -50.7913 H         1 UNK         0.0600 
    208 H208       -3.6318  -25.7394  -52.1896 H         1 UNK         0.0600 
    209 H209       -2.2073  -26.6703  -51.7585 H         1 UNK         0.0600 
    210 H210       -0.3854  -25.3047  -51.5726 H         1 UNK         0.3000 
    211 H211        1.1476  -24.2737  -52.8292 H         1 UNK         0.0600 
    212 H212        2.0946  -22.2576  -51.7251 H         1 UNK         0.0600 
    213 H213        1.5864  -23.4315  -50.5235 H         1 UNK         0.0600 
    214 H214        0.5947  -22.0095  -50.8406 H         1 UNK         0.0600 
    215 H215       -1.5273  -23.9058  -53.8926 H         1 UNK         0.3000 
    216 H216       -2.7023  -22.9941  -55.5042 H         1 UNK         0.0600 
    217 H217       -0.3270  -21.2008  -56.2291 H         1 UNK         0.0600 
    218 H218       -1.7530  -21.4967  -57.2086 H         1 UNK         0.0600 
    219 H219       -0.6328  -22.8104  -56.8814 H         1 UNK         0.0600 
    220 H220       -1.0045  -20.5903  -53.5464 H         1 UNK         0.3000 
    221 H221       -2.5175  -18.3164  -53.8390 H         1 UNK         0.0600 
    222 H222       -0.3967  -18.4230  -52.5988 H         1 UNK         0.0600 
    223 H223       -1.1502  -19.3684  -51.3135 H         1 UNK         0.0600 
    224 H224       -1.6309  -17.6982  -51.5889 H         1 UNK         0.0600 
    225 H225       -3.3564  -21.1050  -51.7578 H         1 UNK         0.3000 
    226 H226       -5.4909  -19.9433  -50.3293 H         1 UNK         0.0600 
    227 H227       -5.0975  -22.8462  -51.2265 H         1 UNK         0.0600 
    228 H228       -4.4530  -22.1207  -49.7544 H         1 UNK         0.0600 
    229 H229       -6.1865  -22.3116  -49.9508 H         1 UNK         0.0600 
    230 H230       -5.3968  -20.9886  -53.6793 H         1 UNK         0.3000 
    231 H231       -8.3547  -20.6244  -53.9818 H         1 UNK         0.0600 
    232 H232       -6.3097  -21.9855  -55.8144 H         1 UNK         0.0600 
    233 H233       -8.0302  -21.8093  -56.1416 H         1 UNK         0.0600 
    234 H234       -7.4932  -22.8051  -54.7972 H         1 UNK         0.0600 
    235 H235       -5.1267  -19.6483  -55.2103 H         1 UNK         0.3000 
    236 H236       -6.1080  -17.9804  -57.2797 H         1 UNK         0.0600 
    237 H237       -3.3464  -18.0585  -55.9646 H         1 UNK         0.0600 
    238 H238       -3.8781  -19.0715  -57.3048 H         1 UNK         0.0600 
    239 H239       -3.7261  -17.3344  -57.5198 H         1 UNK         0.0600 
    240 H240       -5.4170  -17.2032  -53.8694 H         1 UNK         0.3000 
    241 H241       -6.5102  -14.5308  -54.3080 H         1 UNK         0.0600 
    242 H242       -6.8409  -16.3962  -50.7539 H         1 UNK         0.3800 
    243 H243       -5.8033  -17.1221  -51.9608 H         1 UNK         0.3800 
    244 H244       -4.1783  -14.0585  -54.7635 H         1 UNK         0.0800 
    245 H245       -4.6459  -13.2982  -53.2788 H         1 UNK         0.0800 
    246 H246       -2.7762  -13.1647  -51.5140 H         1 UNK         0.0800 
    247 H247       -4.0352  -14.2098  -50.9044 H         1 UNK         0.0800 
@<TRIPOS>BOND
     1    1    2 1    
     2    1  127 1    
     3    1  128 1    
     4    1  129 1    
     5    2    3 2    
     6    2    4 am   BACKBONE|DICT|INTERRES
     7    4    5 1    
     8    4  130 1    
     9    5    6 1    
    10    5   65 1    
    11    5  131 1    
    12    6    7 1    
    13    6  132 1    
    14    6  133 1    
    15    7    8 1    
    16    8    9 1    
    17    8  134 1    
    18    8  135 1    
    19    9   10 ar   
    20    9   14 ar   
    21   10   11 ar   
    22   10  136 1    
    23   11   12 ar   
    24   11  126 1    
    25   12   13 ar   
    26   12  137 1    
    27   13   14 ar   
    28   13   15 1    
    29   14  138 1    
    30   15   16 1    
    31   15  139 1    
    32   15  140 1    
    33   16   17 1    
    34   17   18 1    
    35   17  141 1    
    36   17  142 1    
    37   18   19 1    
    38   18   67 1    
    39   18  143 1    
    40   19   20 am   BACKBONE|DICT|INTERRES
    41   19  144 1    
    42   20   21 2    
    43   20   22 1    
    44   22   23 1    
    45   22   24 1    
    46   22  145 1    
    47   23  146 1    
    48   23  147 1    
    49   23  148 1    
    50   24   25 am   BACKBONE|DICT|INTERRES
    51   24  149 1    
    52   25   26 2    
    53   25   27 1    
    54   27   28 1    
    55   27   29 1    
    56   27  150 1    
    57   28  151 1    
    58   28  152 1    
    59   28  153 1    
    60   29   30 am   BACKBONE|DICT|INTERRES
    61   29  154 1    
    62   30   31 2    
    63   30   32 1    
    64   32   33 1    
    65   32   34 1    
    66   32  155 1    
    67   33  156 1    
    68   33  157 1    
    69   33  158 1    
    70   34   35 am   BACKBONE|DICT|INTERRES
    71   34  159 1    
    72   35   36 2    
    73   35   37 1    
    74   37   38 1    
    75   37   39 1    
    76   37  160 1    
    77   38  161 1    
    78   38  162 1    
    79   38  163 1    
    80   39   40 am   BACKBONE|DICT|INTERRES
    81   39  164 1    
    82   40   41 2    
    83   40   42 1    
    84   42   43 1    
    85   42   44 1    
    86   42  165 1    
    87   43  166 1    
    88   43  167 1    
    89   43  168 1    
    90   44   45 am   BACKBONE|DICT|INTERRES
    91   44  169 1    
    92   45   46 2    
    93   45   47 1    
    94   47   48 1    
    95   47   49 1    
    96   47  170 1    
    97   48  171 1    
    98   48  172 1    
    99   48  173 1    
   100   49   50 am   BACKBONE|DICT|INTERRES
   101   49  174 1    
   102   50   51 2    
   103   50   52 1    
   104   52   53 1    
   105   52   54 1    
   106   52  175 1    
   107   53  176 1    
   108   53  177 1    
   109   53  178 1    
   110   54   55 am   BACKBONE|DICT|INTERRES
   111   54  179 1    
   112   55   56 2    
   113   55   57 1    
   114   57   58 1    
   115   57   59 1    
   116   57  180 1    
   117   58  181 1    
   118   58  182 1    
   119   58  183 1    
   120   59   60 am   BACKBONE|DICT|INTERRES
   121   59  184 1    
   122   60   61 2    
   123   60   62 1    
   124   62   63 1    
   125   62   64 1    
   126   62  185 1    
   127   63  186 1    
   128   63  187 1    
   129   63  188 1    
   130   64   65 am   BACKBONE|DICT|INTERRES
   131   64  189 1    
   132   65   66 2    
   133   67   68 2    
   134   67   69 am   BACKBONE|DICT|INTERRES
   135   69   70 1    
   136   69  190 1    
   137   70   71 1    
   138   70   72 1    
   139   70  191 1    
   140   71  192 1    
   141   71  193 1    
   142   71  194 1    
   143   72   73 2    
   144   72   74 am   BACKBONE|DICT|INTERRES
   145   74   75 1    
   146   74  195 1    
   147   75   76 1    
   148   75   77 1    
   149   75  196 1    
   150   76  197 1    
   151   76  198 1    
   152   76  199 1    
   153   77   78 2    
   154   77   79 am   BACKBONE|DICT|INTERRES
   155   79   80 1    
   156   79  200 1    
   157   80   81 1    
   158   80   82 1    
   159   80  201 1    
   160   81  202 1    
   161   81  203 1    
   162   81  204 1    
   163   82   83 2    
   164   82   84 am   BACKBONE|DICT|INTERRES
   165   84   85 1    
   166   84  205 1    
   167   85   86 1    
   168   85   87 1    
   169   85  206 1    
   170   86  207 1    
   171   86  208 1    
   172   86  209 1    
   173   87   88 2    
   174   87   89 am   BACKBONE|DICT|INTERRES
   175   89   90 1    
   176   89  210 1    
   177   90   91 1    
   178   90   92 1    
   179   90  211 1    
   180   91  212 1    
   181   91  213 1    
   182   91  214 1    
   183   92   93 2    
   184   92   94 am   BACKBONE|DICT|INTERRES
   185   94   95 1    
   186   94  215 1    
   187   95   96 1    
   188   95   97 1    
   189   95  216 1    
   190   96  217 1    
   191   96  218 1    
   192   96  219 1    
   193   97   98 2    
   194   97   99 am   BACKBONE|DICT|INTERRES
   195   99  100 1    
   196   99  220 1    
   197  100  101 1    
   198  100  102 1    
   199  100  221 1    
   200  101  222 1    
   201  101  223 1    
   202  101  224 1    
   203  102  103 2    
   204  102  104 am   BACKBONE|DICT|INTERRES
   205  104  105 1    
   206  104  225 1    
   207  105  106 1    
   208  105  107 1    
   209  105  226 1    
   210  106  227 1    
   211  106  228 1    
   212  106  229 1    
   213  107  108 2    
   214  107  109 am   BACKBONE|DICT|INTERRES
   215  109  110 1    
   216  109  230 1    
   217  110  111 1    
   218  110  112 1    
   219  110  231 1    
   220  111  232 1    
   221  111  233 1    
   222  111  234 1    
   223  112  113 2    
   224  112  114 am   BACKBONE|DICT|INTERRES
   225  114  115 1    
   226  114  235 1    
   227  115  116 1    
   228  115  117 1    
   229  115  236 1    
   230  116  237 1    
   231  116  238 1    
   232  116  239 1    
   233  117  118 2    
   234  117  119 am   BACKBONE|DICT|INTERRES
   235  119  120 1    
   236  119  240 1    
   237  120  121 1    
   238  120  124 1    
   239  120  241 1    
   240  121  122 am   BACKBONE|DICT|INTERRES
   241  121  123 2    
   242  122  242 1    
   243  122  243 1    
   244  124  125 1    
   245  124  244 1    
   246  124  245 1    
   247  125  126 1    
   248  126  246 1    
   249  126  247 1    
@<TRIPOS>SUBSTRUCTURE
     1 UNK         1 GROUP             0       ****    0 ROOT    
