@<TRIPOS>MOLECULE
3R540
247   249    1
SMALL
USER_CHARGES


@<TRIPOS>ATOM
      1 CA          0.2183   -8.8660  -47.0938 C.3       0 UNK        -0.1800 
      2 C           1.0025   -9.6068  -48.1676 C.2       0 UNK         0.5000 
      3 O           2.0593   -9.1368  -48.5893 O.2       0 UNK        -0.5000 
      4 N           0.4902  -10.7636  -48.6093 N.am      1 UNK        -0.5000 
      5 CA          1.1265  -11.6431  -49.6007 C.3       1 UNK         0.1400 
      6 C6          0.1066  -12.6648  -50.1623 C.3       23 UNK        -0.0398 
      7 S7          0.6208  -13.3628  -51.7668 S.3       23 UNK        -0.2404 
      8 C8          0.9956  -15.0818  -51.3022 C.3       23 UNK        -0.0205 
      9 C9         -0.2608  -15.9381  -51.2794 C.ar      23 UNK        -0.0193 
     10 C10        -0.8031  -16.3934  -52.4823 C.ar      23 UNK        -0.1150 
     11 C11        -1.9422  -17.1991  -52.4898 C.ar      23 UNK        -0.0193 
     12 C12        -2.5398  -17.5527  -51.2764 C.ar      23 UNK        -0.1150 
     13 C13        -2.0159  -17.0980  -50.0570 C.ar      23 UNK        -0.0193 
     14 C14        -0.8711  -16.2925  -50.0721 C.ar      23 UNK        -0.1150 
     15 C15        -2.6087  -17.4973  -48.7035 C.3       23 UNK        -0.0205 
     16 S16        -4.3515  -18.0492  -48.7353 S.3       23 UNK        -0.2404 
     17 C17        -4.5532  -18.8320  -47.0941 C.3       23 UNK        -0.0398 
     18 CA         -3.9196  -20.2478  -47.0476 C.3       11 UNK         0.1400 
     19 N          -2.5239  -20.2093  -46.6007 N.am      11 UNK        -0.5000 
     20 C          -1.6461  -21.1948  -46.8214 C.2       10 UNK         0.5000 
     21 O          -1.9389  -22.2449  -47.3881 O.2       10 UNK        -0.5000 
     22 CA         -0.2217  -20.9983  -46.2778 C.3       10 UNK         0.1400 
     23 CB          0.5691  -20.0107  -47.1493 C.3       10 UNK        -0.1800 
     24 N          -0.2152  -20.5565  -44.8830 N.am      10 UNK        -0.5000 
     25 C          -0.7015  -21.2825  -43.8654 C.2       9 UNK         0.5000 
     26 O          -1.1727  -22.4120  -43.9956 O.2       9 UNK        -0.5000 
     27 CA         -0.7030  -20.6267  -42.4746 C.3       9 UNK         0.1400 
     28 CB          0.6868  -20.7275  -41.8286 C.3       9 UNK        -0.1800 
     29 N          -1.1366  -19.2298  -42.5034 N.am      9 UNK        -0.5000 
     30 C          -2.3499  -18.8122  -42.8928 C.2       8 UNK         0.5000 
     31 O          -3.2508  -19.5671  -43.2528 O.2       8 UNK        -0.5000 
     32 CA         -2.5793  -17.2915  -42.9495 C.3       8 UNK         0.1400 
     33 CB         -2.8107  -16.7144  -41.5456 C.3       8 UNK        -0.1800 
     34 N          -1.4777  -16.5854  -43.6026 N.am      8 UNK        -0.5000 
     35 C          -1.0889  -16.7955  -44.8687 C.2       7 UNK         0.5000 
     36 O          -1.6338  -17.5901  -45.6347 O.2       7 UNK        -0.5000 
     37 CA          0.1525  -16.0228  -45.3362 C.3       7 UNK         0.1400 
     38 CB         -0.2176  -14.5795  -45.7171 C.3       7 UNK        -0.1800 
     39 N           1.1943  -16.0287  -44.3074 N.am      7 UNK        -0.5000 
     40 C           1.9084  -17.1159  -43.9757 C.2       6 UNK         0.5000 
     41 O           1.7888  -18.2073  -44.5329 O.2       6 UNK        -0.5000 
     42 CA          2.8931  -16.9714  -42.7996 C.3       6 UNK         0.1400 
     43 CB          4.2176  -16.3611  -43.2799 C.3       6 UNK        -0.1800 
     44 N           2.3524  -16.1661  -41.7032 N.am      6 UNK        -0.5000 
     45 C           1.2930  -16.5191  -40.9594 C.2       5 UNK         0.5000 
     46 O           0.6998  -17.5880  -41.0863 O.2       5 UNK        -0.5000 
     47 CA          0.7691  -15.4932  -39.9367 C.3       5 UNK         0.1400 
     48 CB          1.4115  -15.7287  -38.5623 C.3       5 UNK        -0.1800 
     49 N           0.9886  -14.1045  -40.3375 N.am      5 UNK        -0.5000 
     50 C           0.5505  -13.5370  -41.4693 C.2       4 UNK         0.5000 
     51 O          -0.1501  -14.1184  -42.2998 O.2       4 UNK        -0.5000 
     52 CA          1.0173  -12.0948  -41.7410 C.3       4 UNK         0.1400 
     53 CB          1.1987  -11.2635  -40.4528 C.3       4 UNK        -0.1800 
     54 N           2.2368  -12.0313  -42.5544 N.am      4 UNK        -0.5000 
     55 C           3.4224  -12.6219  -42.3461 C.2       3 UNK         0.5000 
     56 O           3.6348  -13.4502  -41.4584 O.2       3 UNK        -0.5000 
     57 CA          4.5646  -12.2089  -43.3017 C.3       3 UNK         0.1400 
     58 CB          5.9471  -12.6322  -42.7726 C.3       3 UNK        -0.1800 
     59 N           4.4122  -12.7322  -44.6610 N.am      3 UNK        -0.5000 
     60 C           3.4804  -12.3645  -45.5475 C.2       2 UNK         0.5000 
     61 O           2.5881  -11.5455  -45.3025 O.2       2 UNK        -0.5000 
     62 CA          3.5718  -12.9991  -46.9455 C.3       2 UNK         0.1400 
     63 CB          3.5904  -14.5400  -46.9104 C.3       2 UNK        -0.1800 
     64 N           2.4336  -12.5247  -47.7206 N.am      2 UNK        -0.5000 
     65 C           2.3939  -12.3365  -49.0424 C.2       1 UNK         0.5000 
     66 O           3.3097  -12.6553  -49.8020 O.2       1 UNK        -0.5000 
     67 C          -4.7643  -21.2734  -46.2566 C.2       11 UNK         0.5000 
     68 O          -5.7018  -21.8322  -46.8263 O.2       11 UNK        -0.5000 
     69 N          -4.4022  -21.5523  -44.9951 N.am      12 UNK        -0.5000 
     70 CA         -4.9741  -22.6373  -44.1933 C.3       12 UNK         0.1400 
     71 CB         -4.6028  -22.4505  -42.7145 C.3       12 UNK        -0.1800 
     72 C          -4.5412  -24.0296  -44.6925 C.2       12 UNK         0.5000 
     73 O          -5.3702  -24.9396  -44.7325 O.2       12 UNK        -0.5000 
     74 N          -3.2648  -24.1685  -45.0831 N.am      13 UNK        -0.5000 
     75 CA         -2.7106  -25.3710  -45.7144 C.3       13 UNK         0.1400 
     76 CB         -1.1783  -25.2698  -45.7468 C.3       13 UNK        -0.1800 
     77 C          -3.2765  -25.6150  -47.1277 C.2       13 UNK         0.5000 
     78 O          -3.4058  -26.7688  -47.5408 O.2       13 UNK        -0.5000 
     79 N          -3.6305  -24.5237  -47.8209 N.am      14 UNK        -0.5000 
     80 CA         -4.3212  -24.4622  -49.1060 C.3       14 UNK         0.1400 
     81 CB         -5.7727  -24.9713  -48.9641 C.3       14 UNK        -0.1800 
     82 C          -3.5073  -25.1579  -50.2101 C.2       14 UNK         0.5000 
     83 O          -2.4208  -24.6823  -50.5437 O.2       14 UNK        -0.5000 
     84 N          -4.0262  -26.2643  -50.7577 N.am      15 UNK        -0.5000 
     85 CA         -3.4256  -27.0372  -51.8469 C.3       15 UNK         0.1400 
     86 CB         -4.3870  -28.1632  -52.2526 C.3       15 UNK        -0.1800 
     87 C          -2.0297  -27.6027  -51.5241 C.2       15 UNK         0.5000 
     88 O          -1.2171  -27.7456  -52.4371 O.2       15 UNK        -0.5000 
     89 N          -1.7520  -27.8592  -50.2374 N.am      16 UNK        -0.5000 
     90 CA         -0.4456  -28.3064  -49.7470 C.3       16 UNK         0.1400 
     91 CB         -0.5929  -28.8007  -48.3005 C.3       16 UNK        -0.1800 
     92 C           0.6509  -27.2249  -49.8462 C.2       16 UNK         0.5000 
     93 O           1.8301  -27.5711  -49.9222 O.2       16 UNK        -0.5000 
     94 N           0.2481  -25.9470  -49.8617 N.am      17 UNK        -0.5000 
     95 CA          1.1250  -24.7861  -50.0326 C.3       17 UNK         0.1400 
     96 CB          0.7541  -23.7462  -48.9625 C.3       17 UNK        -0.1800 
     97 C           1.0058  -24.1696  -51.4418 C.2       17 UNK         0.5000 
     98 O           1.6749  -23.1732  -51.7164 O.2       17 UNK        -0.5000 
     99 N           0.1332  -24.7390  -52.2900 N.am      18 UNK        -0.5000 
    100 CA        -0.3147  -24.2336  -53.5958 C.3       18 UNK         0.1400 
    101 CB         0.8479  -24.1892  -54.6081 C.3       18 UNK        -0.1800 
    102 C         -1.0809  -22.8922  -53.5044 C.2       18 UNK         0.5000 
    103 O         -1.1951  -22.1736  -54.4982 O.2       18 UNK        -0.5000 
    104 N         -1.6207  -22.5899  -52.3168 N.am      19 UNK        -0.5000 
    105 CA        -2.3586  -21.3690  -52.0002 C.3       19 UNK         0.1400 
    106 CB        -2.2384  -21.1102  -50.4934 C.3       19 UNK        -0.1800 
    107 C         -3.8360  -21.4371  -52.4306 C.2       19 UNK         0.5000 
    108 O         -4.4954  -20.4004  -52.4949 O.2       19 UNK        -0.5000 
    109 N         -4.3240  -22.6437  -52.7579 N.am      20 UNK        -0.5000 
    110 CA        -5.6831  -22.9194  -53.2399 C.3       20 UNK         0.1400 
    111 CB        -5.8813  -24.4410  -53.3268 C.3       20 UNK        -0.1800 
    112 C         -6.0331  -22.2539  -54.5886 C.2       20 UNK         0.5000 
    113 O         -7.2118  -22.1796  -54.9368 O.2       20 UNK        -0.5000 
    114 N         -5.0148  -21.7775  -55.3189 N.am      21 UNK        -0.5000 
    115 CA        -5.1526  -20.9865  -56.5412 C.3       21 UNK         0.1400 
    116 CB        -3.7703  -20.8559  -57.1994 C.3       21 UNK        -0.1800 
    117 C         -5.7674  -19.5909  -56.3033 C.2       21 UNK         0.5000 
    118 O         -6.3584  -19.0328  -57.2290 O.2       21 UNK        -0.5000 
    119 N         -5.6190  -19.0540  -55.0854 N.am      22 UNK        -0.5000 
    120 CA        -6.1958  -17.7723  -54.6599 C.3       22 UNK         0.1400 
    121 C         -7.5883  -17.9813  -54.0086 C.2       22 UNK         0.5000 
    122 N         -8.5352  -17.0866  -54.2567 N.am      22 UNK        -0.7600 
    123 O         -7.8113  -18.9225  -53.2507 O.2       22 UNK        -0.5000 
    124 C124       -5.2481  -17.0166  -53.6965 C.3       23 UNK        -0.0398 
    125 S125       -3.6967  -16.5196  -54.5226 S.3       23 UNK        -0.2404 
    126 C126       -2.5030  -17.6946  -53.8144 C.3       23 UNK        -0.0205 
    127 H127       -0.7148   -9.3740  -46.8491 H         1 UNK         0.0600 
    128 H128       -0.0217   -7.8577  -47.4312 H         1 UNK         0.0600 
    129 H129        0.8129   -8.7908  -46.1832 H         1 UNK         0.0600 
    130 H130       -0.3892  -11.0867  -48.2314 H         1 UNK         0.3000 
    131 H131        1.4510  -11.0043  -50.4253 H         1 UNK         0.0600 
    132 H132       -0.0997  -13.4565  -49.4404 H         1 UNK         0.0800 
    133 H133       -0.8503  -12.1715  -50.3385 H         1 UNK         0.0800 
    134 H134        1.6971  -15.4943  -52.0288 H         1 UNK         0.0800 
    135 H135        1.5091  -15.1101  -50.3397 H         1 UNK         0.0800 
    136 H136       -0.3349  -16.1181  -53.4172 H         1 UNK         0.1150 
    137 H137       -3.4081  -18.1937  -51.2912 H         1 UNK         0.1150 
    138 H138       -0.4459  -15.9513  -49.1385 H         1 UNK         0.1150 
    139 H139       -1.9834  -18.2948  -48.3074 H         1 UNK         0.0800 
    140 H140       -2.5308  -16.6611  -48.0073 H         1 UNK         0.0800 
    141 H141       -5.6284  -18.8768  -46.9111 H         1 UNK         0.0800 
    142 H142       -4.1505  -18.1834  -46.3150 H         1 UNK         0.0800 
    143 H143       -3.9149  -20.6398  -48.0667 H         1 UNK         0.0600 
    144 H144       -2.2139  -19.3643  -46.1275 H         1 UNK         0.3000 
    145 H145        0.2836  -21.9652  -46.3233 H         1 UNK         0.0600 
    146 H146        1.6093  -19.9513  -46.8291 H         1 UNK         0.0600 
    147 H147        0.1509  -19.0052  -47.1067 H         1 UNK         0.0600 
    148 H148        0.5674  -20.3237  -48.1943 H         1 UNK         0.0600 
    149 H149        0.1810  -19.6429  -44.6941 H         1 UNK         0.3000 
    150 H150       -1.4076  -21.1786  -41.8494 H         1 UNK         0.0600 
    151 H151        1.0324  -21.7617  -41.8014 H         1 UNK         0.0600 
    152 H152        0.6700  -20.3640  -40.8011 H         1 UNK         0.0600 
    153 H153        1.4286  -20.1458  -42.3772 H         1 UNK         0.0600 
    154 H154       -0.4612  -18.5433  -42.1752 H         1 UNK         0.3000 
    155 H155       -3.4787  -17.1121  -43.5422 H         1 UNK         0.0600 
    156 H156       -3.6968  -17.1555  -41.0877 H         1 UNK         0.0600 
    157 H157       -2.9632  -15.6354  -41.5797 H         1 UNK         0.0600 
    158 H158       -1.9695  -16.9151  -40.8836 H         1 UNK         0.0600 
    159 H159       -0.9802  -15.8936  -43.0530 H         1 UNK         0.3000 
    160 H160        0.5448  -16.5184  -46.2270 H         1 UNK         0.0600 
    161 H161       -0.6767  -14.0428  -44.8869 H         1 UNK         0.0600 
    162 H162       -0.9296  -14.5697  -46.5433 H         1 UNK         0.0600 
    163 H163        0.6533  -14.0101  -46.0348 H         1 UNK         0.0600 
    164 H164        1.2798  -15.1951  -43.7425 H         1 UNK         0.3000 
    165 H165        3.0986  -17.9714  -42.4119 H         1 UNK         0.0600 
    166 H166        4.9375  -16.2860  -42.4648 H         1 UNK         0.0600 
    167 H167        4.6698  -16.9747  -44.0601 H         1 UNK         0.0600 
    168 H168        4.0720  -15.3632  -43.6915 H         1 UNK         0.0600 
    169 H169        2.7864  -15.2633  -41.5340 H         1 UNK         0.3000 
    170 H170       -0.3075  -15.6392  -39.8401 H         1 UNK         0.0600 
    171 H171        2.4893  -15.5624  -38.5891 H         1 UNK         0.0600 
    172 H172        0.9870  -15.0651  -37.8088 H         1 UNK         0.0600 
    173 H173        1.2448  -16.7522  -38.2236 H         1 UNK         0.0600 
    174 H174        1.6088  -13.5637  -39.7524 H         1 UNK         0.3000 
    175 H175        0.2273  -11.6239  -42.3281 H         1 UNK         0.0600 
    176 H176        2.0480  -11.5999  -39.8572 H         1 UNK         0.0600 
    177 H177        1.3635  -10.2127  -40.6912 H         1 UNK         0.0600 
    178 H178        0.3093  -11.3139  -39.8232 H         1 UNK         0.0600 
    179 H179        2.1608  -11.4797  -43.4045 H         1 UNK         0.3000 
    180 H180        4.5563  -11.1183  -43.3566 H         1 UNK         0.0600 
    181 H181        6.7471  -12.2442  -43.4034 H         1 UNK         0.0600 
    182 H182        6.0492  -13.7173  -42.7305 H         1 UNK         0.0600 
    183 H183        6.1153  -12.2474  -41.7659 H         1 UNK         0.0600 
    184 H184        5.1026  -13.4114  -44.9451 H         1 UNK         0.3000 
    185 H185        4.4938  -12.6381  -47.4059 H         1 UNK         0.0600 
    186 H186        3.5833  -14.9571  -47.9175 H         1 UNK         0.0600 
    187 H187        4.4873  -14.9156  -46.4175 H         1 UNK         0.0600 
    188 H188        2.7326  -14.9463  -46.3790 H         1 UNK         0.0600 
    189 H189        1.6930  -12.1319  -47.1531 H         1 UNK         0.3000 
    190 H190       -3.6784  -20.9943  -44.5529 H         1 UNK         0.3000 
    191 H191       -6.0617  -22.5807  -44.2732 H         1 UNK         0.0600 
    192 H192       -4.9888  -21.5072  -42.3282 H         1 UNK         0.0600 
    193 H193       -3.5232  -22.4572  -42.5651 H         1 UNK         0.0600 
    194 H194       -5.0243  -23.2484  -42.1019 H         1 UNK         0.0600 
    195 H195       -2.6247  -23.3907  -44.9549 H         1 UNK         0.3000 
    196 H196       -2.9809  -26.2317  -45.0994 H         1 UNK         0.0600 
    197 H197       -0.7693  -25.1836  -44.7401 H         1 UNK         0.0600 
    198 H198       -0.8455  -24.4022  -46.3149 H         1 UNK         0.0600 
    199 H199       -0.7321  -26.1526  -46.2040 H         1 UNK         0.0600 
    200 H200       -3.3303  -23.6286  -47.4471 H         1 UNK         0.3000 
    201 H201       -4.3731  -23.4081  -49.3792 H         1 UNK         0.0600 
    202 H202       -6.3096  -24.3921  -48.2123 H         1 UNK         0.0600 
    203 H203       -5.8202  -26.0181  -48.6625 H         1 UNK         0.0600 
    204 H204       -6.3230  -24.8647  -49.8995 H         1 UNK         0.0600 
    205 H205       -4.9037  -26.6078  -50.3949 H         1 UNK         0.3000 
    206 H206       -3.3105  -26.3651  -52.6997 H         1 UNK         0.0600 
    207 H207       -4.5716  -28.8511  -51.4264 H         1 UNK         0.0600 
    208 H208       -5.3473  -27.7635  -52.5791 H         1 UNK         0.0600 
    209 H209       -3.9809  -28.7455  -53.0808 H         1 UNK         0.0600 
    210 H210       -2.4659  -27.6862  -49.5405 H         1 UNK         0.3000 
    211 H211       -0.1253  -29.1509  -50.3610 H         1 UNK         0.0600 
    212 H212       -0.9369  -28.0074  -47.6381 H         1 UNK         0.0600 
    213 H213        0.3589  -29.1646  -47.9115 H         1 UNK         0.0600 
    214 H214       -1.3059  -29.6228  -48.2356 H         1 UNK         0.0600 
    215 H215       -0.7441  -25.7445  -49.8183 H         1 UNK         0.3000 
    216 H216        2.1701  -25.0666  -49.8889 H         1 UNK         0.0600 
    217 H217        1.3842  -22.8589  -49.0333 H         1 UNK         0.0600 
    218 H218        0.8819  -24.1524  -47.9596 H         1 UNK         0.0600 
    219 H219       -0.2818  -23.4224  -49.0663 H         1 UNK         0.0600 
    220 H220       -0.3412  -25.5712  -51.9679 H         1 UNK         0.3000 
    221 H221       -1.0378  -24.9633  -53.9626 H         1 UNK         0.0600 
    222 H222        1.5760  -23.4171  -54.3587 H         1 UNK         0.0600 
    223 H223        1.3711  -25.1445  -54.6494 H         1 UNK         0.0600 
    224 H224        0.4823  -23.9773  -55.6135 H         1 UNK         0.0600 
    225 H225       -1.5539  -23.2763  -51.5712 H         1 UNK         0.3000 
    226 H226       -1.8988  -20.5302  -52.5260 H         1 UNK         0.0600 
    227 H227       -1.2000  -20.9549  -50.2004 H         1 UNK         0.0600 
    228 H228       -2.7948  -20.2225  -50.1977 H         1 UNK         0.0600 
    229 H229       -2.6257  -21.9463  -49.9141 H         1 UNK         0.0600 
    230 H230       -3.6992  -23.4326  -52.6889 H         1 UNK         0.3000 
    231 H231       -6.3833  -22.5239  -52.5013 H         1 UNK         0.0600 
    232 H232       -6.8698  -24.6881  -53.7164 H         1 UNK         0.0600 
    233 H233       -5.8050  -24.9043  -52.3453 H         1 UNK         0.0600 
    234 H234       -5.1452  -24.9077  -53.9823 H         1 UNK         0.0600 
    235 H235       -4.0771  -21.8993  -54.9652 H         1 UNK         0.3000 
    236 H236       -5.8109  -21.5269  -57.2245 H         1 UNK         0.0600 
    237 H237       -3.0628  -20.3397  -56.5488 H         1 UNK         0.0600 
    238 H238       -3.3527  -21.8340  -57.4393 H         1 UNK         0.0600 
    239 H239       -3.8321  -20.2920  -58.1310 H         1 UNK         0.0600 
    240 H240       -5.1907  -19.6045  -54.3507 H         1 UNK         0.3000 
    241 H241       -6.3351  -17.1394  -55.5389 H         1 UNK         0.0600 
    242 H242       -8.3761  -16.3012  -54.8694 H         1 UNK         0.3800 
    243 H243       -9.4411  -17.2023  -53.8289 H         1 UNK         0.3800 
    244 H244       -5.0367  -17.6201  -52.8135 H         1 UNK         0.0800 
    245 H245       -5.7242  -16.1050  -53.3312 H         1 UNK         0.0800 
    246 H246       -1.6885  -17.8336  -54.5269 H         1 UNK         0.0800 
    247 H247       -2.9666  -18.6729  -53.7008 H         1 UNK         0.0800 
@<TRIPOS>BOND
     1    1    2 1    
     2    1  127 1    
     3    1  128 1    
     4    1  129 1    
     5    2    3 2    
     6    2    4 am   BACKBONE|DICT|INTERRES
     7    4    5 1    
     8    4  130 1    
     9    5    6 1    
    10    5   65 1    
    11    5  131 1    
    12    6    7 1    
    13    6  132 1    
    14    6  133 1    
    15    7    8 1    
    16    8    9 1    
    17    8  134 1    
    18    8  135 1    
    19    9   10 ar   
    20    9   14 ar   
    21   10   11 ar   
    22   10  136 1    
    23   11   12 ar   
    24   11  126 1    
    25   12   13 ar   
    26   12  137 1    
    27   13   14 ar   
    28   13   15 1    
    29   14  138 1    
    30   15   16 1    
    31   15  139 1    
    32   15  140 1    
    33   16   17 1    
    34   17   18 1    
    35   17  141 1    
    36   17  142 1    
    37   18   19 1    
    38   18   67 1    
    39   18  143 1    
    40   19   20 am   BACKBONE|DICT|INTERRES
    41   19  144 1    
    42   20   21 2    
    43   20   22 1    
    44   22   23 1    
    45   22   24 1    
    46   22  145 1    
    47   23  146 1    
    48   23  147 1    
    49   23  148 1    
    50   24   25 am   BACKBONE|DICT|INTERRES
    51   24  149 1    
    52   25   26 2    
    53   25   27 1    
    54   27   28 1    
    55   27   29 1    
    56   27  150 1    
    57   28  151 1    
    58   28  152 1    
    59   28  153 1    
    60   29   30 am   BACKBONE|DICT|INTERRES
    61   29  154 1    
    62   30   31 2    
    63   30   32 1    
    64   32   33 1    
    65   32   34 1    
    66   32  155 1    
    67   33  156 1    
    68   33  157 1    
    69   33  158 1    
    70   34   35 am   BACKBONE|DICT|INTERRES
    71   34  159 1    
    72   35   36 2    
    73   35   37 1    
    74   37   38 1    
    75   37   39 1    
    76   37  160 1    
    77   38  161 1    
    78   38  162 1    
    79   38  163 1    
    80   39   40 am   BACKBONE|DICT|INTERRES
    81   39  164 1    
    82   40   41 2    
    83   40   42 1    
    84   42   43 1    
    85   42   44 1    
    86   42  165 1    
    87   43  166 1    
    88   43  167 1    
    89   43  168 1    
    90   44   45 am   BACKBONE|DICT|INTERRES
    91   44  169 1    
    92   45   46 2    
    93   45   47 1    
    94   47   48 1    
    95   47   49 1    
    96   47  170 1    
    97   48  171 1    
    98   48  172 1    
    99   48  173 1    
   100   49   50 am   BACKBONE|DICT|INTERRES
   101   49  174 1    
   102   50   51 2    
   103   50   52 1    
   104   52   53 1    
   105   52   54 1    
   106   52  175 1    
   107   53  176 1    
   108   53  177 1    
   109   53  178 1    
   110   54   55 am   BACKBONE|DICT|INTERRES
   111   54  179 1    
   112   55   56 2    
   113   55   57 1    
   114   57   58 1    
   115   57   59 1    
   116   57  180 1    
   117   58  181 1    
   118   58  182 1    
   119   58  183 1    
   120   59   60 am   BACKBONE|DICT|INTERRES
   121   59  184 1    
   122   60   61 2    
   123   60   62 1    
   124   62   63 1    
   125   62   64 1    
   126   62  185 1    
   127   63  186 1    
   128   63  187 1    
   129   63  188 1    
   130   64   65 am   BACKBONE|DICT|INTERRES
   131   64  189 1    
   132   65   66 2    
   133   67   68 2    
   134   67   69 am   BACKBONE|DICT|INTERRES
   135   69   70 1    
   136   69  190 1    
   137   70   71 1    
   138   70   72 1    
   139   70  191 1    
   140   71  192 1    
   141   71  193 1    
   142   71  194 1    
   143   72   73 2    
   144   72   74 am   BACKBONE|DICT|INTERRES
   145   74   75 1    
   146   74  195 1    
   147   75   76 1    
   148   75   77 1    
   149   75  196 1    
   150   76  197 1    
   151   76  198 1    
   152   76  199 1    
   153   77   78 2    
   154   77   79 am   BACKBONE|DICT|INTERRES
   155   79   80 1    
   156   79  200 1    
   157   80   81 1    
   158   80   82 1    
   159   80  201 1    
   160   81  202 1    
   161   81  203 1    
   162   81  204 1    
   163   82   83 2    
   164   82   84 am   BACKBONE|DICT|INTERRES
   165   84   85 1    
   166   84  205 1    
   167   85   86 1    
   168   85   87 1    
   169   85  206 1    
   170   86  207 1    
   171   86  208 1    
   172   86  209 1    
   173   87   88 2    
   174   87   89 am   BACKBONE|DICT|INTERRES
   175   89   90 1    
   176   89  210 1    
   177   90   91 1    
   178   90   92 1    
   179   90  211 1    
   180   91  212 1    
   181   91  213 1    
   182   91  214 1    
   183   92   93 2    
   184   92   94 am   BACKBONE|DICT|INTERRES
   185   94   95 1    
   186   94  215 1    
   187   95   96 1    
   188   95   97 1    
   189   95  216 1    
   190   96  217 1    
   191   96  218 1    
   192   96  219 1    
   193   97   98 2    
   194   97   99 am   BACKBONE|DICT|INTERRES
   195   99  100 1    
   196   99  220 1    
   197  100  101 1    
   198  100  102 1    
   199  100  221 1    
   200  101  222 1    
   201  101  223 1    
   202  101  224 1    
   203  102  103 2    
   204  102  104 am   BACKBONE|DICT|INTERRES
   205  104  105 1    
   206  104  225 1    
   207  105  106 1    
   208  105  107 1    
   209  105  226 1    
   210  106  227 1    
   211  106  228 1    
   212  106  229 1    
   213  107  108 2    
   214  107  109 am   BACKBONE|DICT|INTERRES
   215  109  110 1    
   216  109  230 1    
   217  110  111 1    
   218  110  112 1    
   219  110  231 1    
   220  111  232 1    
   221  111  233 1    
   222  111  234 1    
   223  112  113 2    
   224  112  114 am   BACKBONE|DICT|INTERRES
   225  114  115 1    
   226  114  235 1    
   227  115  116 1    
   228  115  117 1    
   229  115  236 1    
   230  116  237 1    
   231  116  238 1    
   232  116  239 1    
   233  117  118 2    
   234  117  119 am   BACKBONE|DICT|INTERRES
   235  119  120 1    
   236  119  240 1    
   237  120  121 1    
   238  120  124 1    
   239  120  241 1    
   240  121  122 am   BACKBONE|DICT|INTERRES
   241  121  123 2    
   242  122  242 1    
   243  122  243 1    
   244  124  125 1    
   245  124  244 1    
   246  124  245 1    
   247  125  126 1    
   248  126  246 1    
   249  126  247 1    
@<TRIPOS>SUBSTRUCTURE
     1 UNK         1 GROUP             0       ****    0 ROOT    
