@<TRIPOS>MOLECULE
3R540
247   249    1
SMALL
USER_CHARGES


@<TRIPOS>ATOM
      1 CA          2.2904  -12.8161  -54.6939 C.3       0 UNK        -0.1800 
      2 C           1.8644  -13.0374  -53.2497 C.2       0 UNK         0.5000 
      3 O           0.7190  -13.4135  -53.0039 O.2       0 UNK        -0.5000 
      4 N           2.7799  -12.7995  -52.3003 N.am      1 UNK        -0.5000 
      5 CA          2.6256  -12.9260  -50.8443 C.3       1 UNK         0.1400 
      6 C6          2.2018  -14.3478  -50.3859 C.3       23 UNK        -0.0398 
      7 S7          2.2840  -14.5626  -48.5757 S.3       23 UNK        -0.2404 
      8 C8          2.8907  -16.2726  -48.4260 C.3       23 UNK        -0.0205 
      9 C9          1.9121  -17.3641  -48.8580 C.ar      23 UNK        -0.0193 
     10 C10         0.5347  -17.1434  -48.9997 C.ar      23 UNK        -0.1150 
     11 C11        -0.3181  -18.1783  -49.3933 C.ar      23 UNK        -0.0193 
     12 C12         0.2105  -19.4485  -49.6310 C.ar      23 UNK        -0.1150 
     13 C13         1.5787  -19.6882  -49.4855 C.ar      23 UNK        -0.0193 
     14 C14         2.4201  -18.6434  -49.0983 C.ar      23 UNK        -0.1150 
     15 C15         2.1545  -21.0709  -49.7493 C.3       23 UNK        -0.0205 
     16 S16         2.2571  -22.0549  -48.2228 S.3       23 UNK        -0.2404 
     17 C17         0.4913  -22.3777  -47.9247 C.3       23 UNK        -0.0398 
     18 CA          0.2681  -23.5062  -46.8976 C.3       11 UNK         0.1400 
     19 N           0.6157  -23.1034  -45.5340 N.am      11 UNK        -0.5000 
     20 C           0.6801  -23.9413  -44.4907 C.2       10 UNK         0.5000 
     21 O           0.5015  -25.1563  -44.5784 O.2       10 UNK        -0.5000 
     22 CA          0.9198  -23.3075  -43.1089 C.3       10 UNK         0.1400 
     23 CB          2.4016  -22.9581  -42.9066 C.3       10 UNK        -0.1800 
     24 N           0.0907  -22.1198  -42.8946 N.am      10 UNK        -0.5000 
     25 C          -1.2495  -22.1409  -42.8427 C.2       9 UNK         0.5000 
     26 O          -1.9193  -23.1709  -42.9212 O.2       9 UNK        -0.5000 
     27 CA         -1.9680  -20.7865  -42.7199 C.3       9 UNK         0.1400 
     28 CB         -1.9929  -20.3231  -41.2561 C.3       9 UNK        -0.1800 
     29 N          -1.3749  -19.7479  -43.5640 N.am      9 UNK        -0.5000 
     30 C          -1.3531  -19.7788  -44.9051 C.2       8 UNK         0.5000 
     31 O          -1.8665  -20.6732  -45.5752 O.2       8 UNK        -0.5000 
     32 CA         -0.5780  -18.6592  -45.6219 C.3       8 UNK         0.1400 
     33 CB         -1.4125  -17.3732  -45.7187 C.3       8 UNK        -0.1800 
     34 N           0.7038  -18.3672  -44.9852 N.am      8 UNK        -0.5000 
     35 C           1.7051  -19.2473  -44.8527 C.2       7 UNK         0.5000 
     36 O           1.6589  -20.4063  -45.2627 O.2       7 UNK        -0.5000 
     37 CA          2.9422  -18.7682  -44.0779 C.3       7 UNK         0.1400 
     38 CB          3.8482  -17.8952  -44.9567 C.3       7 UNK        -0.1800 
     39 N           2.5721  -18.0259  -42.8751 N.am      7 UNK        -0.5000 
     40 C           2.0512  -18.5827  -41.7747 C.2       6 UNK         0.5000 
     41 O           1.8474  -19.7905  -41.6462 O.2       6 UNK        -0.5000 
     42 CA          1.6661  -17.6160  -40.6398 C.3       6 UNK         0.1400 
     43 CB          2.9028  -17.2172  -39.8204 C.3       6 UNK        -0.1800 
     44 N           0.9903  -16.4082  -41.1212 N.am      6 UNK        -0.5000 
     45 C          -0.2156  -16.4109  -41.7040 C.2       5 UNK         0.5000 
     46 O          -0.8638  -17.4311  -41.9296 O.2       5 UNK        -0.5000 
     47 CA         -0.7943  -15.0513  -42.1291 C.3       5 UNK         0.1400 
     48 CB         -1.3635  -14.3034  -40.9137 C.3       5 UNK        -0.1800 
     49 N           0.1132  -14.1637  -42.8621 N.am      5 UNK        -0.5000 
     50 C           0.8612  -14.4919  -43.9239 C.2       4 UNK         0.5000 
     51 O           1.0882  -15.6463  -44.2891 O.2       4 UNK        -0.5000 
     52 CA          1.3546  -13.3194  -44.7909 C.3       4 UNK         0.1400 
     53 CB          2.8311  -13.4879  -45.1836 C.3       4 UNK        -0.1800 
     54 N           0.5222  -13.2529  -45.9948 N.am      4 UNK        -0.5000 
     55 C          -0.7657  -12.8799  -45.9892 C.2       3 UNK         0.5000 
     56 O          -1.3063  -12.3300  -45.0267 O.2       3 UNK        -0.5000 
     57 CA         -1.5864  -13.2207  -47.2490 C.3       3 UNK         0.1400 
     58 CB         -3.0972  -12.9677  -47.0646 C.3       3 UNK        -0.1800 
     59 N          -1.1116  -12.5674  -48.4686 N.am      3 UNK        -0.5000 
     60 C          -0.9733  -11.2562  -48.7116 C.2       2 UNK         0.5000 
     61 O          -1.1480  -10.3711  -47.8721 O.2       2 UNK        -0.5000 
     62 CA         -0.6005  -10.8927  -50.1663 C.3       2 UNK         0.1400 
     63 CB         -0.2914   -9.3942  -50.3704 C.3       2 UNK        -0.1800 
     64 N           0.4778  -11.7373  -50.6886 N.am      2 UNK        -0.5000 
     65 C           1.7364  -11.8171  -50.2374 C.2       1 UNK         0.5000 
     66 O           2.2091  -11.0725  -49.3772 O.2       1 UNK        -0.5000 
     67 C          -1.1725  -24.0425  -46.9945 C.2       11 UNK         0.5000 
     68 O          -1.3897  -25.0305  -47.6933 O.2       11 UNK        -0.5000 
     69 N          -2.1292  -23.4132  -46.2989 N.am      12 UNK        -0.5000 
     70 CA         -3.5233  -23.8565  -46.2376 C.3       12 UNK         0.1400 
     71 CB         -4.3861  -22.7924  -45.5449 C.3       12 UNK        -0.1800 
     72 C          -3.6759  -25.2264  -45.5540 C.2       12 UNK         0.5000 
     73 O          -4.4018  -26.0774  -46.0679 O.2       12 UNK        -0.5000 
     74 N          -2.9480  -25.4370  -44.4479 N.am      13 UNK        -0.5000 
     75 CA         -2.8741  -26.7115  -43.7287 C.3       13 UNK         0.1400 
     76 CB         -2.1154  -26.5102  -42.4083 C.3       13 UNK        -0.1800 
     77 C          -2.2306  -27.8362  -44.5638 C.2       13 UNK         0.5000 
     78 O          -2.6801  -28.9804  -44.4926 O.2       13 UNK        -0.5000 
     79 N          -1.2152  -27.4844  -45.3639 N.am      14 UNK        -0.5000 
     80 CA         -0.5427  -28.3774  -46.3105 C.3       14 UNK         0.1400 
     81 CB          0.8276  -27.7752  -46.6614 C.3       14 UNK        -0.1800 
     82 C          -1.3516  -28.6426  -47.5987 C.2       14 UNK         0.5000 
     83 O          -0.9737  -29.5293  -48.3654 O.2       14 UNK        -0.5000 
     84 N          -2.4176  -27.8598  -47.8292 N.am      15 UNK        -0.5000 
     85 CA         -3.2450  -27.8012  -49.0411 C.3       15 UNK         0.1400 
     86 CB         -4.0075  -29.1242  -49.2613 C.3       15 UNK        -0.1800 
     87 C          -2.4519  -27.3380  -50.2849 C.2       15 UNK         0.5000 
     88 O          -2.7400  -27.7656  -51.4041 O.2       15 UNK        -0.5000 
     89 N          -1.4631  -26.4664  -50.0554 N.am      16 UNK        -0.5000 
     90 CA         -0.5669  -25.8929  -51.0569 C.3       16 UNK         0.1400 
     91 CB          0.8582  -25.8942  -50.4791 C.3       16 UNK        -0.1800 
     92 C          -0.9728  -24.4613  -51.4546 C.2       16 UNK         0.5000 
     93 O          -0.4789  -23.9587  -52.4648 O.2       16 UNK        -0.5000 
     94 N          -1.8363  -23.8166  -50.6564 N.am      17 UNK        -0.5000 
     95 CA         -2.3387  -22.4643  -50.8998 C.3       17 UNK         0.1400 
     96 CB         -3.0169  -21.9347  -49.6251 C.3       17 UNK        -0.1800 
     97 C          -3.3122  -22.4007  -52.0900 C.2       17 UNK         0.5000 
     98 O          -4.0061  -23.3791  -52.3799 O.2       17 UNK        -0.5000 
     99 N          -3.3651  -21.2279  -52.7307 N.am      18 UNK        -0.5000 
    100 CA        -4.3312  -20.8936  -53.7746 C.3       18 UNK         0.1400 
    101 CB        -3.7813  -19.7086  -54.5863 C.3       18 UNK        -0.1800 
    102 C         -5.7059  -20.5467  -53.1709 C.2       18 UNK         0.5000 
    103 O         -5.8242  -20.3467  -51.9582 O.2       18 UNK        -0.5000 
    104 N         -6.7212  -20.4345  -54.0365 N.am      19 UNK        -0.5000 
    105 CA        -8.0924  -20.0419  -53.6975 C.3       19 UNK         0.1400 
    106 CB        -9.0262  -20.4780  -54.8409 C.3       19 UNK        -0.1800 
    107 C         -8.1969  -18.5317  -53.3889 C.2       19 UNK         0.5000 
    108 O         -8.8070  -17.7811  -54.1510 O.2       19 UNK        -0.5000 
    109 N         -7.5403  -18.1153  -52.2977 N.am      20 UNK        -0.5000 
    110 CA        -7.4099  -16.7597  -51.7447 C.3       20 UNK         0.1400 
    111 CB        -8.7893  -16.1477  -51.4294 C.3       20 UNK        -0.1800 
    112 C         -6.5382  -15.7938  -52.5758 C.2       20 UNK         0.5000 
    113 O         -6.2278  -14.7047  -52.0909 O.2       20 UNK        -0.5000 
    114 N         -6.1175  -16.2013  -53.7818 N.am      21 UNK        -0.5000 
    115 CA        -5.3125  -15.4097  -54.7182 C.3       21 UNK         0.1400 
    116 CB        -5.1956  -16.1741  -56.0454 C.3       21 UNK        -0.1800 
    117 C         -3.9156  -15.0327  -54.1853 C.2       21 UNK         0.5000 
    118 O         -3.3710  -14.0057  -54.5914 O.2       21 UNK        -0.5000 
    119 N         -3.3795  -15.8542  -53.2749 N.am      22 UNK        -0.5000 
    120 CA        -2.1461  -15.5927  -52.5199 C.3       22 UNK         0.1400 
    121 C         -2.3346  -14.6778  -51.2733 C.2       22 UNK         0.5000 
    122 N         -3.5328  -14.2002  -50.9557 N.am      22 UNK        -0.7600 
    123 O         -1.3688  -14.3847  -50.5763 O.2       22 UNK        -0.5000 
    124 C124       -1.3928  -16.9054  -52.1828 C.3       23 UNK        -0.0398 
    125 S125       -2.3837  -18.1471  -51.2706 S.3       23 UNK        -0.2404 
    126 C126       -1.8108  -17.9235  -49.5534 C.3       23 UNK        -0.0205 
    127 H127        2.1872  -13.7416  -55.2604 H         1 UNK         0.0600 
    128 H128        3.3272  -12.4865  -54.7663 H         1 UNK         0.0600 
    129 H129        1.6591  -12.0588  -55.1585 H         1 UNK         0.0600 
    130 H130        3.6884  -12.4663  -52.5922 H         1 UNK         0.3000 
    131 H131        3.6291  -12.7574  -50.4494 H         1 UNK         0.0600 
    132 H132        1.1914  -14.5882  -50.7134 H         1 UNK         0.0800 
    133 H133        2.8500  -15.0867  -50.8583 H         1 UNK         0.0800 
    134 H134        3.1473  -16.4442  -47.3829 H         1 UNK         0.0800 
    135 H135        3.8206  -16.3632  -48.9896 H         1 UNK         0.0800 
    136 H136        0.1134  -16.1674  -48.8098 H         1 UNK         0.1150 
    137 H137       -0.4473  -20.2492  -49.9285 H         1 UNK         0.1150 
    138 H138        3.4782  -18.8307  -48.9798 H         1 UNK         0.1150 
    139 H139        3.1550  -20.9769  -50.1740 H         1 UNK         0.0800 
    140 H140        1.5585  -21.6001  -50.4947 H         1 UNK         0.0800 
    141 H141        0.0086  -21.4567  -47.5937 H         1 UNK         0.0800 
    142 H142        0.0463  -22.6391  -48.8855 H         1 UNK         0.0800 
    143 H143        0.9243  -24.3372  -47.1645 H         1 UNK         0.0600 
    144 H144        0.8297  -22.1189  -45.3911 H         1 UNK         0.3000 
    145 H145        0.6428  -24.0466  -42.3543 H         1 UNK         0.0600 
    146 H146        3.0303  -23.8402  -43.0339 H         1 UNK         0.0600 
    147 H147        2.5813  -22.5724  -41.9029 H         1 UNK         0.0600 
    148 H148        2.7433  -22.2069  -43.6184 H         1 UNK         0.0600 
    149 H149        0.5742  -21.2345  -42.8044 H         1 UNK         0.3000 
    150 H150       -3.0003  -20.9287  -43.0453 H         1 UNK         0.0600 
    151 H151       -0.9902  -20.1044  -40.8863 H         1 UNK         0.0600 
    152 H152       -2.4233  -21.0889  -40.6096 H         1 UNK         0.0600 
    153 H153       -2.5971  -19.4235  -41.1388 H         1 UNK         0.0600 
    154 H154       -0.9676  -18.9519  -43.0799 H         1 UNK         0.3000 
    155 H155       -0.3660  -19.0047  -46.6352 H         1 UNK         0.0600 
    156 H156       -2.3607  -17.5598  -46.2242 H         1 UNK         0.0600 
    157 H157       -0.8854  -16.6060  -46.2862 H         1 UNK         0.0600 
    158 H158       -1.6366  -16.9644  -44.7331 H         1 UNK         0.0600 
    159 H159        0.8341  -17.4209  -44.6327 H         1 UNK         0.3000 
    160 H160        3.5099  -19.6527  -43.7809 H         1 UNK         0.0600 
    161 H161        4.8001  -17.6984  -44.4635 H         1 UNK         0.0600 
    162 H162        3.3831  -16.9343  -45.1747 H         1 UNK         0.0600 
    163 H163        4.0671  -18.3853  -45.9065 H         1 UNK         0.0600 
    164 H164        2.6253  -17.0186  -42.9286 H         1 UNK         0.3000 
    165 H165        0.9772  -18.1448  -39.9774 H         1 UNK         0.0600 
    166 H166        2.6259  -16.6062  -38.9611 H         1 UNK         0.0600 
    167 H167        3.4181  -18.0993  -39.4380 H         1 UNK         0.0600 
    168 H168        3.6189  -16.6518  -40.4181 H         1 UNK         0.0600 
    169 H169        1.4652  -15.5271  -40.9906 H         1 UNK         0.3000 
    170 H170       -1.6260  -15.2625  -42.8042 H         1 UNK         0.0600 
    171 H171       -0.5753  -13.9914  -40.2275 H         1 UNK         0.0600 
    172 H172       -2.0562  -14.9337  -40.3542 H         1 UNK         0.0600 
    173 H173       -1.9136  -13.4134  -41.2202 H         1 UNK         0.0600 
    174 H174       -0.0179  -13.1789  -42.6801 H         1 UNK         0.3000 
    175 H175        1.2552  -12.3838  -44.2364 H         1 UNK         0.0600 
    176 H176        3.4701  -13.4735  -44.3002 H         1 UNK         0.0600 
    177 H177        3.0121  -14.4311  -45.6991 H         1 UNK         0.0600 
    178 H178        3.1599  -12.6806  -45.8384 H         1 UNK         0.0600 
    179 H179        0.9016  -13.6928  -46.8229 H         1 UNK         0.3000 
    180 H180       -1.4587  -14.2918  -47.4140 H         1 UNK         0.0600 
    181 H181       -3.4811  -13.5097  -46.1994 H         1 UNK         0.0600 
    182 H182       -3.6625  -13.3060  -47.9324 H         1 UNK         0.0600 
    183 H183       -3.3160  -11.9102  -46.9126 H         1 UNK         0.0600 
    184 H184       -0.9684  -13.2009  -49.2543 H         1 UNK         0.3000 
    185 H185       -1.4797  -11.1267  -50.7685 H         1 UNK         0.0600 
    186 H186       -1.1572   -8.7818  -50.1161 H         1 UNK         0.0600 
    187 H187        0.5374   -9.0582  -49.7471 H         1 UNK         0.0600 
    188 H188       -0.0383   -9.1821  -51.4091 H         1 UNK         0.0600 
    189 H189        0.2116  -12.4010  -51.4120 H         1 UNK         0.3000 
    190 H190       -1.9035  -22.5528  -45.8061 H         1 UNK         0.3000 
    191 H191       -3.8830  -23.9616  -47.2629 H         1 UNK         0.0600 
    192 H192       -4.3425  -21.8428  -46.0786 H         1 UNK         0.0600 
    193 H193       -5.4322  -23.0989  -45.5121 H         1 UNK         0.0600 
    194 H194       -4.0636  -22.6158  -44.5192 H         1 UNK         0.0600 
    195 H195       -2.4100  -24.6653  -44.0624 H         1 UNK         0.3000 
    196 H196       -3.8943  -27.0191  -43.4906 H         1 UNK         0.0600 
    197 H197       -2.0645  -27.4400  -41.8405 H         1 UNK         0.0600 
    198 H198       -2.6105  -25.7707  -41.7788 H         1 UNK         0.0600 
    199 H199       -1.0930  -26.1719  -42.5785 H         1 UNK         0.0600 
    200 H200       -0.8600  -26.5356  -45.3071 H         1 UNK         0.3000 
    201 H201       -0.3774  -29.3404  -45.8232 H         1 UNK         0.0600 
    202 H202        1.3890  -28.4344  -47.3246 H         1 UNK         0.0600 
    203 H203        1.4327  -27.6223  -45.7676 H         1 UNK         0.0600 
    204 H204        0.7258  -26.8139  -47.1654 H         1 UNK         0.0600 
    205 H205       -2.6290  -27.1551  -47.1346 H         1 UNK         0.3000 
    206 H206       -3.9880  -27.0244  -48.8554 H         1 UNK         0.0600 
    207 H207       -4.5522  -29.4181  -48.3641 H         1 UNK         0.0600 
    208 H208       -4.7378  -29.0242  -50.0650 H         1 UNK         0.0600 
    209 H209       -3.3373  -29.9408  -49.5307 H         1 UNK         0.0600 
    210 H210       -1.3371  -26.1317  -49.1015 H         1 UNK         0.3000 
    211 H211       -0.5732  -26.5046  -51.9613 H         1 UNK         0.0600 
    212 H212        0.9304  -25.2768  -49.5829 H         1 UNK         0.0600 
    213 H213        1.5759  -25.5070  -51.2034 H         1 UNK         0.0600 
    214 H214        1.1748  -26.9036  -50.2153 H         1 UNK         0.0600 
    215 H215       -2.2175  -24.3130  -49.8645 H         1 UNK         0.3000 
    216 H216       -1.4841  -21.8273  -51.1323 H         1 UNK         0.0600 
    217 H217       -3.4185  -20.9326  -49.7826 H         1 UNK         0.0600 
    218 H218       -2.3171  -21.8683  -48.7938 H         1 UNK         0.0600 
    219 H219       -3.8473  -22.5715  -49.3190 H         1 UNK         0.0600 
    220 H220       -2.8115  -20.4574  -52.3831 H         1 UNK         0.3000 
    221 H221       -4.4496  -21.7519  -54.4393 H         1 UNK         0.0600 
    222 H222       -3.7168  -18.8010  -53.9858 H         1 UNK         0.0600 
    223 H223       -2.7854  -19.9236  -54.9741 H         1 UNK         0.0600 
    224 H224       -4.4183  -19.4916  -55.4441 H         1 UNK         0.0600 
    225 H225       -6.5398  -20.5907  -55.0177 H         1 UNK         0.3000 
    226 H226       -8.3985  -20.5798  -52.7976 H         1 UNK         0.0600 
    227 H227       -8.9875  -21.5571  -54.9911 H         1 UNK         0.0600 
    228 H228       -8.7623  -19.9985  -55.7844 H         1 UNK         0.0600 
    229 H229      -10.0626  -20.2200  -54.6191 H         1 UNK         0.0600 
    230 H230       -6.9983  -18.8275  -51.8137 H         1 UNK         0.3000 
    231 H231       -6.8861  -16.8847  -50.7958 H         1 UNK         0.0600 
    232 H232       -9.3563  -15.9303  -52.3347 H         1 UNK         0.0600 
    233 H233       -8.6831  -15.2100  -50.8824 H         1 UNK         0.0600 
    234 H234       -9.3863  -16.8171  -50.8102 H         1 UNK         0.0600 
    235 H235       -6.4472  -17.0957  -54.1124 H         1 UNK         0.3000 
    236 H236       -5.8504  -14.4784  -54.9070 H         1 UNK         0.0600 
    237 H237       -4.6644  -17.1175  -55.9209 H         1 UNK         0.0600 
    238 H238       -6.1781  -16.3927  -56.4645 H         1 UNK         0.0600 
    239 H239       -4.6507  -15.5876  -56.7863 H         1 UNK         0.0600 
    240 H240       -3.9066  -16.6635  -52.9836 H         1 UNK         0.3000 
    241 H241       -1.4804  -15.0250  -53.1721 H         1 UNK         0.0600 
    242 H242       -4.3564  -14.4161  -51.5066 H         1 UNK         0.3800 
    243 H243       -3.6256  -13.6091  -50.1479 H         1 UNK         0.3800 
    244 H244       -0.4652  -16.6887  -51.6521 H         1 UNK         0.0800 
    245 H245       -1.0772  -17.3757  -53.1147 H         1 UNK         0.0800 
    246 H246       -2.0722  -16.9186  -49.2182 H         1 UNK         0.0800 
    247 H247       -2.3573  -18.6117  -48.9071 H         1 UNK         0.0800 
@<TRIPOS>BOND
     1    1    2 1    
     2    1  127 1    
     3    1  128 1    
     4    1  129 1    
     5    2    3 2    
     6    2    4 am   BACKBONE|DICT|INTERRES
     7    4    5 1    
     8    4  130 1    
     9    5    6 1    
    10    5   65 1    
    11    5  131 1    
    12    6    7 1    
    13    6  132 1    
    14    6  133 1    
    15    7    8 1    
    16    8    9 1    
    17    8  134 1    
    18    8  135 1    
    19    9   10 ar   
    20    9   14 ar   
    21   10   11 ar   
    22   10  136 1    
    23   11   12 ar   
    24   11  126 1    
    25   12   13 ar   
    26   12  137 1    
    27   13   14 ar   
    28   13   15 1    
    29   14  138 1    
    30   15   16 1    
    31   15  139 1    
    32   15  140 1    
    33   16   17 1    
    34   17   18 1    
    35   17  141 1    
    36   17  142 1    
    37   18   19 1    
    38   18   67 1    
    39   18  143 1    
    40   19   20 am   BACKBONE|DICT|INTERRES
    41   19  144 1    
    42   20   21 2    
    43   20   22 1    
    44   22   23 1    
    45   22   24 1    
    46   22  145 1    
    47   23  146 1    
    48   23  147 1    
    49   23  148 1    
    50   24   25 am   BACKBONE|DICT|INTERRES
    51   24  149 1    
    52   25   26 2    
    53   25   27 1    
    54   27   28 1    
    55   27   29 1    
    56   27  150 1    
    57   28  151 1    
    58   28  152 1    
    59   28  153 1    
    60   29   30 am   BACKBONE|DICT|INTERRES
    61   29  154 1    
    62   30   31 2    
    63   30   32 1    
    64   32   33 1    
    65   32   34 1    
    66   32  155 1    
    67   33  156 1    
    68   33  157 1    
    69   33  158 1    
    70   34   35 am   BACKBONE|DICT|INTERRES
    71   34  159 1    
    72   35   36 2    
    73   35   37 1    
    74   37   38 1    
    75   37   39 1    
    76   37  160 1    
    77   38  161 1    
    78   38  162 1    
    79   38  163 1    
    80   39   40 am   BACKBONE|DICT|INTERRES
    81   39  164 1    
    82   40   41 2    
    83   40   42 1    
    84   42   43 1    
    85   42   44 1    
    86   42  165 1    
    87   43  166 1    
    88   43  167 1    
    89   43  168 1    
    90   44   45 am   BACKBONE|DICT|INTERRES
    91   44  169 1    
    92   45   46 2    
    93   45   47 1    
    94   47   48 1    
    95   47   49 1    
    96   47  170 1    
    97   48  171 1    
    98   48  172 1    
    99   48  173 1    
   100   49   50 am   BACKBONE|DICT|INTERRES
   101   49  174 1    
   102   50   51 2    
   103   50   52 1    
   104   52   53 1    
   105   52   54 1    
   106   52  175 1    
   107   53  176 1    
   108   53  177 1    
   109   53  178 1    
   110   54   55 am   BACKBONE|DICT|INTERRES
   111   54  179 1    
   112   55   56 2    
   113   55   57 1    
   114   57   58 1    
   115   57   59 1    
   116   57  180 1    
   117   58  181 1    
   118   58  182 1    
   119   58  183 1    
   120   59   60 am   BACKBONE|DICT|INTERRES
   121   59  184 1    
   122   60   61 2    
   123   60   62 1    
   124   62   63 1    
   125   62   64 1    
   126   62  185 1    
   127   63  186 1    
   128   63  187 1    
   129   63  188 1    
   130   64   65 am   BACKBONE|DICT|INTERRES
   131   64  189 1    
   132   65   66 2    
   133   67   68 2    
   134   67   69 am   BACKBONE|DICT|INTERRES
   135   69   70 1    
   136   69  190 1    
   137   70   71 1    
   138   70   72 1    
   139   70  191 1    
   140   71  192 1    
   141   71  193 1    
   142   71  194 1    
   143   72   73 2    
   144   72   74 am   BACKBONE|DICT|INTERRES
   145   74   75 1    
   146   74  195 1    
   147   75   76 1    
   148   75   77 1    
   149   75  196 1    
   150   76  197 1    
   151   76  198 1    
   152   76  199 1    
   153   77   78 2    
   154   77   79 am   BACKBONE|DICT|INTERRES
   155   79   80 1    
   156   79  200 1    
   157   80   81 1    
   158   80   82 1    
   159   80  201 1    
   160   81  202 1    
   161   81  203 1    
   162   81  204 1    
   163   82   83 2    
   164   82   84 am   BACKBONE|DICT|INTERRES
   165   84   85 1    
   166   84  205 1    
   167   85   86 1    
   168   85   87 1    
   169   85  206 1    
   170   86  207 1    
   171   86  208 1    
   172   86  209 1    
   173   87   88 2    
   174   87   89 am   BACKBONE|DICT|INTERRES
   175   89   90 1    
   176   89  210 1    
   177   90   91 1    
   178   90   92 1    
   179   90  211 1    
   180   91  212 1    
   181   91  213 1    
   182   91  214 1    
   183   92   93 2    
   184   92   94 am   BACKBONE|DICT|INTERRES
   185   94   95 1    
   186   94  215 1    
   187   95   96 1    
   188   95   97 1    
   189   95  216 1    
   190   96  217 1    
   191   96  218 1    
   192   96  219 1    
   193   97   98 2    
   194   97   99 am   BACKBONE|DICT|INTERRES
   195   99  100 1    
   196   99  220 1    
   197  100  101 1    
   198  100  102 1    
   199  100  221 1    
   200  101  222 1    
   201  101  223 1    
   202  101  224 1    
   203  102  103 2    
   204  102  104 am   BACKBONE|DICT|INTERRES
   205  104  105 1    
   206  104  225 1    
   207  105  106 1    
   208  105  107 1    
   209  105  226 1    
   210  106  227 1    
   211  106  228 1    
   212  106  229 1    
   213  107  108 2    
   214  107  109 am   BACKBONE|DICT|INTERRES
   215  109  110 1    
   216  109  230 1    
   217  110  111 1    
   218  110  112 1    
   219  110  231 1    
   220  111  232 1    
   221  111  233 1    
   222  111  234 1    
   223  112  113 2    
   224  112  114 am   BACKBONE|DICT|INTERRES
   225  114  115 1    
   226  114  235 1    
   227  115  116 1    
   228  115  117 1    
   229  115  236 1    
   230  116  237 1    
   231  116  238 1    
   232  116  239 1    
   233  117  118 2    
   234  117  119 am   BACKBONE|DICT|INTERRES
   235  119  120 1    
   236  119  240 1    
   237  120  121 1    
   238  120  124 1    
   239  120  241 1    
   240  121  122 am   BACKBONE|DICT|INTERRES
   241  121  123 2    
   242  122  242 1    
   243  122  243 1    
   244  124  125 1    
   245  124  244 1    
   246  124  245 1    
   247  125  126 1    
   248  126  246 1    
   249  126  247 1    
@<TRIPOS>SUBSTRUCTURE
     1 UNK         1 GROUP             0       ****    0 ROOT    
