@<TRIPOS>MOLECULE
3R540
247   249    1
SMALL
USER_CHARGES


@<TRIPOS>ATOM
      1 CA          1.6463  -10.5753  -50.7140 C.3       0 UNK        -0.1800 
      2 C           2.4391  -10.9185  -49.4608 C.2       0 UNK         0.5000 
      3 O           3.5797  -10.4779  -49.3177 O.2       0 UNK        -0.5000 
      4 N           1.8393  -11.7035  -48.5567 N.am      1 UNK        -0.5000 
      5 CA          2.4399  -12.1298  -47.2859 C.3       1 UNK         0.1400 
      6 C6          1.6716  -13.3130  -46.6507 C.3       23 UNK        -0.0398 
      7 S7          1.8380  -14.8522  -47.6104 S.3       23 UNK        -0.2404 
      8 C8          0.2444  -14.9010  -48.5022 C.3       23 UNK        -0.0205 
      9 C9         -0.0054  -16.1456  -49.3561 C.ar      23 UNK        -0.0193 
     10 C10        -1.2239  -16.2405  -50.0365 C.ar      23 UNK        -0.1150 
     11 C11        -1.5171  -17.3476  -50.8383 C.ar      23 UNK        -0.0193 
     12 C12        -0.5761  -18.3709  -50.9638 C.ar      23 UNK        -0.1150 
     13 C13         0.6351  -18.3070  -50.2706 C.ar      23 UNK        -0.0193 
     14 C14         0.9198  -17.1915  -49.4800 C.ar      23 UNK        -0.1150 
     15 C15         1.6176  -19.4665  -50.3361 C.3       23 UNK        -0.0205 
     16 S16         1.6257  -20.4365  -48.7911 S.3       23 UNK        -0.2404 
     17 C17        -0.1583  -20.6922  -48.5019 C.3       23 UNK        -0.0398 
     18 CA         -0.4505  -21.9479  -47.6562 C.3       11 UNK         0.1400 
     19 N           0.0152  -21.8240  -46.2721 N.am      11 UNK        -0.5000 
     20 C           0.0379  -22.8363  -45.3938 C.2       10 UNK         0.5000 
     21 O          -0.2782  -23.9918  -45.6760 O.2       10 UNK        -0.5000 
     22 CA          0.4237  -22.4950  -43.9440 C.3       10 UNK         0.1400 
     23 CB          1.9470  -22.3708  -43.7934 C.3       10 UNK        -0.1800 
     24 N          -0.2324  -21.2789  -43.4601 N.am      10 UNK        -0.5000 
     25 C          -1.5596  -21.1433  -43.3228 C.2       9 UNK         0.5000 
     26 O          -2.3637  -22.0466  -43.5495 O.2       9 UNK        -0.5000 
     27 CA         -2.0882  -19.7629  -42.8963 C.3       9 UNK         0.1400 
     28 CB         -1.9907  -19.5925  -41.3733 C.3       9 UNK        -0.1800 
     29 N          -1.4038  -18.6558  -43.5629 N.am      9 UNK        -0.5000 
     30 C          -1.4130  -18.4303  -44.8851 C.2       8 UNK         0.5000 
     31 O          -2.0297  -19.1223  -45.6950 O.2       8 UNK        -0.5000 
     32 CA         -0.5345  -17.2695  -45.3897 C.3       8 UNK         0.1400 
     33 CB         -1.2010  -15.9131  -45.1120 C.3       8 UNK        -0.1800 
     34 N           0.8004  -17.2900  -44.7915 N.am      8 UNK        -0.5000 
     35 C           1.6722  -18.3007  -44.9212 C.2       7 UNK         0.5000 
     36 O           1.4617  -19.3105  -45.5920 O.2       7 UNK        -0.5000 
     37 CA          2.9668  -18.1936  -44.1015 C.3       7 UNK         0.1400 
     38 CB          3.9892  -17.2839  -44.8008 C.3       7 UNK        -0.1800 
     39 N           2.6981  -17.7069  -42.7470 N.am      7 UNK        -0.5000 
     40 C           2.0838  -18.4325  -41.8000 C.2       6 UNK         0.5000 
     41 O           1.7223  -19.5972  -41.9630 O.2       6 UNK        -0.5000 
     42 CA          1.7901  -17.7356  -40.4577 C.3       6 UNK         0.1400 
     43 CB          3.0027  -17.8363  -39.5206 C.3       6 UNK        -0.1800 
     44 N           1.4154  -16.3304  -40.6138 N.am      6 UNK        -0.5000 
     45 C           0.3026  -15.9018  -41.2262 C.2       5 UNK         0.5000 
     46 O          -0.5598  -16.6539  -41.6765 O.2       5 UNK        -0.5000 
     47 CA          0.1536  -14.3799  -41.4151 C.3       5 UNK         0.1400 
     48 CB         -0.6196  -13.7616  -40.2417 C.3       5 UNK        -0.1800 
     49 N           1.4319  -13.6810  -41.5713 N.am      5 UNK        -0.5000 
     50 C           2.3279  -13.9114  -42.5385 C.2       4 UNK         0.5000 
     51 O           2.1664  -14.7645  -43.4131 O.2       4 UNK        -0.5000 
     52 CA          3.6138  -13.0597  -42.4982 C.3       4 UNK         0.1400 
     53 CB          4.6200  -13.4521  -43.5952 C.3       4 UNK        -0.1800 
     54 N           3.3305  -11.6234  -42.5820 N.am      4 UNK        -0.5000 
     55 C           2.9017  -10.8640  -41.5615 C.2       3 UNK         0.5000 
     56 O           2.6777  -11.3166  -40.4372 O.2       3 UNK        -0.5000 
     57 CA          2.6810   -9.3584  -41.8128 C.3       3 UNK         0.1400 
     58 CB          3.8518   -8.5447  -41.2401 C.3       3 UNK        -0.1800 
     59 N           2.5123   -9.0085  -43.2225 N.am      3 UNK        -0.5000 
     60 C           1.4233   -9.2689  -43.9568 C.2       2 UNK         0.5000 
     61 O           0.4188   -9.8286  -43.5151 O.2       2 UNK        -0.5000 
     62 CA          1.4650   -8.8607  -45.4454 C.3       2 UNK         0.1400 
     63 CB          2.5525   -7.8157  -45.7834 C.3       2 UNK        -0.1800 
     64 N           1.5934  -10.0293  -46.3208 N.am      2 UNK        -0.5000 
     65 C           2.5514  -10.9692  -46.2758 C.2       1 UNK         0.5000 
     66 O           3.4929  -10.9516  -45.4816 O.2       1 UNK        -0.5000 
     67 C          -1.9484  -22.3032  -47.7259 C.2       11 UNK         0.5000 
     68 O          -2.3167  -23.1818  -48.5053 O.2       11 UNK        -0.5000 
     69 N          -2.7796  -21.6492  -46.9005 N.am      12 UNK        -0.5000 
     70 CA         -4.2130  -21.9241  -46.7821 C.3       12 UNK         0.1400 
     71 CB         -4.8705  -20.9067  -45.8385 C.3       12 UNK        -0.1800 
     72 C          -4.5011  -23.3683  -46.3344 C.2       12 UNK         0.5000 
     73 O          -5.3157  -24.0434  -46.9659 O.2       12 UNK        -0.5000 
     74 N          -3.7830  -23.8272  -45.2981 N.am      13 UNK        -0.5000 
     75 CA         -3.8244  -25.1964  -44.7800 C.3       13 UNK         0.1400 
     76 CB         -2.9740  -25.2901  -43.5046 C.3       13 UNK        -0.1800 
     77 C          -3.3753  -26.2480  -45.8114 C.2       13 UNK         0.5000 
     78 O          -3.9642  -27.3275  -45.8708 O.2       13 UNK        -0.5000 
     79 N          -2.3943  -25.8966  -46.6533 N.am      14 UNK        -0.5000 
     80 CA         -1.9186  -26.6791  -47.7974 C.3       14 UNK         0.1400 
     81 CB         -0.4770  -26.2514  -48.1272 C.3       14 UNK        -0.1800 
     82 C          -2.8555  -26.5812  -49.0247 C.2       14 UNK         0.5000 
     83 O          -2.3775  -26.4743  -50.1555 O.2       14 UNK        -0.5000 
     84 N          -4.1740  -26.6179  -48.7823 N.am      15 UNK        -0.5000 
     85 CA         -5.2712  -26.5798  -49.7535 C.3       15 UNK         0.1400 
     86 CB         -5.3361  -27.9121  -50.5292 C.3       15 UNK        -0.1800 
     87 C          -5.2177  -25.3504  -50.6832 C.2       15 UNK         0.5000 
     88 O          -5.3733  -25.4936  -51.8964 O.2       15 UNK        -0.5000 
     89 N          -4.9658  -24.1696  -50.0982 N.am      16 UNK        -0.5000 
     90 CA         -4.7732  -22.8835  -50.7818 C.3       16 UNK         0.1400 
     91 CB         -6.0987  -22.3933  -51.3990 C.3       16 UNK        -0.1800 
     92 C          -3.6142  -22.9417  -51.7986 C.2       16 UNK         0.5000 
     93 O          -3.8023  -22.6411  -52.9794 O.2       16 UNK        -0.5000 
     94 N          -2.4493  -23.3826  -51.3043 N.am      17 UNK        -0.5000 
     95 CA         -1.2012  -23.6335  -52.0285 C.3       17 UNK         0.1400 
     96 CB         -0.5505  -22.3017  -52.4497 C.3       17 UNK        -0.1800 
     97 C          -1.3843  -24.6287  -53.1930 C.2       17 UNK         0.5000 
     98 O          -0.9632  -24.3553  -54.3180 O.2       17 UNK        -0.5000 
     99 N          -2.0329  -25.7618  -52.8856 N.am      18 UNK        -0.5000 
    100 CA        -2.4276  -26.8386  -53.7983 C.3       18 UNK         0.1400 
    101 CB        -1.1873  -27.6007  -54.3094 C.3       18 UNK        -0.1800 
    102 C         -3.3501  -26.3399  -54.9310 C.2       18 UNK         0.5000 
    103 O         -3.1008  -26.6192  -56.1056 O.2       18 UNK        -0.5000 
    104 N         -4.3984  -25.6020  -54.5384 N.am      19 UNK        -0.5000 
    105 CA        -5.4127  -24.9636  -55.3788 C.3       19 UNK         0.1400 
    106 CB        -6.3155  -26.0242  -56.0418 C.3       19 UNK        -0.1800 
    107 C         -4.8091  -23.9598  -56.3826 C.2       19 UNK         0.5000 
    108 O         -5.0829  -24.0370  -57.5822 O.2       19 UNK        -0.5000 
    109 N         -3.9917  -23.0341  -55.8645 N.am      20 UNK        -0.5000 
    110 CA        -3.3570  -21.9561  -56.6242 C.3       20 UNK         0.1400 
    111 CB        -2.3224  -21.2239  -55.7547 C.3       20 UNK        -0.1800 
    112 C         -4.3294  -20.9596  -57.3015 C.2       20 UNK         0.5000 
    113 O         -4.1043  -20.6422  -58.4687 O.2       20 UNK        -0.5000 
    114 N         -5.3939  -20.4555  -56.6576 N.am      21 UNK        -0.5000 
    115 CA        -5.7757  -20.5571  -55.2498 C.3       21 UNK         0.1400 
    116 CB        -7.1210  -21.2976  -55.1535 C.3       21 UNK        -0.1800 
    117 C         -5.9040  -19.1471  -54.6550 C.2       21 UNK         0.5000 
    118 O         -6.0190  -18.1673  -55.3960 O.2       21 UNK        -0.5000 
    119 N         -5.9006  -19.0798  -53.3200 N.am      22 UNK        -0.5000 
    120 CA        -6.0173  -17.8416  -52.5320 C.3       22 UNK         0.1400 
    121 C         -7.4204  -17.1641  -52.5633 C.2       22 UNK         0.5000 
    122 N         -8.4682  -17.8149  -53.0540 N.am      22 UNK        -0.7600 
    123 O         -7.5586  -16.0214  -52.1356 O.2       22 UNK        -0.5000 
    124 C124       -5.5546  -18.0482  -51.0647 C.3       23 UNK        -0.0398 
    125 S125       -3.8895  -18.7777  -50.8922 S.3       23 UNK        -0.2404 
    126 C126       -2.8500  -17.4403  -51.5644 C.3       23 UNK        -0.0205 
    127 H127        1.5104   -9.4964  -50.7881 H         1 UNK         0.0600 
    128 H128        0.6615  -11.0431  -50.7126 H         1 UNK         0.0600 
    129 H129        2.1817  -10.9144  -51.6009 H         1 UNK         0.0600 
    130 H130        0.9053  -12.0385  -48.7390 H         1 UNK         0.3000 
    131 H131        3.4599  -12.4627  -47.4920 H         1 UNK         0.0600 
    132 H132        0.6180  -13.0677  -46.5085 H         1 UNK         0.0800 
    133 H133        2.0627  -13.5286  -45.6572 H         1 UNK         0.0800 
    134 H134       -0.5674  -14.8116  -47.7804 H         1 UNK         0.0800 
    135 H135        0.1838  -14.0264  -49.1502 H         1 UNK         0.0800 
    136 H136       -1.9500  -15.4454  -49.9390 H         1 UNK         0.1150 
    137 H137       -0.8058  -19.2319  -51.5756 H         1 UNK         0.1150 
    138 H138        1.8605  -17.1673  -48.9506 H         1 UNK         0.1150 
    139 H139        1.3864  -20.1234  -51.1749 H         1 UNK         0.0800 
    140 H140        2.6221  -19.0826  -50.5192 H         1 UNK         0.0800 
    141 H141       -0.6511  -20.7733  -49.4713 H         1 UNK         0.0800 
    142 H142       -0.5667  -19.7998  -48.0237 H         1 UNK         0.0800 
    143 H143        0.0902  -22.7835  -48.1060 H         1 UNK         0.0600 
    144 H144        0.3388  -20.9061  -45.9794 H         1 UNK         0.3000 
    145 H145        0.0916  -23.3217  -43.3126 H         1 UNK         0.0600 
    146 H146        2.4476  -23.2768  -44.1371 H         1 UNK         0.0600 
    147 H147        2.3449  -21.5372  -44.3717 H         1 UNK         0.0600 
    148 H148        2.2285  -22.2200  -42.7513 H         1 UNK         0.0600 
    149 H149        0.3727  -20.5050  -43.2072 H         1 UNK         0.3000 
    150 H150       -3.1427  -19.7117  -43.1739 H         1 UNK         0.0600 
    151 H151       -2.5094  -20.4003  -40.8554 H         1 UNK         0.0600 
    152 H152       -2.4456  -18.6555  -41.0517 H         1 UNK         0.0600 
    153 H153       -0.9548  -19.5955  -41.0336 H         1 UNK         0.0600 
    154 H154       -0.9086  -18.0042  -42.9596 H         1 UNK         0.3000 
    155 H155       -0.4126  -17.3795  -46.4695 H         1 UNK         0.0600 
    156 H156       -0.5538  -15.0855  -45.3999 H         1 UNK         0.0600 
    157 H157       -1.4449  -15.7877  -44.0574 H         1 UNK         0.0600 
    158 H158       -2.1296  -15.8169  -45.6755 H         1 UNK         0.0600 
    159 H159        1.0702  -16.4908  -44.2306 H         1 UNK         0.3000 
    160 H160        3.4024  -19.1923  -44.0260 H         1 UNK         0.0600 
    161 H161        3.5989  -16.2799  -44.9671 H         1 UNK         0.0600 
    162 H162        4.2598  -17.6889  -45.7766 H         1 UNK         0.0600 
    163 H163        4.9063  -17.1971  -44.2182 H         1 UNK         0.0600 
    164 H164        2.8887  -16.7299  -42.5724 H         1 UNK         0.3000 
    165 H165        0.9529  -18.2572  -39.9892 H         1 UNK         0.0600 
    166 H166        2.7790  -17.4168  -38.5396 H         1 UNK         0.0600 
    167 H167        3.2928  -18.8770  -39.3693 H         1 UNK         0.0600 
    168 H168        3.8687  -17.3091  -39.9228 H         1 UNK         0.0600 
    169 H169        2.0680  -15.6416  -40.2704 H         1 UNK         0.3000 
    170 H170       -0.4225  -14.2186  -42.3283 H         1 UNK         0.0600 
    171 H171       -1.5890  -14.2454  -40.1142 H         1 UNK         0.0600 
    172 H172       -0.0744  -13.8634  -39.3025 H         1 UNK         0.0600 
    173 H173       -0.8060  -12.7005  -40.4084 H         1 UNK         0.0600 
    174 H174        1.6427  -12.9450  -40.9046 H         1 UNK         0.3000 
    175 H175        4.0954  -13.2607  -41.5390 H         1 UNK         0.0600 
    176 H176        5.5223  -12.8432  -43.5396 H         1 UNK         0.0600 
    177 H177        4.9252  -14.4936  -43.4877 H         1 UNK         0.0600 
    178 H178        4.2017  -13.3389  -44.5945 H         1 UNK         0.0600 
    179 H179        3.4482  -11.1977  -43.4966 H         1 UNK         0.3000 
    180 H180        1.7736   -9.0698  -41.2782 H         1 UNK         0.0600 
    181 H181        4.7897   -8.7793  -41.7451 H         1 UNK         0.0600 
    182 H182        3.9902   -8.7518  -40.1780 H         1 UNK         0.0600 
    183 H183        3.6745   -7.4737  -41.3396 H         1 UNK         0.0600 
    184 H184        3.3041   -8.5794  -43.6792 H         1 UNK         0.3000 
    185 H185        0.4965   -8.4089  -45.6651 H         1 UNK         0.0600 
    186 H186        2.4539   -6.9283  -45.1568 H         1 UNK         0.0600 
    187 H187        3.5620   -8.2066  -45.6533 H         1 UNK         0.0600 
    188 H188        2.4625   -7.4870  -46.8189 H         1 UNK         0.0600 
    189 H189        0.8578  -10.1431  -47.0032 H         1 UNK         0.3000 
    190 H190       -2.4120  -20.8987  -46.3211 H         1 UNK         0.3000 
    191 H191       -4.6569  -21.7887  -47.7686 H         1 UNK         0.0600 
    192 H192       -4.7227  -19.8870  -46.1944 H         1 UNK         0.0600 
    193 H193       -5.9460  -21.0755  -45.7724 H         1 UNK         0.0600 
    194 H194       -4.4670  -20.9701  -44.8287 H         1 UNK         0.0600 
    195 H195       -3.1579  -23.1845  -44.8166 H         1 UNK         0.3000 
    196 H196       -4.8605  -25.4166  -44.5153 H         1 UNK         0.0600 
    197 H197       -3.0024  -26.2975  -43.0877 H         1 UNK         0.0600 
    198 H198       -3.3407  -24.6095  -42.7360 H         1 UNK         0.0600 
    199 H199       -1.9298  -25.0430  -43.6986 H         1 UNK         0.0600 
    200 H200       -1.9477  -24.9965  -46.5177 H         1 UNK         0.3000 
    201 H201       -1.8906  -27.7312  -47.5077 H         1 UNK         0.0600 
    202 H202        0.1722  -26.3486  -47.2569 H         1 UNK         0.0600 
    203 H203       -0.4336  -25.2151  -48.4625 H         1 UNK         0.0600 
    204 H204       -0.0523  -26.8715  -48.9175 H         1 UNK         0.0600 
    205 H205       -4.4533  -26.7075  -47.8126 H         1 UNK         0.3000 
    206 H206       -6.1919  -26.4852  -49.1763 H         1 UNK         0.0600 
    207 H207       -5.4144  -28.7601  -49.8490 H         1 UNK         0.0600 
    208 H208       -6.2069  -27.9426  -51.1852 H         1 UNK         0.0600 
    209 H209       -4.4525  -28.0619  -51.1501 H         1 UNK         0.0600 
    210 H210       -4.8310  -24.1636  -49.0934 H         1 UNK         0.3000 
    211 H211       -4.4766  -22.1589  -50.0241 H         1 UNK         0.0600 
    212 H212       -6.4294  -23.0313  -52.2191 H         1 UNK         0.0600 
    213 H213       -5.9893  -21.3842  -51.7911 H         1 UNK         0.0600 
    214 H214       -6.8934  -22.3658  -50.6537 H         1 UNK         0.0600 
    215 H215       -2.4213  -23.5875  -50.3075 H         1 UNK         0.3000 
    216 H216       -0.5277  -24.1184  -51.3202 H         1 UNK         0.0600 
    217 H217        0.3929  -22.4680  -52.9708 H         1 UNK         0.0600 
    218 H218       -0.3338  -21.6886  -51.5781 H         1 UNK         0.0600 
    219 H219       -1.1966  -21.7233  -53.1081 H         1 UNK         0.0600 
    220 H220       -2.3015  -25.9008  -51.9126 H         1 UNK         0.3000 
    221 H221       -3.0206  -27.5368  -53.2061 H         1 UNK         0.0600 
    222 H222       -0.5566  -26.9743  -54.9410 H         1 UNK         0.0600 
    223 H223       -0.5786  -27.9617  -53.4804 H         1 UNK         0.0600 
    224 H224       -1.4799  -28.4700  -54.8993 H         1 UNK         0.0600 
    225 H225       -4.5327  -25.4587  -53.5389 H         1 UNK         0.3000 
    226 H226       -6.0375  -24.3802  -54.7009 H         1 UNK         0.0600 
    227 H227       -6.7551  -26.6869  -55.2963 H         1 UNK         0.0600 
    228 H228       -7.1377  -25.5532  -56.5818 H         1 UNK         0.0600 
    229 H229       -5.7652  -26.6389  -56.7546 H         1 UNK         0.0600 
    230 H230       -3.8258  -23.0358  -54.8608 H         1 UNK         0.3000 
    231 H231       -2.8016  -22.4393  -57.4308 H         1 UNK         0.0600 
    232 H232       -2.7623  -20.8012  -54.8520 H         1 UNK         0.0600 
    233 H233       -1.8566  -20.4058  -56.3054 H         1 UNK         0.0600 
    234 H234       -1.5242  -21.9014  -55.4533 H         1 UNK         0.0600 
    235 H235       -5.9421  -19.7695  -57.1569 H         1 UNK         0.3000 
    236 H236       -5.0295  -21.0822  -54.6608 H         1 UNK         0.0600 
    237 H237       -7.0733  -22.2780  -55.6246 H         1 UNK         0.0600 
    238 H238       -7.4134  -21.4527  -54.1146 H         1 UNK         0.0600 
    239 H239       -7.9218  -20.7399  -55.6409 H         1 UNK         0.0600 
    240 H240       -5.7865  -19.9269  -52.7853 H         1 UNK         0.3000 
    241 H241       -5.3407  -17.1168  -52.9880 H         1 UNK         0.0600 
    242 H242       -9.3687  -17.3620  -53.0714 H         1 UNK         0.3800 
    243 H243       -8.3719  -18.7506  -53.4126 H         1 UNK         0.3800 
    244 H244       -5.5649  -17.1015  -50.5211 H         1 UNK         0.0800 
    245 H245       -6.2549  -18.7008  -50.5406 H         1 UNK         0.0800 
    246 H246       -2.6771  -17.6212  -52.6263 H         1 UNK         0.0800 
    247 H247       -3.3782  -16.4882  -51.4967 H         1 UNK         0.0800 
@<TRIPOS>BOND
     1    1    2 1    
     2    1  127 1    
     3    1  128 1    
     4    1  129 1    
     5    2    3 2    
     6    2    4 am   BACKBONE|DICT|INTERRES
     7    4    5 1    
     8    4  130 1    
     9    5    6 1    
    10    5   65 1    
    11    5  131 1    
    12    6    7 1    
    13    6  132 1    
    14    6  133 1    
    15    7    8 1    
    16    8    9 1    
    17    8  134 1    
    18    8  135 1    
    19    9   10 ar   
    20    9   14 ar   
    21   10   11 ar   
    22   10  136 1    
    23   11   12 ar   
    24   11  126 1    
    25   12   13 ar   
    26   12  137 1    
    27   13   14 ar   
    28   13   15 1    
    29   14  138 1    
    30   15   16 1    
    31   15  139 1    
    32   15  140 1    
    33   16   17 1    
    34   17   18 1    
    35   17  141 1    
    36   17  142 1    
    37   18   19 1    
    38   18   67 1    
    39   18  143 1    
    40   19   20 am   BACKBONE|DICT|INTERRES
    41   19  144 1    
    42   20   21 2    
    43   20   22 1    
    44   22   23 1    
    45   22   24 1    
    46   22  145 1    
    47   23  146 1    
    48   23  147 1    
    49   23  148 1    
    50   24   25 am   BACKBONE|DICT|INTERRES
    51   24  149 1    
    52   25   26 2    
    53   25   27 1    
    54   27   28 1    
    55   27   29 1    
    56   27  150 1    
    57   28  151 1    
    58   28  152 1    
    59   28  153 1    
    60   29   30 am   BACKBONE|DICT|INTERRES
    61   29  154 1    
    62   30   31 2    
    63   30   32 1    
    64   32   33 1    
    65   32   34 1    
    66   32  155 1    
    67   33  156 1    
    68   33  157 1    
    69   33  158 1    
    70   34   35 am   BACKBONE|DICT|INTERRES
    71   34  159 1    
    72   35   36 2    
    73   35   37 1    
    74   37   38 1    
    75   37   39 1    
    76   37  160 1    
    77   38  161 1    
    78   38  162 1    
    79   38  163 1    
    80   39   40 am   BACKBONE|DICT|INTERRES
    81   39  164 1    
    82   40   41 2    
    83   40   42 1    
    84   42   43 1    
    85   42   44 1    
    86   42  165 1    
    87   43  166 1    
    88   43  167 1    
    89   43  168 1    
    90   44   45 am   BACKBONE|DICT|INTERRES
    91   44  169 1    
    92   45   46 2    
    93   45   47 1    
    94   47   48 1    
    95   47   49 1    
    96   47  170 1    
    97   48  171 1    
    98   48  172 1    
    99   48  173 1    
   100   49   50 am   BACKBONE|DICT|INTERRES
   101   49  174 1    
   102   50   51 2    
   103   50   52 1    
   104   52   53 1    
   105   52   54 1    
   106   52  175 1    
   107   53  176 1    
   108   53  177 1    
   109   53  178 1    
   110   54   55 am   BACKBONE|DICT|INTERRES
   111   54  179 1    
   112   55   56 2    
   113   55   57 1    
   114   57   58 1    
   115   57   59 1    
   116   57  180 1    
   117   58  181 1    
   118   58  182 1    
   119   58  183 1    
   120   59   60 am   BACKBONE|DICT|INTERRES
   121   59  184 1    
   122   60   61 2    
   123   60   62 1    
   124   62   63 1    
   125   62   64 1    
   126   62  185 1    
   127   63  186 1    
   128   63  187 1    
   129   63  188 1    
   130   64   65 am   BACKBONE|DICT|INTERRES
   131   64  189 1    
   132   65   66 2    
   133   67   68 2    
   134   67   69 am   BACKBONE|DICT|INTERRES
   135   69   70 1    
   136   69  190 1    
   137   70   71 1    
   138   70   72 1    
   139   70  191 1    
   140   71  192 1    
   141   71  193 1    
   142   71  194 1    
   143   72   73 2    
   144   72   74 am   BACKBONE|DICT|INTERRES
   145   74   75 1    
   146   74  195 1    
   147   75   76 1    
   148   75   77 1    
   149   75  196 1    
   150   76  197 1    
   151   76  198 1    
   152   76  199 1    
   153   77   78 2    
   154   77   79 am   BACKBONE|DICT|INTERRES
   155   79   80 1    
   156   79  200 1    
   157   80   81 1    
   158   80   82 1    
   159   80  201 1    
   160   81  202 1    
   161   81  203 1    
   162   81  204 1    
   163   82   83 2    
   164   82   84 am   BACKBONE|DICT|INTERRES
   165   84   85 1    
   166   84  205 1    
   167   85   86 1    
   168   85   87 1    
   169   85  206 1    
   170   86  207 1    
   171   86  208 1    
   172   86  209 1    
   173   87   88 2    
   174   87   89 am   BACKBONE|DICT|INTERRES
   175   89   90 1    
   176   89  210 1    
   177   90   91 1    
   178   90   92 1    
   179   90  211 1    
   180   91  212 1    
   181   91  213 1    
   182   91  214 1    
   183   92   93 2    
   184   92   94 am   BACKBONE|DICT|INTERRES
   185   94   95 1    
   186   94  215 1    
   187   95   96 1    
   188   95   97 1    
   189   95  216 1    
   190   96  217 1    
   191   96  218 1    
   192   96  219 1    
   193   97   98 2    
   194   97   99 am   BACKBONE|DICT|INTERRES
   195   99  100 1    
   196   99  220 1    
   197  100  101 1    
   198  100  102 1    
   199  100  221 1    
   200  101  222 1    
   201  101  223 1    
   202  101  224 1    
   203  102  103 2    
   204  102  104 am   BACKBONE|DICT|INTERRES
   205  104  105 1    
   206  104  225 1    
   207  105  106 1    
   208  105  107 1    
   209  105  226 1    
   210  106  227 1    
   211  106  228 1    
   212  106  229 1    
   213  107  108 2    
   214  107  109 am   BACKBONE|DICT|INTERRES
   215  109  110 1    
   216  109  230 1    
   217  110  111 1    
   218  110  112 1    
   219  110  231 1    
   220  111  232 1    
   221  111  233 1    
   222  111  234 1    
   223  112  113 2    
   224  112  114 am   BACKBONE|DICT|INTERRES
   225  114  115 1    
   226  114  235 1    
   227  115  116 1    
   228  115  117 1    
   229  115  236 1    
   230  116  237 1    
   231  116  238 1    
   232  116  239 1    
   233  117  118 2    
   234  117  119 am   BACKBONE|DICT|INTERRES
   235  119  120 1    
   236  119  240 1    
   237  120  121 1    
   238  120  124 1    
   239  120  241 1    
   240  121  122 am   BACKBONE|DICT|INTERRES
   241  121  123 2    
   242  122  242 1    
   243  122  243 1    
   244  124  125 1    
   245  124  244 1    
   246  124  245 1    
   247  125  126 1    
   248  126  246 1    
   249  126  247 1    
@<TRIPOS>SUBSTRUCTURE
     1 UNK         1 GROUP             0       ****    0 ROOT    
