@<TRIPOS>MOLECULE
3R540
247   249    1
SMALL
USER_CHARGES


@<TRIPOS>ATOM
      1 CA          3.0772  -11.5800  -52.5415 C.3       0 UNK        -0.1800 
      2 C           2.2897  -12.4983  -51.6173 C.2       0 UNK         0.5000 
      3 O           1.3456  -13.1491  -52.0623 O.2       0 UNK        -0.5000 
      4 N           2.6737  -12.5488  -50.3385 N.am      1 UNK        -0.5000 
      5 CA          2.0652  -13.3749  -49.3006 C.3       1 UNK         0.1400 
      6 C6          0.7644  -12.7371  -48.7436 C.3       23 UNK        -0.0398 
      7 S7         -0.0997  -13.7727  -47.5117 S.3       23 UNK        -0.2404 
      8 C8         -1.4382  -14.4941  -48.5135 C.3       23 UNK        -0.0205 
      9 C9         -0.9176  -15.4505  -49.5764 C.ar      23 UNK        -0.0193 
     10 C10        -1.1967  -15.2200  -50.9252 C.ar      23 UNK        -0.1150 
     11 C11        -0.7268  -16.0964  -51.9059 C.ar      23 UNK        -0.0193 
     12 C12         0.0269  -17.2108  -51.5293 C.ar      23 UNK        -0.1150 
     13 C13         0.3200  -17.4563  -50.1847 C.ar      23 UNK        -0.0193 
     14 C14        -0.1599  -16.5676  -49.2129 C.ar      23 UNK        -0.1150 
     15 C15         1.1843  -18.6688  -49.8386 C.3       23 UNK        -0.0205 
     16 S16         1.0370  -19.2700  -48.1244 S.3       23 UNK        -0.2404 
     17 C17        -0.7055  -19.7941  -48.0661 C.3       23 UNK        -0.0398 
     18 CA         -0.8834  -21.0386  -47.1727 C.3       11 UNK         0.1400 
     19 N          -0.6331  -20.7611  -45.7573 N.am      11 UNK        -0.5000 
     20 C          -0.4568  -21.7054  -44.8245 C.2       10 UNK         0.5000 
     21 O          -0.4795  -22.9122  -45.0652 O.2       10 UNK        -0.5000 
     22 CA         -0.2867  -21.2254  -43.3721 C.3       10 UNK         0.1400 
     23 CB          1.1231  -20.6668  -43.1279 C.3       10 UNK        -0.1800 
     24 N          -1.2852  -20.2252  -42.9953 N.am      10 UNK        -0.5000 
     25 C          -2.6071  -20.4457  -42.9643 C.2       9 UNK         0.5000 
     26 O          -3.1281  -21.5331  -43.2132 O.2       9 UNK        -0.5000 
     27 CA         -3.4991  -19.2341  -42.6470 C.3       9 UNK         0.1400 
     28 CB         -3.5585  -18.9762  -41.1339 C.3       9 UNK        -0.1800 
     29 N          -3.0441  -18.0282  -43.3390 N.am      9 UNK        -0.5000 
     30 C          -3.1411  -17.8404  -44.6629 C.2       8 UNK         0.5000 
     31 O          -3.6490  -18.6526  -45.4338 O.2       8 UNK        -0.5000 
     32 CA         -2.5263  -16.5491  -45.2300 C.3       8 UNK         0.1400 
     33 CB         -3.5050  -15.3727  -45.1028 C.3       8 UNK        -0.1800 
     34 N          -1.2549  -16.1964  -44.5991 N.am      8 UNK        -0.5000 
     35 C          -0.1494  -16.9482  -44.6780 C.2       7 UNK         0.5000 
     36 O          -0.0926  -18.0182  -45.2784 O.2       7 UNK        -0.5000 
     37 CA          1.0872  -16.4467  -43.9166 C.3       7 UNK         0.1400 
     38 CB          1.8125  -15.3746  -44.7422 C.3       7 UNK        -0.1800 
     39 N           0.8001  -15.9267  -42.5763 N.am      7 UNK        -0.5000 
     40 C           0.1537  -16.5856  -41.6035 C.2       6 UNK         0.5000 
     41 O          -0.3315  -17.7097  -41.7448 O.2       6 UNK        -0.5000 
     42 CA          0.1042  -15.8823  -40.2366 C.3       6 UNK         0.1400 
     43 CB         -0.7686  -16.6291  -39.2118 C.3       6 UNK        -0.1800 
     44 N           1.4710  -15.8032  -39.7315 N.am      6 UNK        -0.5000 
     45 C           2.1986  -14.6867  -39.6021 C.2       5 UNK         0.5000 
     46 O           1.7521  -13.5506  -39.7631 O.2       5 UNK        -0.5000 
     47 CA          3.6977  -14.8842  -39.2891 C.3       5 UNK         0.1400 
     48 CB          3.9368  -14.8949  -37.7716 C.3       5 UNK        -0.1800 
     49 N           4.2414  -16.1163  -39.8750 N.am      5 UNK        -0.5000 
     50 C           4.3236  -16.3502  -41.1922 C.2       4 UNK         0.5000 
     51 O           4.0507  -15.5067  -42.0510 O.2       4 UNK        -0.5000 
     52 CA          4.7274  -17.7697  -41.6227 C.3       4 UNK         0.1400 
     53 CB          3.7764  -18.8284  -41.0258 C.3       4 UNK        -0.1800 
     54 N           4.6722  -17.8311  -43.0792 N.am      4 UNK        -0.5000 
     55 C           5.2545  -18.7467  -43.8610 C.2       3 UNK         0.5000 
     56 O           5.9689  -19.6559  -43.4381 O.2       3 UNK        -0.5000 
     57 CA          4.9924  -18.6236  -45.3700 C.3       3 UNK         0.1400 
     58 CB          3.7126  -19.4096  -45.7249 C.3       3 UNK        -0.1800 
     59 N           4.9092  -17.2114  -45.7644 N.am      3 UNK        -0.5000 
     60 C           4.6338  -16.7312  -46.9830 C.2       2 UNK         0.5000 
     61 O           4.3837  -17.4230  -47.9724 O.2       2 UNK        -0.5000 
     62 CA          4.6722  -15.2049  -47.1326 C.3       2 UNK         0.1400 
     63 CB          6.0631  -14.7376  -47.6010 C.3       2 UNK        -0.1800 
     64 N           3.6478  -14.8084  -48.0937 N.am      2 UNK        -0.5000 
     65 C           3.1498  -13.5754  -48.2295 C.2       1 UNK         0.5000 
     66 O           3.5401  -12.6034  -47.5785 O.2       1 UNK        -0.5000 
     67 C          -2.2549  -21.6971  -47.4082 C.2       11 UNK         0.5000 
     68 O          -2.3478  -22.5522  -48.2873 O.2       11 UNK        -0.5000 
     69 N          -3.2798  -21.3351  -46.6223 N.am      12 UNK        -0.5000 
     70 CA         -4.5914  -21.9867  -46.6499 C.3       12 UNK         0.1400 
     71 CB         -5.6089  -21.1826  -45.8282 C.3       12 UNK        -0.1800 
     72 C          -4.5289  -23.4498  -46.1785 C.2       12 UNK         0.5000 
     73 O          -5.1174  -24.3177  -46.8231 O.2       12 UNK        -0.5000 
     74 N          -3.7817  -23.7048  -45.0947 N.am      13 UNK        -0.5000 
     75 CA         -3.5284  -25.0434  -44.5569 C.3       13 UNK         0.1400 
     76 CB         -2.8417  -24.9242  -43.1879 C.3       13 UNK        -0.1800 
     77 C          -2.7009  -25.9254  -45.5120 C.2       13 UNK         0.5000 
     78 O          -2.9924  -27.1140  -45.6484 O.2       13 UNK        -0.5000 
     79 N          -1.7051  -25.3228  -46.1757 N.am      14 UNK        -0.5000 
     80 CA         -0.8605  -25.9660  -47.1854 C.3       14 UNK         0.1400 
     81 CB          0.4107  -25.1225  -47.3720 C.3       14 UNK        -0.1800 
     82 C          -1.5606  -26.1711  -48.5452 C.2       14 UNK         0.5000 
     83 O          -1.0395  -26.9151  -49.3766 O.2       14 UNK        -0.5000 
     84 N          -2.6970  -25.4902  -48.7579 N.am      15 UNK        -0.5000 
     85 CA         -3.4631  -25.3883  -50.0054 C.3       15 UNK         0.1400 
     86 CB         -4.0472  -26.7549  -50.4203 C.3       15 UNK        -0.1800 
     87 C          -2.6793  -24.6888  -51.1386 C.2       15 UNK         0.5000 
     88 O          -2.8830  -24.9901  -52.3149 O.2       15 UNK        -0.5000 
     89 N          -1.8041  -23.7514  -50.7551 N.am      16 UNK        -0.5000 
     90 CA         -1.0647  -22.8575  -51.6460 C.3       16 UNK         0.1400 
     91 CB          0.2836  -22.5178  -50.9914 C.3       16 UNK        -0.1800 
     92 C          -1.8612  -21.5724  -51.9453 C.2       16 UNK         0.5000 
     93 O          -1.6057  -20.9203  -52.9571 O.2       16 UNK        -0.5000 
     94 N          -2.8155  -21.2481  -51.0676 N.am      17 UNK        -0.5000 
     95 CA         -3.8153  -20.1986  -51.2106 C.3       17 UNK         0.1400 
     96 CB         -3.3856  -18.9666  -50.3956 C.3       17 UNK        -0.1800 
     97 C          -5.1542  -20.7608  -50.7060 C.2       17 UNK         0.5000 
     98 O          -5.1880  -21.8768  -50.1779 O.2       17 UNK        -0.5000 
     99 N          -6.2309  -19.9813  -50.8734 N.am      18 UNK        -0.5000 
    100 CA        -7.6191  -20.2295  -50.4559 C.3       18 UNK         0.1400 
    101 CB        -7.7303  -20.3614  -48.9233 C.3       18 UNK        -0.1800 
    102 C         -8.2877  -21.4161  -51.1782 C.2       18 UNK         0.5000 
    103 O         -9.2775  -21.2219  -51.8843 O.2       18 UNK        -0.5000 
    104 N         -7.7216  -22.6156  -51.0076 N.am      19 UNK        -0.5000 
    105 CA        -8.1041  -23.8471  -51.6993 C.3       19 UNK         0.1400 
    106 CB        -7.5809  -25.0438  -50.8910 C.3       19 UNK        -0.1800 
    107 C         -7.5752  -23.8984  -53.1472 C.2       19 UNK         0.5000 
    108 O         -8.0895  -24.6742  -53.9538 O.2       19 UNK        -0.5000 
    109 N         -6.5708  -23.0687  -53.4483 N.am      20 UNK        -0.5000 
    110 CA        -6.0045  -22.8410  -54.7709 C.3       20 UNK         0.1400 
    111 CB        -4.6037  -23.4693  -54.8328 C.3       20 UNK        -0.1800 
    112 C         -5.9260  -21.3259  -54.9992 C.2       20 UNK         0.5000 
    113 O         -5.7865  -20.5691  -54.0347 O.2       20 UNK        -0.5000 
    114 N         -6.0075  -20.9087  -56.2661 N.am      21 UNK        -0.5000 
    115 CA        -5.8558  -19.5143  -56.6755 C.3       21 UNK         0.1400 
    116 CB        -6.5202  -19.3207  -58.0483 C.3       21 UNK        -0.1800 
    117 C         -4.3697  -19.1189  -56.7353 C.2       21 UNK         0.5000 
    118 O         -3.5366  -19.9271  -57.1556 O.2       21 UNK        -0.5000 
    119 N         -4.0755  -17.8742  -56.3478 N.am      22 UNK        -0.5000 
    120 CA        -2.7522  -17.2477  -56.4823 C.3       22 UNK         0.1400 
    121 C         -2.4008  -16.9456  -57.9667 C.2       22 UNK         0.5000 
    122 N         -1.1432  -17.1027  -58.3580 N.am      22 UNK        -0.7600 
    123 O         -3.2484  -16.5301  -58.7550 O.2       22 UNK        -0.5000 
    124 C124       -2.6557  -15.9574  -55.6307 C.3       23 UNK        -0.0398 
    125 S125       -2.6973  -16.3108  -53.8398 S.3       23 UNK        -0.2404 
    126 C126       -1.0082  -15.8209  -53.3733 C.3       23 UNK        -0.0205 
    127 H127        3.5329  -12.1591  -53.3466 H         1 UNK         0.0600 
    128 H128        3.8707  -11.0520  -52.0094 H         1 UNK         0.0600 
    129 H129        2.4130  -10.8373  -52.9870 H         1 UNK         0.0600 
    130 H130        3.4636  -11.9996  -50.0246 H         1 UNK         0.3000 
    131 H131        1.8198  -14.3479  -49.7324 H         1 UNK         0.0600 
    132 H132        0.9804  -11.7711  -48.2844 H         1 UNK         0.0800 
    133 H133        0.0776  -12.5245  -49.5638 H         1 UNK         0.0800 
    134 H134       -2.1207  -15.0350  -47.8601 H         1 UNK         0.0800 
    135 H135       -2.0230  -13.6891  -48.9612 H         1 UNK         0.0800 
    136 H136       -1.7750  -14.3553  -51.2183 H         1 UNK         0.1150 
    137 H137        0.3951  -17.8864  -52.2889 H         1 UNK         0.1150 
    138 H138        0.0613  -16.7270  -48.1672 H         1 UNK         0.1150 
    139 H139        0.9548  -19.4932  -50.5150 H         1 UNK         0.0800 
    140 H140        2.2278  -18.4048  -50.0151 H         1 UNK         0.0800 
    141 H141       -1.0270  -20.0060  -49.0863 H         1 UNK         0.0800 
    142 H142       -1.3187  -18.9648  -47.7091 H         1 UNK         0.0800 
    143 H143       -0.1391  -21.7726  -47.4880 H         1 UNK         0.0600 
    144 H144       -0.5461  -19.7797  -45.4985 H         1 UNK         0.3000 
    145 H145       -0.4235  -22.0917  -42.7216 H         1 UNK         0.0600 
    146 H146        1.2693  -20.4267  -42.0751 H         1 UNK         0.0600 
    147 H147        1.3046  -19.7607  -43.7046 H         1 UNK         0.0600 
    148 H148        1.8874  -21.3933  -43.4063 H         1 UNK         0.0600 
    149 H149       -0.9409  -19.3027  -42.7461 H         1 UNK         0.3000 
    150 H150       -4.5105  -19.4624  -42.9899 H         1 UNK         0.0600 
    151 H151       -3.9586  -19.8445  -40.6090 H         1 UNK         0.0600 
    152 H152       -4.2046  -18.1296  -40.9016 H         1 UNK         0.0600 
    153 H153       -2.5721  -18.7711  -40.7180 H         1 UNK         0.0600 
    154 H154       -2.5436  -17.3479  -42.7861 H         1 UNK         0.3000 
    155 H155       -2.3336  -16.7245  -46.2901 H         1 UNK         0.0600 
    156 H156       -4.4514  -15.5985  -45.5960 H         1 UNK         0.0600 
    157 H157       -3.1032  -14.4725  -45.5684 H         1 UNK         0.0600 
    158 H158       -3.7244  -15.1414  -44.0598 H         1 UNK         0.0600 
    159 H159       -1.2205  -15.3330  -44.0778 H         1 UNK         0.3000 
    160 H160        1.7599  -17.2974  -43.7954 H         1 UNK         0.0600 
    161 H161        1.2313  -14.4541  -44.8048 H         1 UNK         0.0600 
    162 H162        1.9851  -15.7200  -45.7623 H         1 UNK         0.0600 
    163 H163        2.7816  -15.1254  -44.3135 H         1 UNK         0.0600 
    164 H164        1.2018  -15.0265  -42.3549 H         1 UNK         0.3000 
    165 H165       -0.3199  -14.8876  -40.3878 H         1 UNK         0.0600 
    166 H166       -0.7781  -16.1100  -38.2533 H         1 UNK         0.0600 
    167 H167       -1.8017  -16.6950  -39.5550 H         1 UNK         0.0600 
    168 H168       -0.4121  -17.6452  -39.0373 H         1 UNK         0.0600 
    169 H169        1.9403  -16.6873  -39.6001 H         1 UNK         0.3000 
    170 H170        4.2397  -14.0376  -39.7160 H         1 UNK         0.0600 
    171 H171        3.4335  -15.7339  -37.2894 H         1 UNK         0.0600 
    172 H172        3.5627  -13.9793  -37.3115 H         1 UNK         0.0600 
    173 H173        5.0001  -14.9621  -37.5402 H         1 UNK         0.0600 
    174 H174        4.5019  -16.8460  -39.2273 H         1 UNK         0.3000 
    175 H175        5.7506  -17.9526  -41.2888 H         1 UNK         0.0600 
    176 H176        2.7379  -18.6242  -41.2898 H         1 UNK         0.0600 
    177 H177        4.0178  -19.8297  -41.3826 H         1 UNK         0.0600 
    178 H178        3.8415  -18.8576  -39.9379 H         1 UNK         0.0600 
    179 H179        4.1320  -17.0801  -43.4871 H         1 UNK         0.3000 
    180 H180        5.8403  -19.0735  -45.8900 H         1 UNK         0.0600 
    181 H181        3.6604  -19.6155  -46.7929 H         1 UNK         0.0600 
    182 H182        2.8108  -18.8655  -45.4435 H         1 UNK         0.0600 
    183 H183        3.6836  -20.3776  -45.2227 H         1 UNK         0.0600 
    184 H184        5.1824  -16.5568  -45.0444 H         1 UNK         0.3000 
    185 H185        4.4456  -14.7493  -46.1665 H         1 UNK         0.0600 
    186 H186        6.1205  -13.6510  -47.6626 H         1 UNK         0.0600 
    187 H187        6.8392  -15.0619  -46.9067 H         1 UNK         0.0600 
    188 H188        6.3109  -15.1419  -48.5834 H         1 UNK         0.0600 
    189 H189        3.2942  -15.5722  -48.6572 H         1 UNK         0.3000 
    190 H190       -3.1625  -20.5758  -45.9601 H         1 UNK         0.3000 
    191 H191       -4.9382  -21.9948  -47.6820 H         1 UNK         0.0600 
    192 H192       -5.7410  -20.1819  -46.2394 H         1 UNK         0.0600 
    193 H193       -5.3011  -21.0815  -44.7879 H         1 UNK         0.0600 
    194 H194       -6.5866  -21.6660  -45.8368 H         1 UNK         0.0600 
    195 H195       -3.3648  -22.9263  -44.5920 H         1 UNK         0.3000 
    196 H196       -4.4940  -25.5316  -44.4093 H         1 UNK         0.0600 
    197 H197       -3.4603  -24.3659  -42.4849 H         1 UNK         0.0600 
    198 H198       -1.8801  -24.4159  -43.2614 H         1 UNK         0.0600 
    199 H199       -2.6617  -25.9083  -42.7536 H         1 UNK         0.0600 
    200 H200       -1.4779  -24.3607  -45.9405 H         1 UNK         0.3000 
    201 H201       -0.5663  -26.9501  -46.8149 H         1 UNK         0.0600 
    202 H202        0.9449  -24.9974  -46.4299 H         1 UNK         0.0600 
    203 H203        0.1788  -24.1308  -47.7607 H         1 UNK         0.0600 
    204 H204        1.0976  -25.5967  -48.0741 H         1 UNK         0.0600 
    205 H205       -3.0202  -24.8899  -48.0104 H         1 UNK         0.3000 
    206 H206       -4.3016  -24.7282  -49.7788 H         1 UNK         0.0600 
    207 H207       -3.2680  -27.4603  -50.7090 H         1 UNK         0.0600 
    208 H208       -4.6204  -27.1999  -49.6070 H         1 UNK         0.0600 
    209 H209       -4.7203  -26.6517  -51.2719 H         1 UNK         0.0600 
    210 H210       -1.7690  -23.5277  -49.7639 H         1 UNK         0.3000 
    211 H211       -0.8707  -23.3623  -52.5946 H         1 UNK         0.0600 
    212 H212        0.1527  -22.0150  -50.0333 H         1 UNK         0.0600 
    213 H213        0.8742  -21.8608  -51.6310 H         1 UNK         0.0600 
    214 H214        0.8732  -23.4180  -50.8171 H         1 UNK         0.0600 
    215 H215       -2.9959  -21.8814  -50.2960 H         1 UNK         0.3000 
    216 H216       -3.9245  -19.9242  -52.2614 H         1 UNK         0.0600 
    217 H217       -4.0686  -18.1316  -50.5535 H         1 UNK         0.0600 
    218 H218       -2.3941  -18.6257  -50.6916 H         1 UNK         0.0600 
    219 H219       -3.3671  -19.1767  -49.3256 H         1 UNK         0.0600 
    220 H220       -6.0974  -19.1137  -51.3740 H         1 UNK         0.3000 
    221 H221       -8.1760  -19.3361  -50.7427 H         1 UNK         0.0600 
    222 H222       -7.2123  -21.2425  -48.5449 H         1 UNK         0.0600 
    223 H223       -7.3116  -19.4886  -48.4221 H         1 UNK         0.0600 
    224 H224       -8.7735  -20.4433  -48.6162 H         1 UNK         0.0600 
    225 H225       -6.8644  -22.6434  -50.4607 H         1 UNK         0.3000 
    226 H226       -9.1937  -23.9065  -51.7399 H         1 UNK         0.0600 
    227 H227       -8.0007  -25.0545  -49.8848 H         1 UNK         0.0600 
    228 H228       -7.8497  -25.9880  -51.3666 H         1 UNK         0.0600 
    229 H229       -6.4954  -25.0172  -50.8003 H         1 UNK         0.0600 
    230 H230       -6.2621  -22.4155  -52.7414 H         1 UNK         0.3000 
    231 H231       -6.6387  -23.2818  -55.5430 H         1 UNK         0.0600 
    232 H232       -4.1518  -23.3248  -55.8149 H         1 UNK         0.0600 
    233 H233       -4.6444  -24.5427  -54.6462 H         1 UNK         0.0600 
    234 H234       -3.9328  -23.0283  -54.0940 H         1 UNK         0.0600 
    235 H235       -6.0729  -21.5890  -57.0089 H         1 UNK         0.3000 
    236 H236       -6.3681  -18.8733  -55.9537 H         1 UNK         0.0600 
    237 H237       -6.0547  -19.9439  -58.8136 H         1 UNK         0.0600 
    238 H238       -7.5814  -19.5685  -58.0121 H         1 UNK         0.0600 
    239 H239       -6.4400  -18.2836  -58.3775 H         1 UNK         0.0600 
    240 H240       -4.8184  -17.2686  -56.0307 H         1 UNK         0.3000 
    241 H241       -2.0115  -17.9572  -56.1058 H         1 UNK         0.0600 
    242 H242       -0.4293  -17.4385  -57.7292 H         1 UNK         0.3800 
    243 H243       -0.8991  -16.8959  -59.3146 H         1 UNK         0.3800 
    244 H244       -1.7386  -15.4120  -55.8618 H         1 UNK         0.0800 
    245 H245       -3.4737  -15.2759  -55.8713 H         1 UNK         0.0800 
    246 H246       -0.8672  -14.7575  -53.5747 H         1 UNK         0.0800 
    247 H247       -0.2908  -16.3520  -54.0010 H         1 UNK         0.0800 
@<TRIPOS>BOND
     1    1    2 1    
     2    1  127 1    
     3    1  128 1    
     4    1  129 1    
     5    2    3 2    
     6    2    4 am   BACKBONE|DICT|INTERRES
     7    4    5 1    
     8    4  130 1    
     9    5    6 1    
    10    5   65 1    
    11    5  131 1    
    12    6    7 1    
    13    6  132 1    
    14    6  133 1    
    15    7    8 1    
    16    8    9 1    
    17    8  134 1    
    18    8  135 1    
    19    9   10 ar   
    20    9   14 ar   
    21   10   11 ar   
    22   10  136 1    
    23   11   12 ar   
    24   11  126 1    
    25   12   13 ar   
    26   12  137 1    
    27   13   14 ar   
    28   13   15 1    
    29   14  138 1    
    30   15   16 1    
    31   15  139 1    
    32   15  140 1    
    33   16   17 1    
    34   17   18 1    
    35   17  141 1    
    36   17  142 1    
    37   18   19 1    
    38   18   67 1    
    39   18  143 1    
    40   19   20 am   BACKBONE|DICT|INTERRES
    41   19  144 1    
    42   20   21 2    
    43   20   22 1    
    44   22   23 1    
    45   22   24 1    
    46   22  145 1    
    47   23  146 1    
    48   23  147 1    
    49   23  148 1    
    50   24   25 am   BACKBONE|DICT|INTERRES
    51   24  149 1    
    52   25   26 2    
    53   25   27 1    
    54   27   28 1    
    55   27   29 1    
    56   27  150 1    
    57   28  151 1    
    58   28  152 1    
    59   28  153 1    
    60   29   30 am   BACKBONE|DICT|INTERRES
    61   29  154 1    
    62   30   31 2    
    63   30   32 1    
    64   32   33 1    
    65   32   34 1    
    66   32  155 1    
    67   33  156 1    
    68   33  157 1    
    69   33  158 1    
    70   34   35 am   BACKBONE|DICT|INTERRES
    71   34  159 1    
    72   35   36 2    
    73   35   37 1    
    74   37   38 1    
    75   37   39 1    
    76   37  160 1    
    77   38  161 1    
    78   38  162 1    
    79   38  163 1    
    80   39   40 am   BACKBONE|DICT|INTERRES
    81   39  164 1    
    82   40   41 2    
    83   40   42 1    
    84   42   43 1    
    85   42   44 1    
    86   42  165 1    
    87   43  166 1    
    88   43  167 1    
    89   43  168 1    
    90   44   45 am   BACKBONE|DICT|INTERRES
    91   44  169 1    
    92   45   46 2    
    93   45   47 1    
    94   47   48 1    
    95   47   49 1    
    96   47  170 1    
    97   48  171 1    
    98   48  172 1    
    99   48  173 1    
   100   49   50 am   BACKBONE|DICT|INTERRES
   101   49  174 1    
   102   50   51 2    
   103   50   52 1    
   104   52   53 1    
   105   52   54 1    
   106   52  175 1    
   107   53  176 1    
   108   53  177 1    
   109   53  178 1    
   110   54   55 am   BACKBONE|DICT|INTERRES
   111   54  179 1    
   112   55   56 2    
   113   55   57 1    
   114   57   58 1    
   115   57   59 1    
   116   57  180 1    
   117   58  181 1    
   118   58  182 1    
   119   58  183 1    
   120   59   60 am   BACKBONE|DICT|INTERRES
   121   59  184 1    
   122   60   61 2    
   123   60   62 1    
   124   62   63 1    
   125   62   64 1    
   126   62  185 1    
   127   63  186 1    
   128   63  187 1    
   129   63  188 1    
   130   64   65 am   BACKBONE|DICT|INTERRES
   131   64  189 1    
   132   65   66 2    
   133   67   68 2    
   134   67   69 am   BACKBONE|DICT|INTERRES
   135   69   70 1    
   136   69  190 1    
   137   70   71 1    
   138   70   72 1    
   139   70  191 1    
   140   71  192 1    
   141   71  193 1    
   142   71  194 1    
   143   72   73 2    
   144   72   74 am   BACKBONE|DICT|INTERRES
   145   74   75 1    
   146   74  195 1    
   147   75   76 1    
   148   75   77 1    
   149   75  196 1    
   150   76  197 1    
   151   76  198 1    
   152   76  199 1    
   153   77   78 2    
   154   77   79 am   BACKBONE|DICT|INTERRES
   155   79   80 1    
   156   79  200 1    
   157   80   81 1    
   158   80   82 1    
   159   80  201 1    
   160   81  202 1    
   161   81  203 1    
   162   81  204 1    
   163   82   83 2    
   164   82   84 am   BACKBONE|DICT|INTERRES
   165   84   85 1    
   166   84  205 1    
   167   85   86 1    
   168   85   87 1    
   169   85  206 1    
   170   86  207 1    
   171   86  208 1    
   172   86  209 1    
   173   87   88 2    
   174   87   89 am   BACKBONE|DICT|INTERRES
   175   89   90 1    
   176   89  210 1    
   177   90   91 1    
   178   90   92 1    
   179   90  211 1    
   180   91  212 1    
   181   91  213 1    
   182   91  214 1    
   183   92   93 2    
   184   92   94 am   BACKBONE|DICT|INTERRES
   185   94   95 1    
   186   94  215 1    
   187   95   96 1    
   188   95   97 1    
   189   95  216 1    
   190   96  217 1    
   191   96  218 1    
   192   96  219 1    
   193   97   98 2    
   194   97   99 am   BACKBONE|DICT|INTERRES
   195   99  100 1    
   196   99  220 1    
   197  100  101 1    
   198  100  102 1    
   199  100  221 1    
   200  101  222 1    
   201  101  223 1    
   202  101  224 1    
   203  102  103 2    
   204  102  104 am   BACKBONE|DICT|INTERRES
   205  104  105 1    
   206  104  225 1    
   207  105  106 1    
   208  105  107 1    
   209  105  226 1    
   210  106  227 1    
   211  106  228 1    
   212  106  229 1    
   213  107  108 2    
   214  107  109 am   BACKBONE|DICT|INTERRES
   215  109  110 1    
   216  109  230 1    
   217  110  111 1    
   218  110  112 1    
   219  110  231 1    
   220  111  232 1    
   221  111  233 1    
   222  111  234 1    
   223  112  113 2    
   224  112  114 am   BACKBONE|DICT|INTERRES
   225  114  115 1    
   226  114  235 1    
   227  115  116 1    
   228  115  117 1    
   229  115  236 1    
   230  116  237 1    
   231  116  238 1    
   232  116  239 1    
   233  117  118 2    
   234  117  119 am   BACKBONE|DICT|INTERRES
   235  119  120 1    
   236  119  240 1    
   237  120  121 1    
   238  120  124 1    
   239  120  241 1    
   240  121  122 am   BACKBONE|DICT|INTERRES
   241  121  123 2    
   242  122  242 1    
   243  122  243 1    
   244  124  125 1    
   245  124  244 1    
   246  124  245 1    
   247  125  126 1    
   248  126  246 1    
   249  126  247 1    
@<TRIPOS>SUBSTRUCTURE
     1 UNK         1 GROUP             0       ****    0 ROOT    
