@<TRIPOS>MOLECULE
3R540
247   249    1
SMALL
USER_CHARGES


@<TRIPOS>ATOM
      1 CA         -2.1526  -13.0541  -42.1680 C.3       0 UNK        -0.1800 
      2 C          -1.8857  -12.7281  -43.6302 C.2       0 UNK         0.5000 
      3 O          -1.1432  -13.4522  -44.2954 O.2       0 UNK        -0.5000 
      4 N          -2.4846  -11.6302  -44.1136 N.am      1 UNK        -0.5000 
      5 CA         -2.2537  -11.0053  -45.4231 C.3       1 UNK         0.1400 
      6 C6         -2.6555  -11.8886  -46.6380 C.3       23 UNK        -0.0398 
      7 S7         -4.3608  -12.5345  -46.5944 S.3       23 UNK        -0.2404 
      8 C8         -4.0249  -14.2726  -47.0264 C.3       23 UNK        -0.0205 
      9 C9         -5.2143  -14.9707  -47.6626 C.ar      23 UNK        -0.0193 
     10 C10        -5.7246  -14.5100  -48.8793 C.ar      23 UNK        -0.1150 
     11 C11        -6.7363  -15.2128  -49.5390 C.ar      23 UNK        -0.0193 
     12 C12        -7.2517  -16.3760  -48.9629 C.ar      23 UNK        -0.1150 
     13 C13        -6.7387  -16.8532  -47.7539 C.ar      23 UNK        -0.0193 
     14 C14        -5.7361  -16.1360  -47.0964 C.ar      23 UNK        -0.1150 
     15 C15        -7.2179  -18.1831  -47.2011 C.3       23 UNK        -0.0205 
     16 S16        -6.3840  -19.5631  -48.0467 S.3       23 UNK        -0.2404 
     17 C17        -4.6940  -19.4548  -47.3587 C.3       23 UNK        -0.0398 
     18 CA         -3.9335  -20.7981  -47.4639 C.3       11 UNK         0.1400 
     19 N          -2.4880  -20.6424  -47.2660 N.am      11 UNK        -0.5000 
     20 C          -1.5913  -21.6326  -47.3998 C.2       10 UNK         0.5000 
     21 O          -1.8818  -22.7756  -47.7485 O.2       10 UNK        -0.5000 
     22 CA         -0.1387  -21.3217  -47.0021 C.3       10 UNK         0.1400 
     23 CB          0.5768  -20.5111  -48.0934 C.3       10 UNK        -0.1800 
     24 N          -0.0661  -20.6224  -45.7198 N.am      10 UNK        -0.5000 
     25 C          -0.4893  -21.1322  -44.5533 C.2       9 UNK         0.5000 
     26 O          -0.8936  -22.2861  -44.4176 O.2       9 UNK        -0.5000 
     27 CA         -0.5291  -20.1755  -43.3494 C.3       9 UNK         0.1400 
     28 CB          0.8370  -20.0994  -42.6554 C.3       9 UNK        -0.1800 
     29 N          -0.9744  -18.8346  -43.7323 N.am      9 UNK        -0.5000 
     30 C          -2.2248  -18.5482  -44.1205 C.2       8 UNK         0.5000 
     31 O          -3.1343  -19.3766  -44.1564 O.2       8 UNK        -0.5000 
     32 CA         -2.5060  -17.1081  -44.5809 C.3       8 UNK         0.1400 
     33 CB         -2.9496  -16.2403  -43.3983 C.3       8 UNK        -0.1800 
     34 N          -1.3751  -16.4844  -45.2744 N.am      8 UNK        -0.5000 
     35 C          -0.9468  -16.8882  -46.4789 C.2       7 UNK         0.5000 
     36 O          -1.4823  -17.7989  -47.1134 O.2       7 UNK        -0.5000 
     37 CA          0.3129  -16.2034  -47.0458 C.3       7 UNK         0.1400 
     38 CB         -0.0046  -14.8077  -47.5951 C.3       7 UNK        -0.1800 
     39 N           1.4245  -16.0935  -46.0977 N.am      7 UNK        -0.5000 
     40 C           2.0211  -17.1251  -45.4827 C.2       6 UNK         0.5000 
     41 O           1.6188  -18.2861  -45.5620 O.2       6 UNK        -0.5000 
     42 CA          3.2765  -16.7984  -44.6454 C.3       6 UNK         0.1400 
     43 CB          4.1406  -18.0375  -44.3310 C.3       6 UNK        -0.1800 
     44 N           4.0984  -15.7408  -45.2399 N.am      6 UNK        -0.5000 
     45 C           4.7258  -15.7528  -46.4279 C.2       5 UNK         0.5000 
     46 O           4.7180  -16.7134  -47.1983 O.2       5 UNK        -0.5000 
     47 CA          5.4854  -14.4732  -46.8366 C.3       5 UNK         0.1400 
     48 CB          4.8966  -13.8811  -48.1284 C.3       5 UNK        -0.1800 
     49 N           5.4432  -13.4502  -45.7897 N.am      5 UNK        -0.5000 
     50 C           6.3713  -13.2826  -44.8370 C.2       4 UNK         0.5000 
     51 O           7.4222  -13.9221  -44.7866 O.2       4 UNK        -0.5000 
     52 CA          6.0664  -12.2413  -43.7397 C.3       4 UNK         0.1400 
     53 CB          6.7264  -10.8962  -44.0787 C.3       4 UNK        -0.1800 
     54 N           4.6328  -12.0263  -43.5242 N.am      4 UNK        -0.5000 
     55 C           3.7844  -12.9340  -43.0200 C.2       3 UNK         0.5000 
     56 O           4.1302  -14.0478  -42.6281 O.2       3 UNK        -0.5000 
     57 CA          2.2894  -12.5630  -43.0235 C.3       3 UNK         0.1400 
     58 CB          1.8837  -11.9071  -41.6960 C.3       3 UNK        -0.1800 
     59 N           1.9135  -11.6822  -44.1319 N.am      3 UNK        -0.5000 
     60 C           1.9984  -12.0021  -45.4294 C.2       2 UNK         0.5000 
     61 O           2.4343  -13.0815  -45.8361 O.2       2 UNK        -0.5000 
     62 CA          1.4634  -10.9510  -46.4212 C.3       2 UNK         0.1400 
     63 CB          1.9910  -11.1688  -47.8498 C.3       2 UNK        -0.1800 
     64 N           0.0054  -11.0137  -46.4356 N.am      2 UNK        -0.5000 
     65 C          -0.7884  -10.5115  -45.4792 C.2       1 UNK         0.5000 
     66 O          -0.3856   -9.7304  -44.6130 O.2       1 UNK        -0.5000 
     67 C          -4.5317  -21.8865  -46.5432 C.2       11 UNK         0.5000 
     68 O          -5.2087  -22.7895  -47.0393 O.2       11 UNK        -0.5000 
     69 N          -4.2161  -21.8159  -45.2405 N.am      12 UNK        -0.5000 
     70 CA         -4.6328  -22.7791  -44.2174 C.3       12 UNK         0.1400 
     71 CB         -4.1778  -22.2891  -42.8351 C.3       12 UNK        -0.1800 
     72 C          -4.1363  -24.2150  -44.4764 C.2       12 UNK         0.5000 
     73 O          -4.8663  -25.1657  -44.1958 O.2       12 UNK        -0.5000 
     74 N          -2.9424  -24.3541  -45.0676 N.am      13 UNK        -0.5000 
     75 CA         -2.3468  -25.6123  -45.5273 C.3       13 UNK         0.1400 
     76 CB         -0.8177  -25.4423  -45.5849 C.3       13 UNK        -0.1800 
     77 C          -2.9320  -26.1026  -46.8735 C.2       13 UNK         0.5000 
     78 O          -2.1932  -26.6244  -47.7110 O.2       13 UNK        -0.5000 
     79 N          -4.2466  -25.9182  -47.0664 N.am      14 UNK        -0.5000 
     80 CA         -5.0403  -26.2659  -48.2488 C.3       14 UNK         0.1400 
     81 CB         -5.1868  -27.7978  -48.3617 C.3       14 UNK        -0.1800 
     82 C          -4.4938  -25.6205  -49.5376 C.2       14 UNK         0.5000 
     83 O          -4.3298  -26.3065  -50.5483 O.2       14 UNK        -0.5000 
     84 N          -4.1750  -24.3190  -49.4600 N.am      15 UNK        -0.5000 
     85 CA         -3.5232  -23.5231  -50.5084 C.3       15 UNK         0.1400 
     86 CB         -4.4780  -23.3260  -51.7057 C.3       15 UNK        -0.1800 
     87 C          -2.1542  -24.1076  -50.9148 C.2       15 UNK         0.5000 
     88 O          -1.8743  -24.2477  -52.1041 O.2       15 UNK        -0.5000 
     89 N          -1.3514  -24.4883  -49.9122 N.am      16 UNK        -0.5000 
     90 CA         -0.0745  -25.2053  -50.0024 C.3       16 UNK         0.1400 
     91 CB          1.0232  -24.2811  -50.5642 C.3       16 UNK        -0.1800 
     92 C          -0.1980  -26.5342  -50.7791 C.2       16 UNK         0.5000 
     93 O           0.6429  -26.8367  -51.6265 O.2       16 UNK        -0.5000 
     94 N          -1.2738  -27.2802  -50.4892 N.am      17 UNK        -0.5000 
     95 CA         -1.7460  -28.4706  -51.2037 C.3       17 UNK         0.1400 
     96 CB         -0.7716  -29.6518  -51.0142 C.3       17 UNK        -0.1800 
     97 C          -2.0670  -28.1674  -52.6852 C.2       17 UNK         0.5000 
     98 O          -1.5782  -28.8552  -53.5838 O.2       17 UNK        -0.5000 
     99 N          -2.8906  -27.1297  -52.8930 N.am      18 UNK        -0.5000 
    100 CA        -3.3710  -26.5996  -54.1734 C.3       18 UNK         0.1400 
    101 CB        -4.3419  -27.5984  -54.8368 C.3       18 UNK        -0.1800 
    102 C         -2.2368  -26.1365  -55.1152 C.2       18 UNK         0.5000 
    103 O         -2.2164  -26.5076  -56.2910 O.2       18 UNK        -0.5000 
    104 N         -1.3160  -25.3287  -54.5772 N.am      19 UNK        -0.5000 
    105 CA        -0.1636  -24.7676  -55.2856 C.3       19 UNK         0.1400 
    106 CB         1.1050  -25.5152  -54.8460 C.3       19 UNK        -0.1800 
    107 C          0.0053  -23.2512  -55.0664 C.2       19 UNK         0.5000 
    108 O          0.6811  -22.6112  -55.8734 O.2       19 UNK        -0.5000 
    109 N         -0.5866  -22.6923  -54.0027 N.am      20 UNK        -0.5000 
    110 CA        -0.4649  -21.2894  -53.6141 C.3       20 UNK         0.1400 
    111 CB         0.6899  -21.1252  -52.6082 C.3       20 UNK        -0.1800 
    112 C         -1.8076  -20.7957  -53.0571 C.2       20 UNK         0.5000 
    113 O         -1.9503  -20.5948  -51.8477 O.2       20 UNK        -0.5000 
    114 N         -2.7855  -20.6197  -53.9557 N.am      21 UNK        -0.5000 
    115 CA        -4.0793  -19.9991  -53.6610 C.3       21 UNK         0.1400 
    116 CB        -4.9691  -20.0535  -54.9119 C.3       21 UNK        -0.1800 
    117 C         -3.8902  -18.5513  -53.1729 C.2       21 UNK         0.5000 
    118 O         -3.2340  -17.7650  -53.8597 O.2       21 UNK        -0.5000 
    119 N         -4.4258  -18.2555  -51.9826 N.am      22 UNK        -0.5000 
    120 CA        -4.2184  -17.0031  -51.2326 C.3       22 UNK         0.1400 
    121 C         -2.7666  -16.8072  -50.6927 C.2       22 UNK         0.5000 
    122 N         -1.9216  -17.8324  -50.6540 N.am      22 UNK        -0.7600 
    123 O         -2.4032  -15.7136  -50.2709 O.2       22 UNK        -0.5000 
    124 C124       -4.7703  -15.7424  -51.9659 C.3       23 UNK        -0.0398 
    125 S125       -6.5759  -15.8316  -52.2406 S.3       23 UNK        -0.2404 
    126 C126       -7.2161  -14.7589  -50.9093 C.3       23 UNK        -0.0205 
    127 H127       -1.3725  -13.7053  -41.7731 H         1 UNK         0.0600 
    128 H128       -3.1120  -13.5584  -42.0574 H         1 UNK         0.0600 
    129 H129       -2.1692  -12.1469  -41.5638 H         1 UNK         0.0600 
    130 H130       -3.0748  -11.0943  -43.4934 H         1 UNK         0.3000 
    131 H131       -2.8769  -10.1102  -45.4483 H         1 UNK         0.0600 
    132 H132       -1.9756  -12.7336  -46.7201 H         1 UNK         0.0800 
    133 H133       -2.5525  -11.3211  -47.5646 H         1 UNK         0.0800 
    134 H134       -3.2058  -14.3274  -47.7444 H         1 UNK         0.0800 
    135 H135       -3.6868  -14.7970  -46.1329 H         1 UNK         0.0800 
    136 H136       -5.3000  -13.6249  -49.3320 H         1 UNK         0.1150 
    137 H137       -8.0114  -16.9410  -49.4850 H         1 UNK         0.1150 
    138 H138       -5.3326  -16.5127  -46.1687 H         1 UNK         0.1150 
    139 H139       -7.0494  -18.2456  -46.1248 H         1 UNK         0.0800 
    140 H140       -8.2950  -18.2740  -47.3491 H         1 UNK         0.0800 
    141 H141       -4.7367  -19.1122  -46.3242 H         1 UNK         0.0800 
    142 H142       -4.1615  -18.6810  -47.9146 H         1 UNK         0.0800 
    143 H143       -4.0553  -21.1485  -48.4890 H         1 UNK         0.0600 
    144 H144       -2.1549  -19.7186  -47.0084 H         1 UNK         0.3000 
    145 H145        0.3859  -22.2730  -46.8915 H         1 UNK         0.0600 
    146 H146        1.6239  -20.3469  -47.8384 H         1 UNK         0.0600 
    147 H147        0.5506  -21.0364  -49.0489 H         1 UNK         0.0600 
    148 H148        0.1152  -19.5362  -48.2460 H         1 UNK         0.0600 
    149 H149        0.3154  -19.6801  -45.7312 H         1 UNK         0.3000 
    150 H150       -1.2462  -20.5748  -42.6293 H         1 UNK         0.0600 
    151 H151        1.1405  -21.0812  -42.2899 H         1 UNK         0.0600 
    152 H152        0.8115  -19.4256  -41.7990 H         1 UNK         0.0600 
    153 H153        1.6114  -19.7531  -43.3364 H         1 UNK         0.0600 
    154 H154       -0.2707  -18.1135  -43.7845 H         1 UNK         0.3000 
    155 H155       -3.3386  -17.1623  -45.2831 H         1 UNK         0.0600 
    156 H156       -3.3485  -15.2891  -43.7469 H         1 UNK         0.0600 
    157 H157       -3.7412  -16.7270  -42.8268 H         1 UNK         0.0600 
    158 H158       -2.1246  -16.0388  -42.7145 H         1 UNK         0.0600 
    159 H159       -0.9256  -15.6962  -44.8244 H         1 UNK         0.3000 
    160 H160        0.6587  -16.8187  -47.8789 H         1 UNK         0.0600 
    161 H161       -0.1905  -14.1023  -46.7869 H         1 UNK         0.0600 
    162 H162       -0.8817  -14.8229  -48.2415 H         1 UNK         0.0600 
    163 H163        0.8276  -14.4245  -48.1852 H         1 UNK         0.0600 
    164 H164        1.8198  -15.1675  -45.9772 H         1 UNK         0.3000 
    165 H165        2.9124  -16.4024  -43.6966 H         1 UNK         0.0600 
    166 H166        4.4473  -18.5595  -45.2379 H         1 UNK         0.0600 
    167 H167        5.0410  -17.7606  -43.7826 H         1 UNK         0.0600 
    168 H168        3.5979  -18.7503  -43.7126 H         1 UNK         0.0600 
    169 H169        4.1811  -14.9029  -44.6799 H         1 UNK         0.3000 
    170 H170        6.5207  -14.7564  -47.0365 H         1 UNK         0.0600 
    171 H171        4.9985  -14.5800  -48.9594 H         1 UNK         0.0600 
    172 H172        3.8355  -13.6551  -48.0233 H         1 UNK         0.0600 
    173 H173        5.4099  -12.9626  -48.4132 H         1 UNK         0.0600 
    174 H174        4.5840  -12.9179  -45.7371 H         1 UNK         0.3000 
    175 H175        6.4976  -12.6100  -42.8066 H         1 UNK         0.0600 
    176 H176        6.3204  -10.4683  -44.9963 H         1 UNK         0.0600 
    177 H177        6.5818  -10.1721  -43.2767 H         1 UNK         0.0600 
    178 H178        7.8019  -11.0131  -44.2189 H         1 UNK         0.0600 
    179 H179        4.2576  -11.1376  -43.8219 H         1 UNK         0.3000 
    180 H180        1.7214  -13.4896  -43.1330 H         1 UNK         0.0600 
    181 H181        2.3970  -10.9570  -41.5427 H         1 UNK         0.0600 
    182 H182        2.1259  -12.5529  -40.8510 H         1 UNK         0.0600 
    183 H183        0.8103  -11.7187  -41.6626 H         1 UNK         0.0600 
    184 H184        1.4762  -10.8027  -43.8871 H         1 UNK         0.3000 
    185 H185        1.7889   -9.9633  -46.0880 H         1 UNK         0.0600 
    186 H186        3.0812  -11.1408  -47.8705 H         1 UNK         0.0600 
    187 H187        1.6793  -12.1303  -48.2584 H         1 UNK         0.0600 
    188 H188        1.6339  -10.3894  -48.5230 H         1 UNK         0.0600 
    189 H189       -0.3897  -11.6643  -47.0967 H         1 UNK         0.3000 
    190 H190       -3.6713  -21.0224  -44.9117 H         1 UNK         0.3000 
    191 H191       -5.7243  -22.8057  -44.2241 H         1 UNK         0.0600 
    192 H192       -3.0918  -22.2276  -42.7683 H         1 UNK         0.0600 
    193 H193       -4.5839  -21.3023  -42.6120 H         1 UNK         0.0600 
    194 H194       -4.5169  -22.9657  -42.0497 H         1 UNK         0.0600 
    195 H195       -2.3952  -23.5177  -45.2395 H         1 UNK         0.3000 
    196 H196       -2.5647  -26.3872  -44.7900 H         1 UNK         0.0600 
    197 H197       -0.4204  -25.1229  -44.6213 H         1 UNK         0.0600 
    198 H198       -0.5245  -24.7009  -46.3286 H         1 UNK         0.0600 
    199 H199       -0.3246  -26.3805  -45.8418 H         1 UNK         0.0600 
    200 H200       -4.7587  -25.4779  -46.3119 H         1 UNK         0.3000 
    201 H201       -6.0343  -25.8452  -48.0916 H         1 UNK         0.0600 
    202 H202       -5.8571  -28.0675  -49.1787 H         1 UNK         0.0600 
    203 H203       -5.6034  -28.2218  -47.4481 H         1 UNK         0.0600 
    204 H204       -4.2292  -28.2843  -48.5501 H         1 UNK         0.0600 
    205 H205       -4.3361  -23.8460  -48.5763 H         1 UNK         0.3000 
    206 H206       -3.3104  -22.5394  -50.0932 H         1 UNK         0.0600 
    207 H207       -5.3658  -22.7676  -51.4097 H         1 UNK         0.0600 
    208 H208       -4.8066  -24.2730  -52.1319 H         1 UNK         0.0600 
    209 H209       -3.9957  -22.7715  -52.5081 H         1 UNK         0.0600 
    210 H210       -1.6613  -24.2655  -48.9705 H         1 UNK         0.3000 
    211 H211        0.2021  -25.4691  -48.9806 H         1 UNK         0.0600 
    212 H212        1.0890  -23.3558  -49.9925 H         1 UNK         0.0600 
    213 H213        2.0007  -24.7618  -50.5159 H         1 UNK         0.0600 
    214 H214        0.8376  -24.0251  -51.6074 H         1 UNK         0.0600 
    215 H215       -1.8748  -26.9512  -49.7400 H         1 UNK         0.3000 
    216 H216       -2.6918  -28.7494  -50.7368 H         1 UNK         0.0600 
    217 H217       -1.1803  -30.5652  -51.4476 H         1 UNK         0.0600 
    218 H218        0.1914  -29.4679  -51.4909 H         1 UNK         0.0600 
    219 H219       -0.5911  -29.8467  -49.9571 H         1 UNK         0.0600 
    220 H220       -3.2563  -26.6593  -52.0680 H         1 UNK         0.3000 
    221 H221       -3.9430  -25.7030  -53.9320 H         1 UNK         0.0600 
    222 H222       -3.8371  -28.5182  -55.1340 H         1 UNK         0.0600 
    223 H223       -5.1540  -27.8651  -54.1605 H         1 UNK         0.0600 
    224 H224       -4.7940  -27.1689  -55.7315 H         1 UNK         0.0600 
    225 H225       -1.4271  -25.0642  -53.5996 H         1 UNK         0.3000 
    226 H226       -0.2845  -24.9082  -56.3615 H         1 UNK         0.0600 
    227 H227        1.0117  -26.5876  -55.0185 H         1 UNK         0.0600 
    228 H228        1.9771  -25.1690  -55.4020 H         1 UNK         0.0600 
    229 H229        1.3101  -25.3636  -53.7861 H         1 UNK         0.0600 
    230 H230       -1.1347  -23.2708  -53.3684 H         1 UNK         0.3000 
    231 H231       -0.2403  -20.6758  -54.4890 H         1 UNK         0.0600 
    232 H232        0.8312  -20.0754  -52.3488 H         1 UNK         0.0600 
    233 H233        1.6311  -21.4897  -53.0198 H         1 UNK         0.0600 
    234 H234        0.4957  -21.6646  -51.6818 H         1 UNK         0.0600 
    235 H235       -2.5888  -20.8073  -54.9278 H         1 UNK         0.3000 
    236 H236       -4.5660  -20.5745  -52.8724 H         1 UNK         0.0600 
    237 H237       -5.1429  -21.0824  -55.2277 H         1 UNK         0.0600 
    238 H238       -5.9435  -19.6043  -54.7158 H         1 UNK         0.0600 
    239 H239       -4.5220  -19.5153  -55.7487 H         1 UNK         0.0600 
    240 H240       -4.9429  -18.9691  -51.4903 H         1 UNK         0.3000 
    241 H241       -4.8048  -17.1272  -50.3227 H         1 UNK         0.0600 
    242 H242       -1.0019  -17.6838  -50.2755 H         1 UNK         0.3800 
    243 H243       -2.1724  -18.7489  -51.0066 H         1 UNK         0.3800 
    244 H244       -4.2795  -15.6066  -52.9293 H         1 UNK         0.0800 
    245 H245       -4.5503  -14.8333  -51.4060 H         1 UNK         0.0800 
    246 H246       -8.3066  -14.7708  -50.9348 H         1 UNK         0.0800 
    247 H247       -6.9159  -13.7277  -51.1023 H         1 UNK         0.0800 
@<TRIPOS>BOND
     1    1    2 1    
     2    1  127 1    
     3    1  128 1    
     4    1  129 1    
     5    2    3 2    
     6    2    4 am   BACKBONE|DICT|INTERRES
     7    4    5 1    
     8    4  130 1    
     9    5    6 1    
    10    5   65 1    
    11    5  131 1    
    12    6    7 1    
    13    6  132 1    
    14    6  133 1    
    15    7    8 1    
    16    8    9 1    
    17    8  134 1    
    18    8  135 1    
    19    9   10 ar   
    20    9   14 ar   
    21   10   11 ar   
    22   10  136 1    
    23   11   12 ar   
    24   11  126 1    
    25   12   13 ar   
    26   12  137 1    
    27   13   14 ar   
    28   13   15 1    
    29   14  138 1    
    30   15   16 1    
    31   15  139 1    
    32   15  140 1    
    33   16   17 1    
    34   17   18 1    
    35   17  141 1    
    36   17  142 1    
    37   18   19 1    
    38   18   67 1    
    39   18  143 1    
    40   19   20 am   BACKBONE|DICT|INTERRES
    41   19  144 1    
    42   20   21 2    
    43   20   22 1    
    44   22   23 1    
    45   22   24 1    
    46   22  145 1    
    47   23  146 1    
    48   23  147 1    
    49   23  148 1    
    50   24   25 am   BACKBONE|DICT|INTERRES
    51   24  149 1    
    52   25   26 2    
    53   25   27 1    
    54   27   28 1    
    55   27   29 1    
    56   27  150 1    
    57   28  151 1    
    58   28  152 1    
    59   28  153 1    
    60   29   30 am   BACKBONE|DICT|INTERRES
    61   29  154 1    
    62   30   31 2    
    63   30   32 1    
    64   32   33 1    
    65   32   34 1    
    66   32  155 1    
    67   33  156 1    
    68   33  157 1    
    69   33  158 1    
    70   34   35 am   BACKBONE|DICT|INTERRES
    71   34  159 1    
    72   35   36 2    
    73   35   37 1    
    74   37   38 1    
    75   37   39 1    
    76   37  160 1    
    77   38  161 1    
    78   38  162 1    
    79   38  163 1    
    80   39   40 am   BACKBONE|DICT|INTERRES
    81   39  164 1    
    82   40   41 2    
    83   40   42 1    
    84   42   43 1    
    85   42   44 1    
    86   42  165 1    
    87   43  166 1    
    88   43  167 1    
    89   43  168 1    
    90   44   45 am   BACKBONE|DICT|INTERRES
    91   44  169 1    
    92   45   46 2    
    93   45   47 1    
    94   47   48 1    
    95   47   49 1    
    96   47  170 1    
    97   48  171 1    
    98   48  172 1    
    99   48  173 1    
   100   49   50 am   BACKBONE|DICT|INTERRES
   101   49  174 1    
   102   50   51 2    
   103   50   52 1    
   104   52   53 1    
   105   52   54 1    
   106   52  175 1    
   107   53  176 1    
   108   53  177 1    
   109   53  178 1    
   110   54   55 am   BACKBONE|DICT|INTERRES
   111   54  179 1    
   112   55   56 2    
   113   55   57 1    
   114   57   58 1    
   115   57   59 1    
   116   57  180 1    
   117   58  181 1    
   118   58  182 1    
   119   58  183 1    
   120   59   60 am   BACKBONE|DICT|INTERRES
   121   59  184 1    
   122   60   61 2    
   123   60   62 1    
   124   62   63 1    
   125   62   64 1    
   126   62  185 1    
   127   63  186 1    
   128   63  187 1    
   129   63  188 1    
   130   64   65 am   BACKBONE|DICT|INTERRES
   131   64  189 1    
   132   65   66 2    
   133   67   68 2    
   134   67   69 am   BACKBONE|DICT|INTERRES
   135   69   70 1    
   136   69  190 1    
   137   70   71 1    
   138   70   72 1    
   139   70  191 1    
   140   71  192 1    
   141   71  193 1    
   142   71  194 1    
   143   72   73 2    
   144   72   74 am   BACKBONE|DICT|INTERRES
   145   74   75 1    
   146   74  195 1    
   147   75   76 1    
   148   75   77 1    
   149   75  196 1    
   150   76  197 1    
   151   76  198 1    
   152   76  199 1    
   153   77   78 2    
   154   77   79 am   BACKBONE|DICT|INTERRES
   155   79   80 1    
   156   79  200 1    
   157   80   81 1    
   158   80   82 1    
   159   80  201 1    
   160   81  202 1    
   161   81  203 1    
   162   81  204 1    
   163   82   83 2    
   164   82   84 am   BACKBONE|DICT|INTERRES
   165   84   85 1    
   166   84  205 1    
   167   85   86 1    
   168   85   87 1    
   169   85  206 1    
   170   86  207 1    
   171   86  208 1    
   172   86  209 1    
   173   87   88 2    
   174   87   89 am   BACKBONE|DICT|INTERRES
   175   89   90 1    
   176   89  210 1    
   177   90   91 1    
   178   90   92 1    
   179   90  211 1    
   180   91  212 1    
   181   91  213 1    
   182   91  214 1    
   183   92   93 2    
   184   92   94 am   BACKBONE|DICT|INTERRES
   185   94   95 1    
   186   94  215 1    
   187   95   96 1    
   188   95   97 1    
   189   95  216 1    
   190   96  217 1    
   191   96  218 1    
   192   96  219 1    
   193   97   98 2    
   194   97   99 am   BACKBONE|DICT|INTERRES
   195   99  100 1    
   196   99  220 1    
   197  100  101 1    
   198  100  102 1    
   199  100  221 1    
   200  101  222 1    
   201  101  223 1    
   202  101  224 1    
   203  102  103 2    
   204  102  104 am   BACKBONE|DICT|INTERRES
   205  104  105 1    
   206  104  225 1    
   207  105  106 1    
   208  105  107 1    
   209  105  226 1    
   210  106  227 1    
   211  106  228 1    
   212  106  229 1    
   213  107  108 2    
   214  107  109 am   BACKBONE|DICT|INTERRES
   215  109  110 1    
   216  109  230 1    
   217  110  111 1    
   218  110  112 1    
   219  110  231 1    
   220  111  232 1    
   221  111  233 1    
   222  111  234 1    
   223  112  113 2    
   224  112  114 am   BACKBONE|DICT|INTERRES
   225  114  115 1    
   226  114  235 1    
   227  115  116 1    
   228  115  117 1    
   229  115  236 1    
   230  116  237 1    
   231  116  238 1    
   232  116  239 1    
   233  117  118 2    
   234  117  119 am   BACKBONE|DICT|INTERRES
   235  119  120 1    
   236  119  240 1    
   237  120  121 1    
   238  120  124 1    
   239  120  241 1    
   240  121  122 am   BACKBONE|DICT|INTERRES
   241  121  123 2    
   242  122  242 1    
   243  122  243 1    
   244  124  125 1    
   245  124  244 1    
   246  124  245 1    
   247  125  126 1    
   248  126  246 1    
   249  126  247 1    
@<TRIPOS>SUBSTRUCTURE
     1 UNK         1 GROUP             0       ****    0 ROOT    
