@<TRIPOS>MOLECULE
3R540
247   249    1
SMALL
USER_CHARGES


@<TRIPOS>ATOM
      1 CA          3.4114  -16.3813  -47.7960 C.3       0 UNK        -0.1800 
      2 C           2.1387  -15.5814  -48.0236 C.2       0 UNK         0.5000 
      3 O           1.1598  -15.7535  -47.3001 O.2       0 UNK        -0.5000 
      4 N           2.1535  -14.6880  -49.0189 N.am      1 UNK        -0.5000 
      5 CA          1.0399  -13.8137  -49.4072 C.3       1 UNK         0.1400 
      6 C6          1.1243  -13.4205  -50.9054 C.3       23 UNK        -0.0398 
      7 S7          0.5850  -14.7916  -51.9823 S.3       23 UNK        -0.2404 
      8 C8          2.1206  -15.7305  -52.2573 C.3       23 UNK        -0.0205 
      9 C9          1.8432  -17.2267  -52.2863 C.ar      23 UNK        -0.0193 
     10 C10         1.1885  -17.7893  -53.3844 C.ar      23 UNK        -0.1150 
     11 C11         0.9192  -19.1591  -53.4255 C.ar      23 UNK        -0.0193 
     12 C12         1.3189  -19.9726  -52.3605 C.ar      23 UNK        -0.1150 
     13 C13         2.0027  -19.4311  -51.2683 C.ar      23 UNK        -0.0193 
     14 C14         2.2523  -18.0540  -51.2336 C.ar      23 UNK        -0.1150 
     15 C15         2.5500  -20.3481  -50.1785 C.3       23 UNK        -0.0205 
     16 S16         1.8688  -20.0104  -48.5247 S.3       23 UNK        -0.2404 
     17 C17         0.2850  -20.9139  -48.5468 C.3       23 UNK        -0.0398 
     18 CA          0.3204  -22.2372  -47.7408 C.3       11 UNK         0.1400 
     19 N           0.6679  -22.0418  -46.3259 N.am      11 UNK        -0.5000 
     20 C           0.9175  -23.0394  -45.4634 C.2       10 UNK         0.5000 
     21 O           0.9609  -24.2249  -45.7913 O.2       10 UNK        -0.5000 
     22 CA          1.0781  -22.6655  -43.9768 C.3       10 UNK         0.1400 
     23 CB          2.5125  -22.2158  -43.6623 C.3       10 UNK        -0.1800 
     24 N           0.1220  -21.6409  -43.5523 N.am      10 UNK        -0.5000 
     25 C          -1.2054  -21.8244  -43.5036 C.2       9 UNK         0.5000 
     26 O          -1.7480  -22.9007  -43.7425 O.2       9 UNK        -0.5000 
     27 CA         -2.0832  -20.5989  -43.1935 C.3       9 UNK         0.1400 
     28 CB         -2.2890  -20.4283  -41.6810 C.3       9 UNK        -0.1800 
     29 N          -1.5396  -19.3696  -43.7674 N.am      9 UNK        -0.5000 
     30 C          -1.4810  -19.1085  -45.0814 C.2       8 UNK         0.5000 
     31 O          -1.9336  -19.8555  -45.9511 O.2       8 UNK        -0.5000 
     32 CA         -0.7437  -17.8202  -45.4879 C.3       8 UNK         0.1400 
     33 CB         -1.6918  -16.6141  -45.4495 C.3       8 UNK        -0.1800 
     34 N           0.4217  -17.5555  -44.6415 N.am      8 UNK        -0.5000 
     35 C           1.5210  -18.3235  -44.6319 C.2       7 UNK         0.5000 
     36 O           1.6549  -19.3246  -45.3326 O.2       7 UNK        -0.5000 
     37 CA          2.6232  -17.9633  -43.6177 C.3       7 UNK         0.1400 
     38 CB          3.5431  -16.8662  -44.1702 C.3       7 UNK        -0.1800 
     39 N           2.0903  -17.5388  -42.3238 N.am      7 UNK        -0.5000 
     40 C           1.3294  -18.2958  -41.5206 C.2       6 UNK         0.5000 
     41 O           1.0315  -19.4615  -41.7769 O.2       6 UNK        -0.5000 
     42 CA          0.7939  -17.6461  -40.2280 C.3       6 UNK         0.1400 
     43 CB          1.5357  -18.1998  -39.0022 C.3       6 UNK        -0.1800 
     44 N           0.8872  -16.1826  -40.2204 N.am      6 UNK        -0.5000 
     45 C           0.1719  -15.3650  -41.0037 C.2       5 UNK         0.5000 
     46 O          -0.6694  -15.7605  -41.8145 O.2       5 UNK        -0.5000 
     47 CA          0.5197  -13.8719  -40.8957 C.3       5 UNK         0.1400 
     48 CB          1.8035  -13.5680  -41.6873 C.3       5 UNK        -0.1800 
     49 N          -0.5616  -13.0441  -41.4221 N.am      5 UNK        -0.5000 
     50 C          -1.5151  -12.4689  -40.6770 C.2       4 UNK         0.5000 
     51 O          -1.5754  -12.5772  -39.4511 O.2       4 UNK        -0.5000 
     52 CA         -2.5684  -11.6029  -41.3996 C.3       4 UNK         0.1400 
     53 CB         -2.2790  -10.1104  -41.1728 C.3       4 UNK        -0.1800 
     54 N          -2.6361  -11.8491  -42.8395 N.am      4 UNK        -0.5000 
     55 C          -3.2419  -12.9000  -43.4063 C.2       3 UNK         0.5000 
     56 O          -3.8816  -13.7417  -42.7751 O.2       3 UNK        -0.5000 
     57 CA         -3.1093  -13.0389  -44.9372 C.3       3 UNK         0.1400 
     58 CB         -4.3697  -12.5045  -45.6345 C.3       3 UNK        -0.1800 
     59 N          -1.9303  -12.3876  -45.5245 N.am      3 UNK        -0.5000 
     60 C          -0.6563  -12.6670  -45.2188 C.2       2 UNK         0.5000 
     61 O          -0.3234  -13.4621  -44.3411 O.2       2 UNK        -0.5000 
     62 CA          0.4165  -11.9960  -46.0828 C.3       2 UNK         0.1400 
     63 CB          1.7184  -11.7257  -45.3072 C.3       2 UNK        -0.1800 
     64 N           0.6797  -12.9168  -47.1755 N.am      2 UNK        -0.5000 
     65 C           0.9323  -12.6070  -48.4491 C.2       1 UNK         0.5000 
     66 O           1.0751  -11.4545  -48.8608 O.2       1 UNK        -0.5000 
     67 C          -1.0156  -23.0010  -47.8882 C.2       11 UNK         0.5000 
     68 O          -1.1114  -23.9176  -48.7055 O.2       11 UNK        -0.5000 
     69 N          -2.0165  -22.6425  -47.0691 N.am      12 UNK        -0.5000 
     70 CA         -3.3175  -23.3143  -47.0186 C.3       12 UNK         0.1400 
     71 CB         -4.3007  -22.4893  -46.1770 C.3       12 UNK        -0.1800 
     72 C          -3.2260  -24.7668  -46.5157 C.2       12 UNK         0.5000 
     73 O          -3.8673  -25.6433  -47.0938 O.2       12 UNK        -0.5000 
     74 N          -2.3909  -25.0136  -45.4969 N.am      13 UNK        -0.5000 
     75 CA         -2.0793  -26.3459  -44.9686 C.3       13 UNK         0.1400 
     76 CB         -1.2517  -26.2082  -43.6823 C.3       13 UNK        -0.1800 
     77 C          -1.3550  -27.2476  -45.9882 C.2       13 UNK         0.5000 
     78 O          -1.5577  -28.4619  -45.9767 O.2       13 UNK        -0.5000 
     79 N          -0.5680  -26.6343  -46.8827 N.am      14 UNK        -0.5000 
     80 CA          0.0646  -27.2748  -48.0383 C.3       14 UNK         0.1400 
     81 CB          1.2865  -26.4421  -48.4618 C.3       14 UNK        -0.1800 
     82 C          -0.9018  -27.4969  -49.2255 C.2       14 UNK         0.5000 
     83 O          -0.4694  -28.0149  -50.2558 O.2       14 UNK        -0.5000 
     84 N          -2.1792  -27.1142  -49.0670 N.am      15 UNK        -0.5000 
     85 CA         -3.2854  -27.2385  -50.0212 C.3       15 UNK         0.1400 
     86 CB         -3.5703  -28.7178  -50.3579 C.3       15 UNK        -0.1800 
     87 C          -3.1223  -26.3484  -51.2696 C.2       15 UNK         0.5000 
     88 O          -3.5967  -26.7101  -52.3478 O.2       15 UNK        -0.5000 
     89 N          -2.4757  -25.1893  -51.1013 N.am      16 UNK        -0.5000 
     90 CA         -2.2406  -24.2041  -52.1503 C.3       16 UNK         0.1400 
     91 CB         -0.9109  -24.5192  -52.8638 C.3       16 UNK        -0.1800 
     92 C          -2.2734  -22.8087  -51.5144 C.2       16 UNK         0.5000 
     93 O          -1.2582  -22.1141  -51.5199 O.2       16 UNK        -0.5000 
     94 N          -3.4307  -22.4556  -50.9296 N.am      17 UNK        -0.5000 
     95 CA         -3.6711  -21.2332  -50.1532 C.3       17 UNK         0.1400 
     96 CB         -5.1537  -21.1551  -49.7588 C.3       17 UNK        -0.1800 
     97 C          -3.2340  -19.9519  -50.8815 C.2       17 UNK         0.5000 
     98 O          -3.6222  -19.7560  -52.0355 O.2       17 UNK        -0.5000 
     99 N          -2.4264  -19.1420  -50.1838 N.am      18 UNK        -0.5000 
    100 CA        -1.7046  -17.9729  -50.6829 C.3       18 UNK         0.1400 
    101 CB        -0.9239  -17.3502  -49.5164 C.3       18 UNK        -0.1800 
    102 C         -2.6303  -16.9399  -51.3424 C.2       18 UNK         0.5000 
    103 O         -3.4016  -16.2821  -50.6419 O.2       18 UNK        -0.5000 
    104 N         -2.5870  -16.8804  -52.6799 N.am      19 UNK        -0.5000 
    105 CA        -3.4113  -16.0883  -53.6041 C.3       19 UNK         0.1400 
    106 CB        -3.2434  -14.5786  -53.3483 C.3       19 UNK        -0.1800 
    107 C         -4.9039  -16.4842  -53.6480 C.2       19 UNK         0.5000 
    108 O         -5.5402  -16.3128  -54.6883 O.2       19 UNK        -0.5000 
    109 N         -5.4366  -17.0068  -52.5379 N.am      20 UNK        -0.5000 
    110 CA        -6.8175  -17.4459  -52.3604 C.3       20 UNK         0.1400 
    111 CB        -7.0627  -17.7023  -50.8657 C.3       20 UNK        -0.1800 
    112 C         -7.1876  -18.6910  -53.1864 C.2       20 UNK         0.5000 
    113 O         -8.3563  -18.8347  -53.5492 O.2       20 UNK        -0.5000 
    114 N         -6.2097  -19.5623  -53.4676 N.am      21 UNK        -0.5000 
    115 CA        -6.4032  -20.7712  -54.2647 C.3       21 UNK         0.1400 
    116 CB        -6.7245  -21.9686  -53.3520 C.3       21 UNK        -0.1800 
    117 C         -5.1835  -21.0522  -55.1484 C.2       21 UNK         0.5000 
    118 O         -5.3308  -21.1326  -56.3689 O.2       21 UNK        -0.5000 
    119 N         -4.0090  -21.1967  -54.5197 N.am      22 UNK        -0.5000 
    120 CA        -2.7417  -21.6128  -55.1453 C.3       22 UNK         0.1400 
    121 C         -2.8137  -22.9899  -55.8834 C.2       22 UNK         0.5000 
    122 N         -1.8753  -23.3107  -56.7650 N.am      22 UNK        -0.7600 
    123 O         -3.6810  -23.8169  -55.6117 O.2       22 UNK        -0.5000 
    124 C124       -2.0972  -20.4611  -55.9677 C.3       23 UNK        -0.0398 
    125 S125       -1.4648  -19.1677  -54.8514 S.3       23 UNK        -0.2404 
    126 C126        0.2402  -19.7675  -54.6406 C.3       23 UNK        -0.0205 
    127 H127        4.0112  -16.4481  -48.7035 H         1 UNK         0.0600 
    128 H128        3.1694  -17.3942  -47.4735 H         1 UNK         0.0600 
    129 H129        4.0147  -15.9052  -47.0242 H         1 UNK         0.0600 
    130 H130        3.0094  -14.5509  -49.5355 H         1 UNK         0.3000 
    131 H131        0.1043  -14.3586  -49.2688 H         1 UNK         0.0600 
    132 H132        0.4573  -12.5851  -51.1252 H         1 UNK         0.0800 
    133 H133        2.1266  -13.0879  -51.1796 H         1 UNK         0.0800 
    134 H134        2.5625  -15.4204  -53.2052 H         1 UNK         0.0800 
    135 H135        2.8585  -15.5000  -51.4902 H         1 UNK         0.0800 
    136 H136        0.8832  -17.1580  -54.2073 H         1 UNK         0.1150 
    137 H137        1.1255  -21.0358  -52.3966 H         1 UNK         0.1150 
    138 H138        2.7814  -17.6331  -50.3919 H         1 UNK         0.1150 
    139 H139        2.3859  -21.3977  -50.4277 H         1 UNK         0.0800 
    140 H140        3.6317  -20.2158  -50.1344 H         1 UNK         0.0800 
    141 H141        0.0095  -21.0983  -49.5846 H         1 UNK         0.0800 
    142 H142       -0.4787  -20.2498  -48.1433 H         1 UNK         0.0800 
    143 H143        1.0960  -22.8687  -48.1792 H         1 UNK         0.0600 
    144 H144        0.7257  -21.0838  -45.9961 H         1 UNK         0.3000 
    145 H145        0.8779  -23.5628  -43.3878 H         1 UNK         0.0600 
    146 H146        2.6224  -21.9526  -42.6100 H         1 UNK         0.0600 
    147 H147        3.2226  -23.0158  -43.8745 H         1 UNK         0.0600 
    148 H148        2.8108  -21.3531  -44.2560 H         1 UNK         0.0600 
    149 H149        0.5000  -20.7406  -43.2782 H         1 UNK         0.3000 
    150 H150       -3.0626  -20.7704  -43.6442 H         1 UNK         0.0600 
    151 H151       -2.7659  -21.3118  -41.2548 H         1 UNK         0.0600 
    152 H152       -2.9324  -19.5756  -41.4635 H         1 UNK         0.0600 
    153 H153       -1.3477  -20.2822  -41.1527 H         1 UNK         0.0600 
    154 H154       -1.1087  -18.7183  -43.1278 H         1 UNK         0.3000 
    155 H155       -0.3947  -17.9487  -46.5146 H         1 UNK         0.0600 
    156 H156       -2.0242  -16.3933  -44.4341 H         1 UNK         0.0600 
    157 H157       -1.2021  -15.7233  -45.8423 H         1 UNK         0.0600 
    158 H158       -2.5783  -16.7915  -46.0595 H         1 UNK         0.0600 
    159 H159        0.3676  -16.7570  -44.0243 H         1 UNK         0.3000 
    160 H160        3.2246  -18.8586  -43.4470 H         1 UNK         0.0600 
    161 H161        4.3108  -16.5892  -43.4475 H         1 UNK         0.0600 
    162 H162        2.9875  -15.9654  -44.4357 H         1 UNK         0.0600 
    163 H163        4.0575  -17.2176  -45.0642 H         1 UNK         0.0600 
    164 H164        2.2922  -16.5938  -42.0361 H         1 UNK         0.3000 
    165 H165       -0.2598  -17.9197  -40.1424 H         1 UNK         0.0600 
    166 H166        1.1155  -17.8079  -38.0758 H         1 UNK         0.0600 
    167 H167        1.4589  -19.2871  -38.9568 H         1 UNK         0.0600 
    168 H168        2.5964  -17.9466  -39.0252 H         1 UNK         0.0600 
    169 H169        1.5652  -15.7835  -39.5867 H         1 UNK         0.3000 
    170 H170        0.6990  -13.6294  -39.8461 H         1 UNK         0.0600 
    171 H171        2.0292  -12.5014  -41.6793 H         1 UNK         0.0600 
    172 H172        1.7237  -13.8838  -42.7278 H         1 UNK         0.0600 
    173 H173        2.6628  -14.0825  -41.2560 H         1 UNK         0.0600 
    174 H174       -0.6311  -13.0135  -42.4345 H         1 UNK         0.3000 
    175 H175       -3.5406  -11.8314  -40.9576 H         1 UNK         0.0600 
    176 H176       -3.0496   -9.4857  -41.6249 H         1 UNK         0.0600 
    177 H177       -1.3170   -9.8182  -41.5958 H         1 UNK         0.0600 
    178 H178       -2.2548   -9.8736  -40.1082 H         1 UNK         0.0600 
    179 H179       -2.1396  -11.2039  -43.4358 H         1 UNK         0.3000 
    180 H180       -3.0335  -14.1055  -45.1527 H         1 UNK         0.0600 
    181 H181       -4.4845  -11.4298  -45.4880 H         1 UNK         0.0600 
    182 H182       -5.2675  -12.9867  -45.2451 H         1 UNK         0.0600 
    183 H183       -4.3400  -12.6975  -46.7071 H         1 UNK         0.0600 
    184 H184       -2.1141  -11.7340  -46.2720 H         1 UNK         0.3000 
    185 H185        0.0243  -11.0502  -46.4626 H         1 UNK         0.0600 
    186 H186        2.1790  -12.6493  -44.9541 H         1 UNK         0.0600 
    187 H187        2.4469  -11.2101  -45.9331 H         1 UNK         0.0600 
    188 H188        1.5309  -11.0964  -44.4364 H         1 UNK         0.0600 
    189 H189        0.6165  -13.9047  -46.9385 H         1 UNK         0.3000 
    190 H190       -1.8815  -21.8569  -46.4413 H         1 UNK         0.3000 
    191 H191       -3.7061  -23.3566  -48.0372 H         1 UNK         0.0600 
    192 H192       -4.3843  -21.4694  -46.5530 H         1 UNK         0.0600 
    193 H193       -5.2982  -22.9294  -46.2040 H         1 UNK         0.0600 
    194 H194       -3.9956  -22.4381  -45.1327 H         1 UNK         0.0600 
    195 H195       -1.9596  -24.2253  -45.0194 H         1 UNK         0.3000 
    196 H196       -3.0241  -26.8306  -44.7142 H         1 UNK         0.0600 
    197 H197       -1.0419  -27.1856  -43.2462 H         1 UNK         0.0600 
    198 H198       -1.7838  -25.6244  -42.9310 H         1 UNK         0.0600 
    199 H199       -0.2952  -25.7207  -43.8700 H         1 UNK         0.0600 
    200 H200       -0.4142  -25.6377  -46.7835 H         1 UNK         0.3000 
    201 H201        0.4234  -28.2595  -47.7324 H         1 UNK         0.0600 
    202 H202        1.9758  -26.3013  -47.6290 H         1 UNK         0.0600 
    203 H203        0.9991  -25.4568  -48.8270 H         1 UNK         0.0600 
    204 H204        1.8407  -26.9366  -49.2603 H         1 UNK         0.0600 
    205 H205       -2.4335  -26.6744  -48.1904 H         1 UNK         0.3000 
    206 H206       -4.1659  -26.8553  -49.5045 H         1 UNK         0.0600 
    207 H207       -3.6829  -29.3135  -49.4521 H         1 UNK         0.0600 
    208 H208       -4.4955  -28.8175  -50.9266 H         1 UNK         0.0600 
    209 H209       -2.7730  -29.1606  -50.9552 H         1 UNK         0.0600 
    210 H210       -2.1019  -24.9493  -50.1868 H         1 UNK         0.3000 
    211 H211       -3.0475  -24.2360  -52.8853 H         1 UNK         0.0600 
    212 H212       -0.0748  -24.5307  -52.1632 H         1 UNK         0.0600 
    213 H213       -0.6879  -23.7779  -53.6315 H         1 UNK         0.0600 
    214 H214       -0.9491  -25.4919  -53.3542 H         1 UNK         0.0600 
    215 H215       -4.2006  -23.1059  -50.9794 H         1 UNK         0.3000 
    216 H216       -3.0851  -21.3201  -49.2390 H         1 UNK         0.0600 
    217 H217       -5.3309  -20.3140  -49.0874 H         1 UNK         0.0600 
    218 H218       -5.4783  -22.0556  -49.2378 H         1 UNK         0.0600 
    219 H219       -5.7982  -21.0186  -50.6271 H         1 UNK         0.0600 
    220 H220       -2.2384  -19.3767  -49.2220 H         1 UNK         0.3000 
    221 H221       -0.9850  -18.3246  -51.4230 H         1 UNK         0.0600 
    222 H222       -1.5817  -17.0019  -48.7193 H         1 UNK         0.0600 
    223 H223       -0.2166  -18.0546  -49.0853 H         1 UNK         0.0600 
    224 H224       -0.3407  -16.4992  -49.8580 H         1 UNK         0.0600 
    225 H225       -1.9730  -17.5373  -53.1453 H         1 UNK         0.3000 
    226 H226       -3.0124  -16.2972  -54.5979 H         1 UNK         0.0600 
    227 H227       -2.1938  -14.2873  -53.3851 H         1 UNK         0.0600 
    228 H228       -3.7687  -13.9958  -54.1058 H         1 UNK         0.0600 
    229 H229       -3.6409  -14.2814  -52.3776 H         1 UNK         0.0600 
    230 H230       -4.8366  -17.0490  -51.7213 H         1 UNK         0.3000 
    231 H231       -7.4712  -16.6321  -52.6808 H         1 UNK         0.0600 
    232 H232       -6.4016  -18.4784  -50.4796 H         1 UNK         0.0600 
    233 H233       -8.0895  -18.0234  -50.6852 H         1 UNK         0.0600 
    234 H234       -6.8965  -16.7991  -50.2784 H         1 UNK         0.0600 
    235 H235       -5.2690  -19.3780  -53.1314 H         1 UNK         0.3000 
    236 H236       -7.2486  -20.6298  -54.9418 H         1 UNK         0.0600 
    237 H237       -7.6206  -21.7851  -52.7591 H         1 UNK         0.0600 
    238 H238       -6.9029  -22.8683  -53.9422 H         1 UNK         0.0600 
    239 H239       -5.9066  -22.1871  -52.6661 H         1 UNK         0.0600 
    240 H240       -3.9599  -21.0100  -53.5242 H         1 UNK         0.3000 
    241 H241       -2.0779  -21.8218  -54.3073 H         1 UNK         0.0600 
    242 H242       -1.1210  -22.6874  -57.0033 H         1 UNK         0.3800 
    243 H243       -1.9244  -24.2132  -57.2122 H         1 UNK         0.3800 
    244 H244       -1.2681  -20.8002  -56.5881 H         1 UNK         0.0800 
    245 H245       -2.8204  -20.0199  -56.6546 H         1 UNK         0.0800 
    246 H246        0.8188  -19.5305  -55.5346 H         1 UNK         0.0800 
    247 H247        0.2336  -20.8554  -54.5558 H         1 UNK         0.0800 
@<TRIPOS>BOND
     1    1    2 1    
     2    1  127 1    
     3    1  128 1    
     4    1  129 1    
     5    2    3 2    
     6    2    4 am   BACKBONE|DICT|INTERRES
     7    4    5 1    
     8    4  130 1    
     9    5    6 1    
    10    5   65 1    
    11    5  131 1    
    12    6    7 1    
    13    6  132 1    
    14    6  133 1    
    15    7    8 1    
    16    8    9 1    
    17    8  134 1    
    18    8  135 1    
    19    9   10 ar   
    20    9   14 ar   
    21   10   11 ar   
    22   10  136 1    
    23   11   12 ar   
    24   11  126 1    
    25   12   13 ar   
    26   12  137 1    
    27   13   14 ar   
    28   13   15 1    
    29   14  138 1    
    30   15   16 1    
    31   15  139 1    
    32   15  140 1    
    33   16   17 1    
    34   17   18 1    
    35   17  141 1    
    36   17  142 1    
    37   18   19 1    
    38   18   67 1    
    39   18  143 1    
    40   19   20 am   BACKBONE|DICT|INTERRES
    41   19  144 1    
    42   20   21 2    
    43   20   22 1    
    44   22   23 1    
    45   22   24 1    
    46   22  145 1    
    47   23  146 1    
    48   23  147 1    
    49   23  148 1    
    50   24   25 am   BACKBONE|DICT|INTERRES
    51   24  149 1    
    52   25   26 2    
    53   25   27 1    
    54   27   28 1    
    55   27   29 1    
    56   27  150 1    
    57   28  151 1    
    58   28  152 1    
    59   28  153 1    
    60   29   30 am   BACKBONE|DICT|INTERRES
    61   29  154 1    
    62   30   31 2    
    63   30   32 1    
    64   32   33 1    
    65   32   34 1    
    66   32  155 1    
    67   33  156 1    
    68   33  157 1    
    69   33  158 1    
    70   34   35 am   BACKBONE|DICT|INTERRES
    71   34  159 1    
    72   35   36 2    
    73   35   37 1    
    74   37   38 1    
    75   37   39 1    
    76   37  160 1    
    77   38  161 1    
    78   38  162 1    
    79   38  163 1    
    80   39   40 am   BACKBONE|DICT|INTERRES
    81   39  164 1    
    82   40   41 2    
    83   40   42 1    
    84   42   43 1    
    85   42   44 1    
    86   42  165 1    
    87   43  166 1    
    88   43  167 1    
    89   43  168 1    
    90   44   45 am   BACKBONE|DICT|INTERRES
    91   44  169 1    
    92   45   46 2    
    93   45   47 1    
    94   47   48 1    
    95   47   49 1    
    96   47  170 1    
    97   48  171 1    
    98   48  172 1    
    99   48  173 1    
   100   49   50 am   BACKBONE|DICT|INTERRES
   101   49  174 1    
   102   50   51 2    
   103   50   52 1    
   104   52   53 1    
   105   52   54 1    
   106   52  175 1    
   107   53  176 1    
   108   53  177 1    
   109   53  178 1    
   110   54   55 am   BACKBONE|DICT|INTERRES
   111   54  179 1    
   112   55   56 2    
   113   55   57 1    
   114   57   58 1    
   115   57   59 1    
   116   57  180 1    
   117   58  181 1    
   118   58  182 1    
   119   58  183 1    
   120   59   60 am   BACKBONE|DICT|INTERRES
   121   59  184 1    
   122   60   61 2    
   123   60   62 1    
   124   62   63 1    
   125   62   64 1    
   126   62  185 1    
   127   63  186 1    
   128   63  187 1    
   129   63  188 1    
   130   64   65 am   BACKBONE|DICT|INTERRES
   131   64  189 1    
   132   65   66 2    
   133   67   68 2    
   134   67   69 am   BACKBONE|DICT|INTERRES
   135   69   70 1    
   136   69  190 1    
   137   70   71 1    
   138   70   72 1    
   139   70  191 1    
   140   71  192 1    
   141   71  193 1    
   142   71  194 1    
   143   72   73 2    
   144   72   74 am   BACKBONE|DICT|INTERRES
   145   74   75 1    
   146   74  195 1    
   147   75   76 1    
   148   75   77 1    
   149   75  196 1    
   150   76  197 1    
   151   76  198 1    
   152   76  199 1    
   153   77   78 2    
   154   77   79 am   BACKBONE|DICT|INTERRES
   155   79   80 1    
   156   79  200 1    
   157   80   81 1    
   158   80   82 1    
   159   80  201 1    
   160   81  202 1    
   161   81  203 1    
   162   81  204 1    
   163   82   83 2    
   164   82   84 am   BACKBONE|DICT|INTERRES
   165   84   85 1    
   166   84  205 1    
   167   85   86 1    
   168   85   87 1    
   169   85  206 1    
   170   86  207 1    
   171   86  208 1    
   172   86  209 1    
   173   87   88 2    
   174   87   89 am   BACKBONE|DICT|INTERRES
   175   89   90 1    
   176   89  210 1    
   177   90   91 1    
   178   90   92 1    
   179   90  211 1    
   180   91  212 1    
   181   91  213 1    
   182   91  214 1    
   183   92   93 2    
   184   92   94 am   BACKBONE|DICT|INTERRES
   185   94   95 1    
   186   94  215 1    
   187   95   96 1    
   188   95   97 1    
   189   95  216 1    
   190   96  217 1    
   191   96  218 1    
   192   96  219 1    
   193   97   98 2    
   194   97   99 am   BACKBONE|DICT|INTERRES
   195   99  100 1    
   196   99  220 1    
   197  100  101 1    
   198  100  102 1    
   199  100  221 1    
   200  101  222 1    
   201  101  223 1    
   202  101  224 1    
   203  102  103 2    
   204  102  104 am   BACKBONE|DICT|INTERRES
   205  104  105 1    
   206  104  225 1    
   207  105  106 1    
   208  105  107 1    
   209  105  226 1    
   210  106  227 1    
   211  106  228 1    
   212  106  229 1    
   213  107  108 2    
   214  107  109 am   BACKBONE|DICT|INTERRES
   215  109  110 1    
   216  109  230 1    
   217  110  111 1    
   218  110  112 1    
   219  110  231 1    
   220  111  232 1    
   221  111  233 1    
   222  111  234 1    
   223  112  113 2    
   224  112  114 am   BACKBONE|DICT|INTERRES
   225  114  115 1    
   226  114  235 1    
   227  115  116 1    
   228  115  117 1    
   229  115  236 1    
   230  116  237 1    
   231  116  238 1    
   232  116  239 1    
   233  117  118 2    
   234  117  119 am   BACKBONE|DICT|INTERRES
   235  119  120 1    
   236  119  240 1    
   237  120  121 1    
   238  120  124 1    
   239  120  241 1    
   240  121  122 am   BACKBONE|DICT|INTERRES
   241  121  123 2    
   242  122  242 1    
   243  122  243 1    
   244  124  125 1    
   245  124  244 1    
   246  124  245 1    
   247  125  126 1    
   248  126  246 1    
   249  126  247 1    
@<TRIPOS>SUBSTRUCTURE
     1 UNK         1 GROUP             0       ****    0 ROOT    
