@<TRIPOS>MOLECULE
3R540
247   249    1
SMALL
USER_CHARGES


@<TRIPOS>ATOM
      1 CA          3.4827  -17.3369  -53.7460 C.3       0 UNK        -0.1800 
      2 C           3.5014  -17.7976  -52.2896 C.2       0 UNK         0.5000 
      3 O           2.9880  -18.8741  -51.9974 O.2       0 UNK        -0.5000 
      4 N           4.0851  -17.0370  -51.3511 N.am      1 UNK        -0.5000 
      5 CA          4.7505  -15.7415  -51.5490 C.3       1 UNK         0.1400 
      6 C6          5.7796  -15.4428  -50.4225 C.3       23 UNK        -0.0398 
      7 S7          5.1132  -14.7901  -48.8467 S.3       23 UNK        -0.2404 
      8 C8          5.0739  -16.2639  -47.7755 C.3       23 UNK        -0.0205 
      9 C9          3.9591  -17.2378  -48.1347 C.ar      23 UNK        -0.0193 
     10 C10         2.6512  -16.7824  -48.3357 C.ar      23 UNK        -0.1150 
     11 C11         1.6275  -17.6782  -48.6499 C.ar      23 UNK        -0.0193 
     12 C12         1.9122  -19.0414  -48.7465 C.ar      23 UNK        -0.1150 
     13 C13         3.2103  -19.5131  -48.5353 C.ar      23 UNK        -0.0193 
     14 C14         4.2312  -18.6057  -48.2374 C.ar      23 UNK        -0.1150 
     15 C15         3.5061  -21.0027  -48.6344 C.3       23 UNK        -0.0205 
     16 S16         3.7600  -21.7831  -47.0037 S.3       23 UNK        -0.2404 
     17 C17         2.1677  -21.4938  -46.1570 C.3       23 UNK        -0.0398 
     18 CA          1.1876  -22.6873  -46.2458 C.3       11 UNK         0.1400 
     19 N           0.1853  -22.6435  -45.1765 N.am      11 UNK        -0.5000 
     20 C          -0.7137  -23.6058  -44.9240 C.2       10 UNK         0.5000 
     21 O          -0.7439  -24.6851  -45.5131 O.2       10 UNK        -0.5000 
     22 CA         -1.7949  -23.2856  -43.8770 C.3       10 UNK         0.1400 
     23 CB         -1.2947  -23.5792  -42.4549 C.3       10 UNK        -0.1800 
     24 N          -2.2436  -21.8961  -43.9696 N.am      10 UNK        -0.5000 
     25 C          -2.9824  -21.4081  -44.9771 C.2       9 UNK         0.5000 
     26 O          -3.4209  -22.0966  -45.8984 O.2       9 UNK        -0.5000 
     27 CA         -3.2232  -19.8872  -44.9789 C.3       9 UNK         0.1400 
     28 CB         -4.4136  -19.5250  -44.0797 C.3       9 UNK        -0.1800 
     29 N          -2.0369  -19.1432  -44.5479 N.am      9 UNK        -0.5000 
     30 C          -0.9019  -19.0738  -45.2612 C.2       8 UNK         0.5000 
     31 O          -0.7692  -19.5929  -46.3666 O.2       8 UNK        -0.5000 
     32 CA          0.3065  -18.3559  -44.6291 C.3       8 UNK         0.1400 
     33 CB          0.3484  -16.8936  -45.0728 C.3       8 UNK        -0.1800 
     34 N           0.3182  -18.4120  -43.1700 N.am      8 UNK        -0.5000 
     35 C           0.4048  -19.5419  -42.4548 C.2       7 UNK         0.5000 
     36 O           0.5606  -20.6523  -42.9649 O.2       7 UNK        -0.5000 
     37 CA          0.2330  -19.4236  -40.9264 C.3       7 UNK         0.1400 
     38 CB          1.5998  -19.4776  -40.2288 C.3       7 UNK        -0.1800 
     39 N          -0.4791  -18.2158  -40.4912 N.am      7 UNK        -0.5000 
     40 C          -1.7248  -17.8721  -40.8494 C.2       6 UNK         0.5000 
     41 O          -2.4257  -18.5518  -41.6005 O.2       6 UNK        -0.5000 
     42 CA         -2.2748  -16.5275  -40.3342 C.3       6 UNK         0.1400 
     43 CB         -1.4254  -15.8753  -39.2192 C.3       6 UNK        -0.1800 
     44 N          -2.4949  -15.5880  -41.4398 N.am      6 UNK        -0.5000 
     45 C          -1.5737  -15.1027  -42.2854 C.2       5 UNK         0.5000 
     46 O          -0.3748  -15.3941  -42.2371 O.2       5 UNK        -0.5000 
     47 CA         -2.0852  -14.1370  -43.3702 C.3       5 UNK         0.1400 
     48 CB         -2.8590  -12.9462  -42.7700 C.3       5 UNK        -0.1800 
     49 N          -0.9627  -13.6324  -44.1598 N.am      5 UNK        -0.5000 
     50 C          -1.0256  -13.2561  -45.4413 C.2       4 UNK         0.5000 
     51 O          -2.0544  -13.3247  -46.1190 O.2       4 UNK        -0.5000 
     52 CA          0.2716  -12.6990  -46.0554 C.3       4 UNK         0.1400 
     53 CB          1.3843  -13.7566  -46.1206 C.3       4 UNK        -0.1800 
     54 N           0.0277  -12.2048  -47.4088 N.am      4 UNK        -0.5000 
     55 C           0.5117  -11.0626  -47.9104 C.2       3 UNK         0.5000 
     56 O           1.2097  -10.2744  -47.2685 O.2       3 UNK        -0.5000 
     57 CA          0.1601  -10.7695  -49.3840 C.3       3 UNK         0.1400 
     58 CB          0.8790   -9.5284  -49.9546 C.3       3 UNK        -0.1800 
     59 N           0.3637  -11.9390  -50.2450 N.am      3 UNK        -0.5000 
     60 C           1.5107  -12.5866  -50.4954 C.2       2 UNK         0.5000 
     61 O           2.6094  -12.2348  -50.0617 O.2       2 UNK        -0.5000 
     62 CA          1.3633  -13.8466  -51.3749 C.3       2 UNK         0.1400 
     63 CB          1.0025  -13.4904  -52.8315 C.3       2 UNK        -0.1800 
     64 N           2.5081  -14.7619  -51.3224 N.am      2 UNK        -0.5000 
     65 C           3.7542  -14.5819  -51.7886 C.2       1 UNK         0.5000 
     66 O           4.1316  -13.5902  -52.4143 O.2       1 UNK        -0.5000 
     67 C           0.5250  -22.7848  -47.6374 C.2       11 UNK         0.5000 
     68 O           0.9152  -23.6351  -48.4365 O.2       11 UNK        -0.5000 
     69 N          -0.4968  -21.9511  -47.8827 N.am      12 UNK        -0.5000 
     70 CA         -1.3176  -21.9688  -49.0929 C.3       12 UNK         0.1400 
     71 CB         -2.2988  -20.7877  -49.0757 C.3       12 UNK        -0.1800 
     72 C          -2.0578  -23.3033  -49.2809 C.2       12 UNK         0.5000 
     73 O          -2.0168  -23.8589  -50.3772 O.2       12 UNK        -0.5000 
     74 N          -2.6624  -23.8241  -48.2030 N.am      13 UNK        -0.5000 
     75 CA         -3.3237  -25.1304  -48.1809 C.3       13 UNK         0.1400 
     76 CB         -4.0179  -25.3408  -46.8274 C.3       13 UNK        -0.1800 
     77 C          -2.3632  -26.2945  -48.4927 C.2       13 UNK         0.5000 
     78 O          -2.7107  -27.1679  -49.2878 O.2       13 UNK        -0.5000 
     79 N          -1.1565  -26.2630  -47.9081 N.am      14 UNK        -0.5000 
     80 CA         -0.0768  -27.2207  -48.1669 C.3       14 UNK         0.1400 
     81 CB          1.0599  -26.9975  -47.1581 C.3       14 UNK        -0.1800 
     82 C           0.4542  -27.1583  -49.6133 C.2       14 UNK         0.5000 
     83 O           0.8046  -28.1950  -50.1777 O.2       14 UNK        -0.5000 
     84 N           0.4619  -25.9543  -50.2000 N.am      15 UNK        -0.5000 
     85 CA          0.7921  -25.6911  -51.6028 C.3       15 UNK         0.1400 
     86 CB          1.2201  -24.2201  -51.7410 C.3       15 UNK        -0.1800 
     87 C          -0.3537  -26.0286  -52.5846 C.2       15 UNK         0.5000 
     88 O          -0.1663  -25.8761  -53.7924 O.2       15 UNK        -0.5000 
     89 N          -1.5073  -26.4738  -52.0627 N.am      16 UNK        -0.5000 
     90 CA         -2.7395  -26.8374  -52.7702 C.3       16 UNK         0.1400 
     91 CB         -2.5032  -28.0051  -53.7516 C.3       16 UNK        -0.1800 
     92 C          -3.4672  -25.6381  -53.4150 C.2       16 UNK         0.5000 
     93 O          -4.2259  -25.8218  -54.3692 O.2       16 UNK        -0.5000 
     94 N          -3.2573  -24.4381  -52.8627 N.am      17 UNK        -0.5000 
     95 CA         -4.0302  -23.2333  -53.1493 C.3       17 UNK         0.1400 
     96 CB         -3.0857  -22.0199  -53.0975 C.3       17 UNK        -0.1800 
     97 C          -5.1696  -23.0935  -52.1217 C.2       17 UNK         0.5000 
     98 O          -5.2137  -23.8287  -51.1312 O.2       17 UNK        -0.5000 
     99 N          -6.0811  -22.1455  -52.3685 N.am      18 UNK        -0.5000 
    100 CA        -7.1600  -21.7994  -51.4448 C.3       18 UNK         0.1400 
    101 CB        -8.1849  -20.9110  -52.1679 C.3       18 UNK        -0.1800 
    102 C         -6.6054  -21.0834  -50.2009 C.2       18 UNK         0.5000 
    103 O         -5.8857  -20.0945  -50.3440 O.2       18 UNK        -0.5000 
    104 N         -6.9806  -21.5639  -49.0089 N.am      19 UNK        -0.5000 
    105 CA        -6.5720  -20.9975  -47.7181 C.3       19 UNK         0.1400 
    106 CB        -6.9517  -21.9837  -46.6034 C.3       19 UNK        -0.1800 
    107 C         -7.1769  -19.6056  -47.4389 C.2       19 UNK         0.5000 
    108 O         -6.6269  -18.8538  -46.6354 O.2       19 UNK        -0.5000 
    109 N         -8.2941  -19.2888  -48.1091 N.am      20 UNK        -0.5000 
    110 CA        -8.9488  -17.9798  -48.0817 C.3       20 UNK         0.1400 
    111 CB       -10.4079  -18.1521  -48.5327 C.3       20 UNK        -0.1800 
    112 C         -8.2356  -16.9278  -48.9574 C.2       20 UNK         0.5000 
    113 O         -8.4786  -15.7335  -48.7775 O.2       20 UNK        -0.5000 
    114 N         -7.3853  -17.3803  -49.8876 N.am      21 UNK        -0.5000 
    115 CA        -6.5287  -16.5478  -50.7282 C.3       21 UNK         0.1400 
    116 CB        -6.5180  -17.1452  -52.1477 C.3       21 UNK        -0.1800 
    117 C         -5.1106  -16.4870  -50.1283 C.2       21 UNK         0.5000 
    118 O         -4.8739  -17.0179  -49.0395 O.2       21 UNK        -0.5000 
    119 N         -4.1845  -15.8406  -50.8501 N.am      22 UNK        -0.5000 
    120 CA        -2.7452  -15.7328  -50.5433 C.3       22 UNK         0.1400 
    121 C         -2.4119  -14.8239  -49.3231 C.2       22 UNK         0.5000 
    122 N         -3.0897  -14.9641  -48.1954 N.am      22 UNK        -0.7600 
    123 O         -1.5356  -13.9692  -49.4064 O.2       22 UNK        -0.5000 
    124 C124       -2.0831  -17.1341  -50.4313 C.3       23 UNK        -0.0398 
    125 S125       -0.2674  -17.1495  -50.6006 S.3       23 UNK        -0.2404 
    126 C126        0.2044  -17.1890  -48.8462 C.3       23 UNK        -0.0205 
    127 H127        3.0098  -18.0907  -54.3760 H         1 UNK         0.0600 
    128 H128        4.4932  -17.1819  -54.1230 H         1 UNK         0.0600 
    129 H129        2.9152  -16.4135  -53.8580 H         1 UNK         0.0600 
    130 H130        4.0573  -17.3632  -50.3939 H         1 UNK         0.3000 
    131 H131        5.3377  -15.8253  -52.4649 H         1 UNK         0.0600 
    132 H132        6.3842  -16.3285  -50.2224 H         1 UNK         0.0800 
    133 H133        6.4867  -14.6963  -50.7878 H         1 UNK         0.0800 
    134 H134        4.9219  -15.9382  -46.7457 H         1 UNK         0.0800 
    135 H135        6.0489  -16.7528  -47.8019 H         1 UNK         0.0800 
    136 H136        2.4332  -15.7277  -48.2483 H         1 UNK         0.1150 
    137 H137        1.1165  -19.7346  -48.9807 H         1 UNK         0.1150 
    138 H138        5.2350  -18.9717  -48.0717 H         1 UNK         0.1150 
    139 H139        2.7069  -21.5193  -49.1676 H         1 UNK         0.0800 
    140 H140        4.4053  -21.1468  -49.2349 H         1 UNK         0.0800 
    141 H141        1.7058  -20.5746  -46.5113 H         1 UNK         0.0800 
    142 H142        2.4143  -21.3062  -45.1109 H         1 UNK         0.0800 
    143 H143        1.7583  -23.6058  -46.0921 H         1 UNK         0.0600 
    144 H144        0.1718  -21.8129  -44.5948 H         1 UNK         0.3000 
    145 H145       -2.6519  -23.9335  -44.0723 H         1 UNK         0.0600 
    146 H146       -2.0727  -23.3875  -41.7159 H         1 UNK         0.0600 
    147 H147       -1.0034  -24.6257  -42.3557 H         1 UNK         0.0600 
    148 H148       -0.4270  -22.9738  -42.1933 H         1 UNK         0.0600 
    149 H149       -1.8916  -21.2558  -43.2728 H         1 UNK         0.3000 
    150 H150       -3.4649  -19.5847  -46.0004 H         1 UNK         0.0600 
    151 H151       -5.3243  -20.0141  -44.4246 H         1 UNK         0.0600 
    152 H152       -4.6010  -18.4512  -44.0868 H         1 UNK         0.0600 
    153 H153       -4.2512  -19.8328  -43.0465 H         1 UNK         0.0600 
    154 H154       -2.0692  -18.7379  -43.6185 H         1 UNK         0.3000 
    155 H155        1.2159  -18.8427  -44.9846 H         1 UNK         0.0600 
    156 H156       -0.5875  -16.3799  -44.8567 H         1 UNK         0.0600 
    157 H157        1.1579  -16.3560  -44.5802 H         1 UNK         0.0600 
    158 H158        0.5175  -16.8257  -46.1439 H         1 UNK         0.0600 
    159 H159        0.1854  -17.5350  -42.6806 H         1 UNK         0.3000 
    160 H160       -0.3524  -20.2863  -40.6019 H         1 UNK         0.0600 
    161 H161        2.2204  -18.6208  -40.4946 H         1 UNK         0.0600 
    162 H162        2.1467  -20.3790  -40.5090 H         1 UNK         0.0600 
    163 H163        1.4899  -19.4906  -39.1443 H         1 UNK         0.0600 
    164 H164        0.0365  -17.5803  -39.8997 H         1 UNK         0.3000 
    165 H165       -3.2566  -16.7459  -39.9117 H         1 UNK         0.0600 
    166 H166       -1.9049  -14.9691  -38.8491 H         1 UNK         0.0600 
    167 H167       -1.3135  -16.5468  -38.3669 H         1 UNK         0.0600 
    168 H168       -0.4269  -15.5999  -39.5598 H         1 UNK         0.0600 
    169 H169       -3.4582  -15.3197  -41.5828 H         1 UNK         0.3000 
    170 H170       -2.7524  -14.7110  -44.0168 H         1 UNK         0.0600 
    171 H171       -3.7457  -13.2743  -42.2271 H         1 UNK         0.0600 
    172 H172       -2.2391  -12.3759  -42.0771 H         1 UNK         0.0600 
    173 H173       -3.2001  -12.2644  -43.5493 H         1 UNK         0.0600 
    174 H174       -0.0758  -13.6346  -43.6726 H         1 UNK         0.3000 
    175 H175        0.5992  -11.8813  -45.4103 H         1 UNK         0.0600 
    176 H176        1.0735  -14.6150  -46.7136 H         1 UNK         0.0600 
    177 H177        2.2885  -13.3509  -46.5754 H         1 UNK         0.0600 
    178 H178        1.6571  -14.1104  -45.1266 H         1 UNK         0.0600 
    179 H179       -0.5821  -12.7814  -47.9824 H         1 UNK         0.3000 
    180 H180       -0.9108  -10.5622  -49.4023 H         1 UNK         0.0600 
    181 H181        1.9636   -9.6346  -49.9228 H         1 UNK         0.0600 
    182 H182        0.6226   -8.6343  -49.3853 H         1 UNK         0.0600 
    183 H183        0.5901   -9.3472  -50.9899 H         1 UNK         0.0600 
    184 H184       -0.4916  -12.3818  -50.5570 H         1 UNK         0.3000 
    185 H185        0.5301  -14.4125  -50.9626 H         1 UNK         0.0600 
    186 H186        0.9009  -14.3874  -53.4426 H         1 UNK         0.0600 
    187 H187        0.0521  -12.9582  -52.8811 H         1 UNK         0.0600 
    188 H188        1.7545  -12.8507  -53.2937 H         1 UNK         0.0600 
    189 H189        2.3344  -15.6262  -50.8283 H         1 UNK         0.3000 
    190 H190       -0.7210  -21.2317  -47.1990 H         1 UNK         0.3000 
    191 H191       -0.6484  -21.8372  -49.9454 H         1 UNK         0.0600 
    192 H192       -2.9713  -20.8300  -48.2198 H         1 UNK         0.0600 
    193 H193       -2.9165  -20.7702  -49.9742 H         1 UNK         0.0600 
    194 H194       -1.7617  -19.8418  -49.0300 H         1 UNK         0.0600 
    195 H195       -2.6893  -23.2829  -47.3448 H         1 UNK         0.3000 
    196 H196       -4.0925  -25.1194  -48.9560 H         1 UNK         0.0600 
    197 H197       -4.5715  -26.2803  -46.8161 H         1 UNK         0.0600 
    198 H198       -4.7282  -24.5417  -46.6195 H         1 UNK         0.0600 
    199 H199       -3.3026  -25.3725  -46.0061 H         1 UNK         0.0600 
    200 H200       -0.9627  -25.5345  -47.2258 H         1 UNK         0.3000 
    201 H201       -0.4783  -28.2235  -48.0074 H         1 UNK         0.0600 
    202 H202        0.7061  -27.1150  -46.1337 H         1 UNK         0.0600 
    203 H203        1.4907  -26.0004  -47.2499 H         1 UNK         0.0600 
    204 H204        1.8642  -27.7183  -47.3097 H         1 UNK         0.0600 
    205 H205        0.2178  -25.1443  -49.6390 H         1 UNK         0.3000 
    206 H206        1.6441  -26.3154  -51.8789 H         1 UNK         0.0600 
    207 H207        2.0499  -23.9857  -51.0738 H         1 UNK         0.0600 
    208 H208        1.5494  -23.9997  -52.7570 H         1 UNK         0.0600 
    209 H209        0.4020  -23.5390  -51.5077 H         1 UNK         0.0600 
    210 H210       -1.5684  -26.5330  -51.0536 H         1 UNK         0.3000 
    211 H211       -3.4176  -27.2029  -51.9981 H         1 UNK         0.0600 
    212 H212       -1.9072  -27.7001  -54.6119 H         1 UNK         0.0600 
    213 H213       -3.4488  -28.3916  -54.1332 H         1 UNK         0.0600 
    214 H214       -1.9903  -28.8334  -53.2628 H         1 UNK         0.0600 
    215 H215       -2.6858  -24.3874  -52.0214 H         1 UNK         0.3000 
    216 H216       -4.4692  -23.2922  -54.1473 H         1 UNK         0.0600 
    217 H217       -3.6109  -21.0969  -53.3450 H         1 UNK         0.0600 
    218 H218       -2.2690  -22.1287  -53.8114 H         1 UNK         0.0600 
    219 H219       -2.6462  -21.8905  -52.1091 H         1 UNK         0.0600 
    220 H220       -5.9751  -21.5548  -53.1801 H         1 UNK         0.3000 
    221 H221       -7.6627  -22.7191  -51.1372 H         1 UNK         0.0600 
    222 H222       -7.7352  -19.9852  -52.5283 H         1 UNK         0.0600 
    223 H223       -8.6189  -21.4275  -53.0242 H         1 UNK         0.0600 
    224 H224       -9.0058  -20.6393  -51.5031 H         1 UNK         0.0600 
    225 H225       -7.5667  -22.3856  -48.9724 H         1 UNK         0.3000 
    226 H226       -5.4852  -20.8884  -47.7231 H         1 UNK         0.0600 
    227 H227       -6.4863  -22.9556  -46.7634 H         1 UNK         0.0600 
    228 H228       -6.6172  -21.6240  -45.6303 H         1 UNK         0.0600 
    229 H229       -8.0307  -22.1321  -46.5463 H         1 UNK         0.0600 
    230 H230       -8.6900  -19.9798  -48.7285 H         1 UNK         0.3000 
    231 H231       -8.9492  -17.6085  -47.0547 H         1 UNK         0.0600 
    232 H232      -10.9434  -17.2024  -48.4956 H         1 UNK         0.0600 
    233 H233      -10.9413  -18.8491  -47.8861 H         1 UNK         0.0600 
    234 H234      -10.4718  -18.5250  -49.5558 H         1 UNK         0.0600 
    235 H235       -7.1546  -18.3659  -49.8901 H         1 UNK         0.3000 
    236 H236       -6.9198  -15.5299  -50.7805 H         1 UNK         0.0600 
    237 H237       -7.5317  -17.2820  -52.5248 H         1 UNK         0.0600 
    238 H238       -6.0021  -16.4914  -52.8513 H         1 UNK         0.0600 
    239 H239       -6.0184  -18.1142  -52.1744 H         1 UNK         0.0600 
    240 H240       -4.4723  -15.3944  -51.7090 H         1 UNK         0.3000 
    241 H241       -2.3113  -15.2407  -51.4150 H         1 UNK         0.0600 
    242 H242       -3.8139  -15.6720  -48.1345 H         1 UNK         0.3800 
    243 H243       -2.8618  -14.3704  -47.4017 H         1 UNK         0.3800 
    244 H244       -2.3755  -17.6225  -49.5017 H         1 UNK         0.0800 
    245 H245       -2.4660  -17.7778  -51.2244 H         1 UNK         0.0800 
    246 H246        0.0772  -16.1920  -48.4230 H         1 UNK         0.0800 
    247 H247       -0.4669  -17.8457  -48.2937 H         1 UNK         0.0800 
@<TRIPOS>BOND
     1    1    2 1    
     2    1  127 1    
     3    1  128 1    
     4    1  129 1    
     5    2    3 2    
     6    2    4 am   BACKBONE|DICT|INTERRES
     7    4    5 1    
     8    4  130 1    
     9    5    6 1    
    10    5   65 1    
    11    5  131 1    
    12    6    7 1    
    13    6  132 1    
    14    6  133 1    
    15    7    8 1    
    16    8    9 1    
    17    8  134 1    
    18    8  135 1    
    19    9   10 ar   
    20    9   14 ar   
    21   10   11 ar   
    22   10  136 1    
    23   11   12 ar   
    24   11  126 1    
    25   12   13 ar   
    26   12  137 1    
    27   13   14 ar   
    28   13   15 1    
    29   14  138 1    
    30   15   16 1    
    31   15  139 1    
    32   15  140 1    
    33   16   17 1    
    34   17   18 1    
    35   17  141 1    
    36   17  142 1    
    37   18   19 1    
    38   18   67 1    
    39   18  143 1    
    40   19   20 am   BACKBONE|DICT|INTERRES
    41   19  144 1    
    42   20   21 2    
    43   20   22 1    
    44   22   23 1    
    45   22   24 1    
    46   22  145 1    
    47   23  146 1    
    48   23  147 1    
    49   23  148 1    
    50   24   25 am   BACKBONE|DICT|INTERRES
    51   24  149 1    
    52   25   26 2    
    53   25   27 1    
    54   27   28 1    
    55   27   29 1    
    56   27  150 1    
    57   28  151 1    
    58   28  152 1    
    59   28  153 1    
    60   29   30 am   BACKBONE|DICT|INTERRES
    61   29  154 1    
    62   30   31 2    
    63   30   32 1    
    64   32   33 1    
    65   32   34 1    
    66   32  155 1    
    67   33  156 1    
    68   33  157 1    
    69   33  158 1    
    70   34   35 am   BACKBONE|DICT|INTERRES
    71   34  159 1    
    72   35   36 2    
    73   35   37 1    
    74   37   38 1    
    75   37   39 1    
    76   37  160 1    
    77   38  161 1    
    78   38  162 1    
    79   38  163 1    
    80   39   40 am   BACKBONE|DICT|INTERRES
    81   39  164 1    
    82   40   41 2    
    83   40   42 1    
    84   42   43 1    
    85   42   44 1    
    86   42  165 1    
    87   43  166 1    
    88   43  167 1    
    89   43  168 1    
    90   44   45 am   BACKBONE|DICT|INTERRES
    91   44  169 1    
    92   45   46 2    
    93   45   47 1    
    94   47   48 1    
    95   47   49 1    
    96   47  170 1    
    97   48  171 1    
    98   48  172 1    
    99   48  173 1    
   100   49   50 am   BACKBONE|DICT|INTERRES
   101   49  174 1    
   102   50   51 2    
   103   50   52 1    
   104   52   53 1    
   105   52   54 1    
   106   52  175 1    
   107   53  176 1    
   108   53  177 1    
   109   53  178 1    
   110   54   55 am   BACKBONE|DICT|INTERRES
   111   54  179 1    
   112   55   56 2    
   113   55   57 1    
   114   57   58 1    
   115   57   59 1    
   116   57  180 1    
   117   58  181 1    
   118   58  182 1    
   119   58  183 1    
   120   59   60 am   BACKBONE|DICT|INTERRES
   121   59  184 1    
   122   60   61 2    
   123   60   62 1    
   124   62   63 1    
   125   62   64 1    
   126   62  185 1    
   127   63  186 1    
   128   63  187 1    
   129   63  188 1    
   130   64   65 am   BACKBONE|DICT|INTERRES
   131   64  189 1    
   132   65   66 2    
   133   67   68 2    
   134   67   69 am   BACKBONE|DICT|INTERRES
   135   69   70 1    
   136   69  190 1    
   137   70   71 1    
   138   70   72 1    
   139   70  191 1    
   140   71  192 1    
   141   71  193 1    
   142   71  194 1    
   143   72   73 2    
   144   72   74 am   BACKBONE|DICT|INTERRES
   145   74   75 1    
   146   74  195 1    
   147   75   76 1    
   148   75   77 1    
   149   75  196 1    
   150   76  197 1    
   151   76  198 1    
   152   76  199 1    
   153   77   78 2    
   154   77   79 am   BACKBONE|DICT|INTERRES
   155   79   80 1    
   156   79  200 1    
   157   80   81 1    
   158   80   82 1    
   159   80  201 1    
   160   81  202 1    
   161   81  203 1    
   162   81  204 1    
   163   82   83 2    
   164   82   84 am   BACKBONE|DICT|INTERRES
   165   84   85 1    
   166   84  205 1    
   167   85   86 1    
   168   85   87 1    
   169   85  206 1    
   170   86  207 1    
   171   86  208 1    
   172   86  209 1    
   173   87   88 2    
   174   87   89 am   BACKBONE|DICT|INTERRES
   175   89   90 1    
   176   89  210 1    
   177   90   91 1    
   178   90   92 1    
   179   90  211 1    
   180   91  212 1    
   181   91  213 1    
   182   91  214 1    
   183   92   93 2    
   184   92   94 am   BACKBONE|DICT|INTERRES
   185   94   95 1    
   186   94  215 1    
   187   95   96 1    
   188   95   97 1    
   189   95  216 1    
   190   96  217 1    
   191   96  218 1    
   192   96  219 1    
   193   97   98 2    
   194   97   99 am   BACKBONE|DICT|INTERRES
   195   99  100 1    
   196   99  220 1    
   197  100  101 1    
   198  100  102 1    
   199  100  221 1    
   200  101  222 1    
   201  101  223 1    
   202  101  224 1    
   203  102  103 2    
   204  102  104 am   BACKBONE|DICT|INTERRES
   205  104  105 1    
   206  104  225 1    
   207  105  106 1    
   208  105  107 1    
   209  105  226 1    
   210  106  227 1    
   211  106  228 1    
   212  106  229 1    
   213  107  108 2    
   214  107  109 am   BACKBONE|DICT|INTERRES
   215  109  110 1    
   216  109  230 1    
   217  110  111 1    
   218  110  112 1    
   219  110  231 1    
   220  111  232 1    
   221  111  233 1    
   222  111  234 1    
   223  112  113 2    
   224  112  114 am   BACKBONE|DICT|INTERRES
   225  114  115 1    
   226  114  235 1    
   227  115  116 1    
   228  115  117 1    
   229  115  236 1    
   230  116  237 1    
   231  116  238 1    
   232  116  239 1    
   233  117  118 2    
   234  117  119 am   BACKBONE|DICT|INTERRES
   235  119  120 1    
   236  119  240 1    
   237  120  121 1    
   238  120  124 1    
   239  120  241 1    
   240  121  122 am   BACKBONE|DICT|INTERRES
   241  121  123 2    
   242  122  242 1    
   243  122  243 1    
   244  124  125 1    
   245  124  244 1    
   246  124  245 1    
   247  125  126 1    
   248  126  246 1    
   249  126  247 1    
@<TRIPOS>SUBSTRUCTURE
     1 UNK         1 GROUP             0       ****    0 ROOT    
