@<TRIPOS>MOLECULE
3R540
247   249    1
SMALL
USER_CHARGES


@<TRIPOS>ATOM
      1 CA          0.4763  -10.9681  -48.6804 C.3       0 UNK        -0.1800 
      2 C           1.9780  -11.1361  -48.4971 C.2       0 UNK         0.5000 
      3 O           2.7577  -10.4639  -49.1729 O.2       0 UNK        -0.5000 
      4 N           2.3827  -12.0331  -47.5921 N.am      1 UNK        -0.5000 
      5 CA          3.7773  -12.3048  -47.2314 C.3       1 UNK         0.1400 
      6 C6          3.9471  -13.7188  -46.6061 C.3       23 UNK        -0.0398 
      7 S7          3.0201  -15.0411  -47.4464 S.3       23 UNK        -0.2404 
      8 C8          4.1988  -15.6448  -48.6872 C.3       23 UNK        -0.0205 
      9 C9          3.6201  -16.8786  -49.3569 C.ar      23 UNK        -0.0193 
     10 C10         2.5860  -16.7466  -50.2866 C.ar      23 UNK        -0.1150 
     11 C11         1.9514  -17.8764  -50.8088 C.ar      23 UNK        -0.0193 
     12 C12         2.4016  -19.1479  -50.4412 C.ar      23 UNK        -0.1150 
     13 C13         3.4435  -19.2921  -49.5171 C.ar      23 UNK        -0.0193 
     14 C14         4.0500  -18.1531  -48.9811 C.ar      23 UNK        -0.1150 
     15 C15         3.8872  -20.6722  -49.0533 C.3       23 UNK        -0.0205 
     16 S16         2.9293  -21.2342  -47.6056 S.3       23 UNK        -0.2404 
     17 C17         1.3251  -21.5630  -48.3970 C.3       23 UNK        -0.0398 
     18 CA          0.3907  -22.4685  -47.5617 C.3       11 UNK         0.1400 
     19 N          -0.2407  -21.7574  -46.4414 N.am      11 UNK        -0.5000 
     20 C          -1.0808  -22.3212  -45.5590 C.2       10 UNK         0.5000 
     21 O          -1.3565  -23.5203  -45.5500 O.2       10 UNK        -0.5000 
     22 CA         -1.7902  -21.3901  -44.5606 C.3       10 UNK         0.1400 
     23 CB         -0.8640  -21.0306  -43.3898 C.3       10 UNK        -0.1800 
     24 N          -2.3143  -20.1755  -45.1883 N.am      10 UNK        -0.5000 
     25 C          -3.2563  -20.1591  -46.1440 C.2       9 UNK         0.5000 
     26 O          -3.8077  -21.1678  -46.5784 O.2       9 UNK        -0.5000 
     27 CA         -3.6125  -18.7967  -46.7622 C.3       9 UNK         0.1400 
     28 CB         -4.6055  -18.0316  -45.8766 C.3       9 UNK        -0.1800 
     29 N          -2.4342  -17.9708  -47.0090 N.am      9 UNK        -0.5000 
     30 C          -1.4383  -18.2902  -47.8468 C.2       8 UNK         0.5000 
     31 O          -1.4353  -19.2944  -48.5621 O.2       8 UNK        -0.5000 
     32 CA         -0.2316  -17.3381  -47.8528 C.3       8 UNK         0.1400 
     33 CB         -0.5465  -16.0661  -48.6570 C.3       8 UNK        -0.1800 
     34 N           0.1888  -16.9780  -46.4983 N.am      8 UNK        -0.5000 
     35 C           0.6746  -17.8490  -45.6025 C.2       7 UNK         0.5000 
     36 O           0.8422  -19.0464  -45.8339 O.2       7 UNK        -0.5000 
     37 CA          0.9607  -17.3039  -44.1913 C.3       7 UNK         0.1400 
     38 CB          2.3399  -16.6377  -44.1128 C.3       7 UNK        -0.1800 
     39 N          -0.0598  -16.3592  -43.7381 N.am      7 UNK        -0.5000 
     40 C          -1.3207  -16.7029  -43.4407 C.2       6 UNK         0.5000 
     41 O          -1.7442  -17.8568  -43.4883 O.2       6 UNK        -0.5000 
     42 CA         -2.2844  -15.5582  -43.0794 C.3       6 UNK         0.1400 
     43 CB         -2.1353  -15.1698  -41.6010 C.3       6 UNK        -0.1800 
     44 N          -2.0911  -14.3710  -43.9119 N.am      6 UNK        -0.5000 
     45 C          -2.2257  -14.3373  -45.2453 C.2       5 UNK         0.5000 
     46 O          -2.5805  -15.3061  -45.9158 O.2       5 UNK        -0.5000 
     47 CA         -1.8827  -13.0158  -45.9583 C.3       5 UNK         0.1400 
     48 CB         -3.1615  -12.2997  -46.4159 C.3       5 UNK        -0.1800 
     49 N          -1.0845  -12.0965  -45.1411 N.am      5 UNK        -0.5000 
     50 C           0.2008  -12.2840  -44.8136 C.2       4 UNK         0.5000 
     51 O           0.8614  -13.2446  -45.2154 O.2       4 UNK        -0.5000 
     52 CA          0.8450  -11.1965  -43.9282 C.3       4 UNK         0.1400 
     53 CB         -0.0733  -10.7432  -42.7710 C.3       4 UNK        -0.1800 
     54 N           2.1732  -11.5646  -43.4267 N.am      4 UNK        -0.5000 
     55 C           2.4925  -12.5259  -42.5460 C.2       3 UNK         0.5000 
     56 O           1.6617  -13.2650  -42.0148 O.2       3 UNK        -0.5000 
     57 CA          3.9927  -12.6854  -42.1965 C.3       3 UNK         0.1400 
     58 CB          4.3700  -14.1486  -41.9069 C.3       3 UNK        -0.1800 
     59 N           4.8679  -12.1896  -43.2607 N.am      3 UNK        -0.5000 
     60 C           5.4071  -10.9654  -43.3477 C.2       2 UNK         0.5000 
     61 O           5.3108  -10.1079  -42.4702 O.2       2 UNK        -0.5000 
     62 CA          6.1249  -10.6313  -44.6766 C.3       2 UNK         0.1400 
     63 CB          7.6276  -10.9303  -44.5690 C.3       2 UNK        -0.1800 
     64 N           5.5658  -11.3639  -45.8226 N.am      2 UNK        -0.5000 
     65 C           4.3012  -11.2289  -46.2506 C.2       1 UNK         0.5000 
     66 O           3.5445  -10.3559  -45.8153 O.2       1 UNK        -0.5000 
     67 C          -0.6613  -23.0988  -48.4939 C.2       11 UNK         0.5000 
     68 O          -0.5715  -24.2870  -48.8027 O.2       11 UNK        -0.5000 
     69 N          -1.6504  -22.2968  -48.9068 N.am      12 UNK        -0.5000 
     70 CA         -2.7193  -22.7173  -49.8093 C.3       12 UNK         0.1400 
     71 CB         -3.4543  -21.4720  -50.3096 C.3       12 UNK        -0.1800 
     72 C          -3.7029  -23.7257  -49.1878 C.2       12 UNK         0.5000 
     73 O          -4.3520  -24.4649  -49.9277 O.2       12 UNK        -0.5000 
     74 N          -3.8305  -23.7318  -47.8577 N.am      13 UNK        -0.5000 
     75 CA         -4.6110  -24.7132  -47.1076 C.3       13 UNK         0.1400 
     76 CB         -5.0080  -24.1192  -45.7483 C.3       13 UNK        -0.1800 
     77 C          -3.8391  -26.0311  -46.9203 C.2       13 UNK         0.5000 
     78 O          -4.4501  -27.0980  -46.9594 O.2       13 UNK        -0.5000 
     79 N          -2.5185  -25.9403  -46.7194 N.am      14 UNK        -0.5000 
     80 CA         -1.6375  -27.0853  -46.5065 C.3       14 UNK         0.1400 
     81 CB         -0.3510  -26.6182  -45.8064 C.3       14 UNK        -0.1800 
     82 C          -1.3066  -27.8309  -47.8099 C.2       14 UNK         0.5000 
     83 O          -1.4678  -29.0506  -47.8669 O.2       14 UNK        -0.5000 
     84 N          -0.8181  -27.0954  -48.8171 N.am      15 UNK        -0.5000 
     85 CA         -0.2843  -27.6611  -50.0544 C.3       15 UNK         0.1400 
     86 CB          0.8277  -26.7489  -50.5997 C.3       15 UNK        -0.1800 
     87 C          -1.3800  -27.8852  -51.1054 C.2       15 UNK         0.5000 
     88 O          -1.5423  -29.0078  -51.5854 O.2       15 UNK        -0.5000 
     89 N          -2.0989  -26.8111  -51.4585 N.am      16 UNK        -0.5000 
     90 CA         -3.1056  -26.8244  -52.5241 C.3       16 UNK         0.1400 
     91 CB         -3.2525  -25.4070  -53.1027 C.3       16 UNK        -0.1800 
     92 C          -4.4695  -27.3743  -52.0681 C.2       16 UNK         0.5000 
     93 O          -5.2570  -27.7953  -52.9159 O.2       16 UNK        -0.5000 
     94 N          -4.7265  -27.3420  -50.7510 N.am      17 UNK        -0.5000 
     95 CA         -5.9842  -27.6987  -50.0810 C.3       17 UNK         0.1400 
     96 CB         -6.2708  -29.2088  -50.2144 C.3       17 UNK        -0.1800 
     97 C          -7.1714  -26.8121  -50.5171 C.2       17 UNK         0.5000 
     98 O          -8.3126  -27.2768  -50.5451 O.2       17 UNK        -0.5000 
     99 N          -6.8714  -25.5535  -50.8611 N.am      18 UNK        -0.5000 
    100 CA        -7.8147  -24.5883  -51.4231 C.3       18 UNK         0.1400 
    101 CB        -7.2788  -24.1238  -52.7876 C.3       18 UNK        -0.1800 
    102 C         -8.0271  -23.3746  -50.5059 C.2       18 UNK         0.5000 
    103 O         -9.1110  -22.7919  -50.5312 O.2       18 UNK        -0.5000 
    104 N         -6.9861  -22.9921  -49.7463 N.am      19 UNK        -0.5000 
    105 CA        -6.9107  -21.7983  -48.8850 C.3       19 UNK         0.1400 
    106 CB        -7.8934  -21.9105  -47.7024 C.3       19 UNK        -0.1800 
    107 C         -7.0546  -20.4617  -49.6562 C.2       19 UNK         0.5000 
    108 O         -7.3891  -19.4371  -49.0622 O.2       19 UNK        -0.5000 
    109 N         -6.7814  -20.4934  -50.9685 N.am      20 UNK        -0.5000 
    110 CA        -7.0050  -19.4086  -51.9297 C.3       20 UNK         0.1400 
    111 CB        -7.3168  -20.0465  -53.2951 C.3       20 UNK        -0.1800 
    112 C         -5.8356  -18.4056  -52.0382 C.2       20 UNK         0.5000 
    113 O         -5.8135  -17.6039  -52.9731 O.2       20 UNK        -0.5000 
    114 N         -4.8758  -18.4776  -51.1048 N.am      21 UNK        -0.5000 
    115 CA        -3.6758  -17.6374  -51.0008 C.3       21 UNK         0.1400 
    116 CB        -4.0498  -16.1864  -50.6340 C.3       21 UNK        -0.1800 
    117 C         -2.7374  -17.7417  -52.2244 C.2       21 UNK         0.5000 
    118 O         -2.1553  -16.7419  -52.6425 O.2       21 UNK        -0.5000 
    119 N         -2.6171  -18.9663  -52.7567 N.am      22 UNK        -0.5000 
    120 CA        -1.7454  -19.4216  -53.8583 C.3       22 UNK         0.1400 
    121 C         -1.9060  -18.7092  -55.2380 C.2       22 UNK         0.5000 
    122 N         -2.9330  -17.8955  -55.4487 N.am      22 UNK        -0.7600 
    123 O         -1.1224  -18.9423  -56.1545 O.2       22 UNK        -0.5000 
    124 C124       -0.2724  -19.6945  -53.4151 C.3       23 UNK        -0.0398 
    125 S125        0.8718  -18.2662  -53.3705 S.3       23 UNK        -0.2404 
    126 C126        0.6955  -17.7099  -51.6496 C.3       23 UNK        -0.0205 
    127 H127       -0.0863  -11.6667  -48.0628 H         1 UNK         0.0600 
    128 H128        0.2026  -11.1402  -49.7213 H         1 UNK         0.0600 
    129 H129        0.1758   -9.9562  -48.4090 H         1 UNK         0.0600 
    130 H130        1.7035  -12.5503  -47.0467 H         1 UNK         0.3000 
    131 H131        4.3854  -12.2569  -48.1370 H         1 UNK         0.0600 
    132 H132        3.5906  -13.7208  -45.5745 H         1 UNK         0.0800 
    133 H133        4.9993  -14.0033  -46.5634 H         1 UNK         0.0800 
    134 H134        4.3876  -14.8667  -49.4281 H         1 UNK         0.0800 
    135 H135        5.1540  -15.8750  -48.2129 H         1 UNK         0.0800 
    136 H136        2.2273  -15.7592  -50.5418 H         1 UNK         0.1150 
    137 H137        1.9057  -20.0224  -50.8371 H         1 UNK         0.1150 
    138 H138        4.8313  -18.2603  -48.2418 H         1 UNK         0.1150 
    139 H139        3.7987  -21.3941  -49.8666 H         1 UNK         0.0800 
    140 H140        4.9446  -20.6493  -48.7857 H         1 UNK         0.0800 
    141 H141        1.5386  -22.0220  -49.3648 H         1 UNK         0.0800 
    142 H142        0.8409  -20.6098  -48.6103 H         1 UNK         0.0800 
    143 H143        0.9786  -23.2883  -47.1438 H         1 UNK         0.0600 
    144 H144       -0.0232  -20.7689  -46.3507 H         1 UNK         0.3000 
    145 H145       -2.6425  -21.9377  -44.1530 H         1 UNK         0.0600 
    146 H146       -1.3922  -20.4504  -42.6333 H         1 UNK         0.0600 
    147 H147       -0.4855  -21.9299  -42.9023 H         1 UNK         0.0600 
    148 H148       -0.0028  -20.4496  -43.7178 H         1 UNK         0.0600 
    149 H149       -1.9477  -19.2939  -44.8439 H         1 UNK         0.3000 
    150 H150       -4.0934  -18.9843  -47.7243 H         1 UNK         0.0600 
    151 H151       -5.5071  -18.6204  -45.7025 H         1 UNK         0.0600 
    152 H152       -4.9122  -17.0971  -46.3470 H         1 UNK         0.0600 
    153 H153       -4.1753  -17.7901  -44.9042 H         1 UNK         0.0600 
    154 H154       -2.3767  -17.0958  -46.4935 H         1 UNK         0.3000 
    155 H155        0.5999  -17.8577  -48.3312 H         1 UNK         0.0600 
    156 H156       -0.8668  -16.3133  -49.6683 H         1 UNK         0.0600 
    157 H157        0.3285  -15.4227  -48.7413 H         1 UNK         0.0600 
    158 H158       -1.3464  -15.4821  -48.2043 H         1 UNK         0.0600 
    159 H159        0.0755  -16.0139  -46.2230 H         1 UNK         0.3000 
    160 H160        0.9637  -18.1559  -43.5084 H         1 UNK         0.0600 
    161 H161        2.3550  -15.6832  -44.6379 H         1 UNK         0.0600 
    162 H162        3.1131  -17.2713  -44.5496 H         1 UNK         0.0600 
    163 H163        2.6162  -16.4521  -43.0754 H         1 UNK         0.0600 
    164 H164        0.2055  -15.3844  -43.6960 H         1 UNK         0.3000 
    165 H165       -3.3029  -15.9176  -43.2405 H         1 UNK         0.0600 
    166 H166       -2.8723  -14.4195  -41.3138 H         1 UNK         0.0600 
    167 H167       -2.2840  -16.0348  -40.9533 H         1 UNK         0.0600 
    168 H168       -1.1443  -14.7659  -41.3882 H         1 UNK         0.0600 
    169 H169       -1.7944  -13.5297  -43.4410 H         1 UNK         0.3000 
    170 H170       -1.3042  -13.2781  -46.8458 H         1 UNK         0.0600 
    171 H171       -3.7663  -12.9478  -47.0520 H         1 UNK         0.0600 
    172 H172       -3.7804  -12.0001  -45.5693 H         1 UNK         0.0600 
    173 H173       -2.9272  -11.4064  -46.9954 H         1 UNK         0.0600 
    174 H174       -1.5623  -11.2772  -44.7942 H         1 UNK         0.3000 
    175 H175        1.0063  -10.3360  -44.5791 H         1 UNK         0.0600 
    176 H176       -0.3983  -11.5822  -42.1548 H         1 UNK         0.0600 
    177 H177        0.4373  -10.0324  -42.1211 H         1 UNK         0.0600 
    178 H178       -0.9681  -10.2431  -43.1422 H         1 UNK         0.0600 
    179 H179        2.9319  -11.0493  -43.8546 H         1 UNK         0.3000 
    180 H180        4.1632  -12.1104  -41.2843 H         1 UNK         0.0600 
    181 H181        4.2495  -14.7735  -42.7914 H         1 UNK         0.0600 
    182 H182        3.7542  -14.5721  -41.1126 H         1 UNK         0.0600 
    183 H183        5.4081  -14.2276  -41.5837 H         1 UNK         0.0600 
    184 H184        5.0195  -12.8211  -44.0315 H         1 UNK         0.3000 
    185 H185        5.9994   -9.5624  -44.8620 H         1 UNK         0.0600 
    186 H186        8.0760  -10.3808  -43.7402 H         1 UNK         0.0600 
    187 H187        7.8173  -11.9910  -44.4002 H         1 UNK         0.0600 
    188 H188        8.1549  -10.6341  -45.4761 H         1 UNK         0.0600 
    189 H189        6.1598  -12.0699  -46.2335 H         1 UNK         0.3000 
    190 H190       -1.6507  -21.3235  -48.6162 H         1 UNK         0.3000 
    191 H191       -2.2589  -23.2060  -50.6705 H         1 UNK         0.0600 
    192 H192       -2.7544  -20.7898  -50.7879 H         1 UNK         0.0600 
    193 H193       -4.2172  -21.7339  -51.0429 H         1 UNK         0.0600 
    194 H194       -3.9301  -20.9337  -49.4903 H         1 UNK         0.0600 
    195 H195       -3.3640  -23.0105  -47.3182 H         1 UNK         0.3000 
    196 H196       -5.5288  -24.9356  -47.6565 H         1 UNK         0.0600 
    197 H197       -5.6097  -24.8244  -45.1738 H         1 UNK         0.0600 
    198 H198       -5.5995  -23.2122  -45.8730 H         1 UNK         0.0600 
    199 H199       -4.1334  -23.8660  -45.1483 H         1 UNK         0.0600 
    200 H200       -2.0952  -25.0214  -46.6361 H         1 UNK         0.3000 
    201 H201       -2.1392  -27.7891  -45.8387 H         1 UNK         0.0600 
    202 H202       -0.5716  -26.1813  -44.8323 H         1 UNK         0.0600 
    203 H203        0.1805  -25.8682  -46.3937 H         1 UNK         0.0600 
    204 H204        0.3314  -27.4529  -45.6415 H         1 UNK         0.0600 
    205 H205       -0.7357  -26.0862  -48.7043 H         1 UNK         0.3000 
    206 H206        0.1710  -28.6301  -49.8371 H         1 UNK         0.0600 
    207 H207        1.6342  -26.6382  -49.8747 H         1 UNK         0.0600 
    208 H208        1.2629  -27.1662  -51.5086 H         1 UNK         0.0600 
    209 H209        0.4599  -25.7513  -50.8413 H         1 UNK         0.0600 
    210 H210       -1.9116  -25.9269  -51.0096 H         1 UNK         0.3000 
    211 H211       -2.7528  -27.4710  -53.3306 H         1 UNK         0.0600 
    212 H212       -3.6071  -24.6939  -52.3607 H         1 UNK         0.0600 
    213 H213       -3.9657  -25.3960  -53.9280 H         1 UNK         0.0600 
    214 H214       -2.3026  -25.0403  -53.4920 H         1 UNK         0.0600 
    215 H215       -4.0169  -26.9379  -50.1565 H         1 UNK         0.3000 
    216 H216       -5.8410  -27.4894  -49.0234 H         1 UNK         0.0600 
    217 H217       -7.1187  -29.5020  -49.5944 H         1 UNK         0.0600 
    218 H218       -5.4146  -29.8009  -49.8911 H         1 UNK         0.0600 
    219 H219       -6.5052  -29.4895  -51.2415 H         1 UNK         0.0600 
    220 H220       -5.9054  -25.2560  -50.7636 H         1 UNK         0.3000 
    221 H221       -8.7914  -25.0499  -51.5823 H         1 UNK         0.0600 
    222 H222       -6.2989  -23.6527  -52.6997 H         1 UNK         0.0600 
    223 H223       -7.1818  -24.9641  -53.4756 H         1 UNK         0.0600 
    224 H224       -7.9531  -23.4019  -53.2503 H         1 UNK         0.0600 
    225 H225       -6.1433  -23.5529  -49.7900 H         1 UNK         0.3000 
    226 H226       -5.9080  -21.7899  -48.4586 H         1 UNK         0.0600 
    227 H227       -7.7782  -22.8621  -47.1837 H         1 UNK         0.0600 
    228 H228       -7.7158  -21.1210  -46.9712 H         1 UNK         0.0600 
    229 H229       -8.9310  -21.8281  -48.0265 H         1 UNK         0.0600 
    230 H230       -6.5095  -21.3794  -51.3655 H         1 UNK         0.3000 
    231 H231       -7.8820  -18.8381  -51.6172 H         1 UNK         0.0600 
    232 H232       -6.4662  -20.6104  -53.6798 H         1 UNK         0.0600 
    233 H233       -7.5725  -19.2895  -54.0376 H         1 UNK         0.0600 
    234 H234       -8.1669  -20.7258  -53.2268 H         1 UNK         0.0600 
    235 H235       -5.0071  -19.1567  -50.3710 H         1 UNK         0.3000 
    236 H236       -3.1073  -18.0400  -50.1653 H         1 UNK         0.0600 
    237 H237       -4.6646  -16.1551  -49.7344 H         1 UNK         0.0600 
    238 H238       -3.1599  -15.5883  -50.4358 H         1 UNK         0.0600 
    239 H239       -4.6010  -15.6949  -51.4360 H         1 UNK         0.0600 
    240 H240       -3.1985  -19.6878  -52.3596 H         1 UNK         0.3000 
    241 H241       -2.1518  -20.4108  -54.0725 H         1 UNK         0.0600 
    242 H242       -3.0412  -17.4537  -56.3479 H         1 UNK         0.3800 
    243 H243       -3.5779  -17.6833  -54.7024 H         1 UNK         0.3800 
    244 H244       -0.2602  -20.1983  -52.4477 H         1 UNK         0.0800 
    245 H245        0.1692  -20.4138  -54.1064 H         1 UNK         0.0800 
    246 H246       -0.1161  -18.2435  -51.1552 H         1 UNK         0.0800 
    247 H247        0.3938  -16.6620  -51.6745 H         1 UNK         0.0800 
@<TRIPOS>BOND
     1    1    2 1    
     2    1  127 1    
     3    1  128 1    
     4    1  129 1    
     5    2    3 2    
     6    2    4 am   BACKBONE|DICT|INTERRES
     7    4    5 1    
     8    4  130 1    
     9    5    6 1    
    10    5   65 1    
    11    5  131 1    
    12    6    7 1    
    13    6  132 1    
    14    6  133 1    
    15    7    8 1    
    16    8    9 1    
    17    8  134 1    
    18    8  135 1    
    19    9   10 ar   
    20    9   14 ar   
    21   10   11 ar   
    22   10  136 1    
    23   11   12 ar   
    24   11  126 1    
    25   12   13 ar   
    26   12  137 1    
    27   13   14 ar   
    28   13   15 1    
    29   14  138 1    
    30   15   16 1    
    31   15  139 1    
    32   15  140 1    
    33   16   17 1    
    34   17   18 1    
    35   17  141 1    
    36   17  142 1    
    37   18   19 1    
    38   18   67 1    
    39   18  143 1    
    40   19   20 am   BACKBONE|DICT|INTERRES
    41   19  144 1    
    42   20   21 2    
    43   20   22 1    
    44   22   23 1    
    45   22   24 1    
    46   22  145 1    
    47   23  146 1    
    48   23  147 1    
    49   23  148 1    
    50   24   25 am   BACKBONE|DICT|INTERRES
    51   24  149 1    
    52   25   26 2    
    53   25   27 1    
    54   27   28 1    
    55   27   29 1    
    56   27  150 1    
    57   28  151 1    
    58   28  152 1    
    59   28  153 1    
    60   29   30 am   BACKBONE|DICT|INTERRES
    61   29  154 1    
    62   30   31 2    
    63   30   32 1    
    64   32   33 1    
    65   32   34 1    
    66   32  155 1    
    67   33  156 1    
    68   33  157 1    
    69   33  158 1    
    70   34   35 am   BACKBONE|DICT|INTERRES
    71   34  159 1    
    72   35   36 2    
    73   35   37 1    
    74   37   38 1    
    75   37   39 1    
    76   37  160 1    
    77   38  161 1    
    78   38  162 1    
    79   38  163 1    
    80   39   40 am   BACKBONE|DICT|INTERRES
    81   39  164 1    
    82   40   41 2    
    83   40   42 1    
    84   42   43 1    
    85   42   44 1    
    86   42  165 1    
    87   43  166 1    
    88   43  167 1    
    89   43  168 1    
    90   44   45 am   BACKBONE|DICT|INTERRES
    91   44  169 1    
    92   45   46 2    
    93   45   47 1    
    94   47   48 1    
    95   47   49 1    
    96   47  170 1    
    97   48  171 1    
    98   48  172 1    
    99   48  173 1    
   100   49   50 am   BACKBONE|DICT|INTERRES
   101   49  174 1    
   102   50   51 2    
   103   50   52 1    
   104   52   53 1    
   105   52   54 1    
   106   52  175 1    
   107   53  176 1    
   108   53  177 1    
   109   53  178 1    
   110   54   55 am   BACKBONE|DICT|INTERRES
   111   54  179 1    
   112   55   56 2    
   113   55   57 1    
   114   57   58 1    
   115   57   59 1    
   116   57  180 1    
   117   58  181 1    
   118   58  182 1    
   119   58  183 1    
   120   59   60 am   BACKBONE|DICT|INTERRES
   121   59  184 1    
   122   60   61 2    
   123   60   62 1    
   124   62   63 1    
   125   62   64 1    
   126   62  185 1    
   127   63  186 1    
   128   63  187 1    
   129   63  188 1    
   130   64   65 am   BACKBONE|DICT|INTERRES
   131   64  189 1    
   132   65   66 2    
   133   67   68 2    
   134   67   69 am   BACKBONE|DICT|INTERRES
   135   69   70 1    
   136   69  190 1    
   137   70   71 1    
   138   70   72 1    
   139   70  191 1    
   140   71  192 1    
   141   71  193 1    
   142   71  194 1    
   143   72   73 2    
   144   72   74 am   BACKBONE|DICT|INTERRES
   145   74   75 1    
   146   74  195 1    
   147   75   76 1    
   148   75   77 1    
   149   75  196 1    
   150   76  197 1    
   151   76  198 1    
   152   76  199 1    
   153   77   78 2    
   154   77   79 am   BACKBONE|DICT|INTERRES
   155   79   80 1    
   156   79  200 1    
   157   80   81 1    
   158   80   82 1    
   159   80  201 1    
   160   81  202 1    
   161   81  203 1    
   162   81  204 1    
   163   82   83 2    
   164   82   84 am   BACKBONE|DICT|INTERRES
   165   84   85 1    
   166   84  205 1    
   167   85   86 1    
   168   85   87 1    
   169   85  206 1    
   170   86  207 1    
   171   86  208 1    
   172   86  209 1    
   173   87   88 2    
   174   87   89 am   BACKBONE|DICT|INTERRES
   175   89   90 1    
   176   89  210 1    
   177   90   91 1    
   178   90   92 1    
   179   90  211 1    
   180   91  212 1    
   181   91  213 1    
   182   91  214 1    
   183   92   93 2    
   184   92   94 am   BACKBONE|DICT|INTERRES
   185   94   95 1    
   186   94  215 1    
   187   95   96 1    
   188   95   97 1    
   189   95  216 1    
   190   96  217 1    
   191   96  218 1    
   192   96  219 1    
   193   97   98 2    
   194   97   99 am   BACKBONE|DICT|INTERRES
   195   99  100 1    
   196   99  220 1    
   197  100  101 1    
   198  100  102 1    
   199  100  221 1    
   200  101  222 1    
   201  101  223 1    
   202  101  224 1    
   203  102  103 2    
   204  102  104 am   BACKBONE|DICT|INTERRES
   205  104  105 1    
   206  104  225 1    
   207  105  106 1    
   208  105  107 1    
   209  105  226 1    
   210  106  227 1    
   211  106  228 1    
   212  106  229 1    
   213  107  108 2    
   214  107  109 am   BACKBONE|DICT|INTERRES
   215  109  110 1    
   216  109  230 1    
   217  110  111 1    
   218  110  112 1    
   219  110  231 1    
   220  111  232 1    
   221  111  233 1    
   222  111  234 1    
   223  112  113 2    
   224  112  114 am   BACKBONE|DICT|INTERRES
   225  114  115 1    
   226  114  235 1    
   227  115  116 1    
   228  115  117 1    
   229  115  236 1    
   230  116  237 1    
   231  116  238 1    
   232  116  239 1    
   233  117  118 2    
   234  117  119 am   BACKBONE|DICT|INTERRES
   235  119  120 1    
   236  119  240 1    
   237  120  121 1    
   238  120  124 1    
   239  120  241 1    
   240  121  122 am   BACKBONE|DICT|INTERRES
   241  121  123 2    
   242  122  242 1    
   243  122  243 1    
   244  124  125 1    
   245  124  244 1    
   246  124  245 1    
   247  125  126 1    
   248  126  246 1    
   249  126  247 1    
@<TRIPOS>SUBSTRUCTURE
     1 UNK         1 GROUP             0       ****    0 ROOT    
