@<TRIPOS>MOLECULE
3R540
247   249    1
SMALL
USER_CHARGES


@<TRIPOS>ATOM
      1 CA          2.0989  -15.9840  -49.5415 C.3       0 UNK        -0.1800 
      2 C           1.2184  -15.8013  -48.3155 C.2       0 UNK         0.5000 
      3 O           1.7221  -15.8145  -47.1942 O.2       0 UNK        -0.5000 
      4 N          -0.0888  -15.5946  -48.5190 N.am      1 UNK        -0.5000 
      5 CA         -1.1250  -15.3859  -47.4962 C.3       1 UNK         0.1400 
      6 C6         -2.5414  -15.7080  -48.0467 C.3       23 UNK        -0.0398 
      7 S7         -2.9801  -14.8003  -49.5757 S.3       23 UNK        -0.2404 
      8 C8         -3.2340  -16.1484  -50.7743 C.3       23 UNK        -0.0205 
      9 C9         -1.9254  -16.8011  -51.1931 C.ar      23 UNK        -0.0193 
     10 C10        -1.1215  -16.1974  -52.1643 C.ar      23 UNK        -0.1150 
     11 C11         0.0813  -16.7897  -52.5579 C.ar      23 UNK        -0.0193 
     12 C12         0.4843  -17.9868  -51.9601 C.ar      23 UNK        -0.1150 
     13 C13        -0.3169  -18.6092  -51.0005 C.ar      23 UNK        -0.0193 
     14 C14        -1.5242  -18.0137  -50.6250 C.ar      23 UNK        -0.1150 
     15 C15         0.1230  -19.9333  -50.3946 C.3       23 UNK        -0.0205 
     16 S16         0.9450  -19.6965  -48.7896 S.3       23 UNK        -0.2404 
     17 C17        -0.4494  -19.9209  -47.6373 C.3       23 UNK        -0.0398 
     18 CA         -0.4278  -21.3286  -46.9983 C.3       11 UNK         0.1400 
     19 N           0.6543  -21.4802  -46.0160 N.am      11 UNK        -0.5000 
     20 C           1.0167  -22.6341  -45.4370 C.2       10 UNK         0.5000 
     21 O           0.4604  -23.7086  -45.6612 O.2       10 UNK        -0.5000 
     22 CA          2.1506  -22.5702  -44.3971 C.3       10 UNK         0.1400 
     23 CB          3.5241  -22.4237  -45.0698 C.3       10 UNK        -0.1800 
     24 N           1.9429  -21.4839  -43.4395 N.am      10 UNK        -0.5000 
     25 C           1.0117  -21.5032  -42.4746 C.2       9 UNK         0.5000 
     26 O           0.3075  -22.4823  -42.2293 O.2       9 UNK        -0.5000 
     27 CA          0.8011  -20.2041  -41.6711 C.3       9 UNK         0.1400 
     28 CB          1.7363  -20.1528  -40.4541 C.3       9 UNK        -0.1800 
     29 N           0.9878  -18.9980  -42.4770 N.am      9 UNK        -0.5000 
     30 C           0.2326  -18.6562  -43.5297 C.2       8 UNK         0.5000 
     31 O          -0.7530  -19.2897  -43.9029 O.2       8 UNK        -0.5000 
     32 CA          0.6984  -17.4396  -44.3428 C.3       8 UNK         0.1400 
     33 CB          0.1862  -16.1303  -43.7306 C.3       8 UNK        -0.1800 
     34 N           2.1531  -17.3927  -44.4711 N.am      8 UNK        -0.5000 
     35 C           2.8715  -18.2638  -45.1924 C.2       7 UNK         0.5000 
     36 O           2.3795  -19.2139  -45.7969 O.2       7 UNK        -0.5000 
     37 CA          4.3988  -18.0771  -45.1856 C.3       7 UNK         0.1400 
     38 CB          4.8165  -17.0020  -46.2002 C.3       7 UNK        -0.1800 
     39 N           4.9024  -17.7194  -43.8595 N.am      7 UNK        -0.5000 
     40 C           4.8535  -18.5239  -42.7875 C.2       6 UNK         0.5000 
     41 O           4.4688  -19.6927  -42.8269 O.2       6 UNK        -0.5000 
     42 CA          5.2428  -17.8914  -41.4359 C.3       6 UNK         0.1400 
     43 CB          6.7525  -18.0273  -41.1893 C.3       6 UNK        -0.1800 
     44 N           4.8560  -16.4789  -41.3303 N.am      6 UNK        -0.5000 
     45 C           3.5920  -16.0363  -41.3816 C.2       5 UNK         0.5000 
     46 O           2.6203  -16.7851  -41.5014 O.2       5 UNK        -0.5000 
     47 CA          3.4004  -14.5054  -41.3802 C.3       5 UNK         0.1400 
     48 CB          3.7305  -13.9416  -42.7716 C.3       5 UNK        -0.1800 
     49 N           2.0423  -14.0871  -41.0175 N.am      5 UNK        -0.5000 
     50 C           1.4604  -14.3176  -39.8309 C.2       4 UNK         0.5000 
     51 O           2.0406  -14.8649  -38.8911 O.2       4 UNK        -0.5000 
     52 CA          0.0041  -13.8483  -39.6343 C.3       4 UNK         0.1400 
     53 CB         -0.1397  -13.0180  -38.3461 C.3       4 UNK        -0.1800 
     54 N          -0.4955  -13.0442  -40.7510 N.am      4 UNK        -0.5000 
     55 C          -1.4082  -13.4350  -41.6490 C.2       3 UNK         0.5000 
     56 O          -1.8979  -14.5639  -41.6848 O.2       3 UNK        -0.5000 
     57 CA         -1.8835  -12.3769  -42.6676 C.3       3 UNK         0.1400 
     58 CB         -1.8173  -10.9318  -42.1248 C.3       3 UNK        -0.1800 
     59 N          -1.1990  -12.4648  -43.9601 N.am      3 UNK        -0.5000 
     60 C           0.1153  -12.3816  -44.2011 C.2       2 UNK         0.5000 
     61 O           0.9688  -12.3086  -43.3150 O.2       2 UNK        -0.5000 
     62 CA          0.5328  -12.3810  -45.6880 C.3       2 UNK         0.1400 
     63 CB          2.0396  -12.1333  -45.8814 C.3       2 UNK        -0.1800 
     64 N           0.1814  -13.6238  -46.3732 N.am      2 UNK        -0.5000 
     65 C          -1.0324  -14.0093  -46.7825 C.2       1 UNK         0.5000 
     66 O          -2.0424  -13.3265  -46.5998 O.2       1 UNK        -0.5000 
     67 C          -1.8192  -21.6971  -46.4437 C.2       11 UNK         0.5000 
     68 O          -2.6799  -22.1109  -47.2216 O.2       11 UNK        -0.5000 
     69 N          -2.0204  -21.5921  -45.1236 N.am      12 UNK        -0.5000 
     70 CA         -3.2291  -22.0296  -44.4224 C.3       12 UNK         0.1400 
     71 CB         -3.1398  -21.6286  -42.9434 C.3       12 UNK        -0.1800 
     72 C          -3.5090  -23.5403  -44.5602 C.2       12 UNK         0.5000 
     73 O          -4.6758  -23.9317  -44.5731 O.2       12 UNK        -0.5000 
     74 N          -2.4577  -24.3585  -44.7283 N.am      13 UNK        -0.5000 
     75 CA         -2.5700  -25.7958  -45.0029 C.3       13 UNK         0.1400 
     76 CB         -1.2121  -26.4731  -44.7653 C.3       13 UNK        -0.1800 
     77 C          -3.0869  -26.0963  -46.4256 C.2       13 UNK         0.5000 
     78 O          -3.6519  -27.1665  -46.6508 O.2       13 UNK        -0.5000 
     79 N          -2.9190  -25.1357  -47.3449 N.am      14 UNK        -0.5000 
     80 CA         -3.4742  -25.1396  -48.6996 C.3       14 UNK         0.1400 
     81 CB         -2.4179  -24.5707  -49.6643 C.3       14 UNK        -0.1800 
     82 C          -4.7902  -24.3358  -48.7782 C.2       14 UNK         0.5000 
     83 O          -5.2468  -24.0348  -49.8831 O.2       14 UNK        -0.5000 
     84 N          -5.3540  -23.9684  -47.6149 N.am      15 UNK        -0.5000 
     85 CA         -6.5636  -23.1643  -47.4181 C.3       15 UNK         0.1400 
     86 CB         -7.8157  -23.9685  -47.8213 C.3       15 UNK        -0.1800 
     87 C          -6.4717  -21.7723  -48.0784 C.2       15 UNK         0.5000 
     88 O          -7.4311  -21.3162  -48.7018 O.2       15 UNK        -0.5000 
     89 N          -5.2963  -21.1395  -47.9327 N.am      16 UNK        -0.5000 
     90 CA         -4.8908  -19.8644  -48.5321 C.3       16 UNK         0.1400 
     91 CB         -5.7471  -18.6924  -48.0091 C.3       16 UNK        -0.1800 
     92 C          -4.8294  -19.9524  -50.0696 C.2       16 UNK         0.5000 
     93 O          -5.3311  -19.0677  -50.7634 O.2       16 UNK        -0.5000 
     94 N          -4.2078  -21.0384  -50.5548 N.am      17 UNK        -0.5000 
     95 CA         -4.0566  -21.4227  -51.9607 C.3       17 UNK         0.1400 
     96 CB         -3.1087  -20.4614  -52.7080 C.3       17 UNK        -0.1800 
     97 C          -5.4149  -21.5920  -52.6665 C.2       17 UNK         0.5000 
     98 O          -5.6846  -20.9271  -53.6680 O.2       17 UNK        -0.5000 
     99 N          -6.2466  -22.5030  -52.1422 N.am      18 UNK        -0.5000 
    100 CA        -7.5709  -22.8329  -52.6855 C.3       18 UNK         0.1400 
    101 CB        -8.3045  -23.7586  -51.7063 C.3       18 UNK        -0.1800 
    102 C         -7.5387  -23.4434  -54.1037 C.2       18 UNK         0.5000 
    103 O         -8.5408  -23.3785  -54.8164 O.2       18 UNK        -0.5000 
    104 N         -6.3797  -23.9856  -54.5022 N.am      19 UNK        -0.5000 
    105 CA        -6.0729  -24.4364  -55.8615 C.3       19 UNK         0.1400 
    106 CB        -4.8468  -25.3617  -55.7981 C.3       19 UNK        -0.1800 
    107 C         -5.8273  -23.2810  -56.8604 C.2       19 UNK         0.5000 
    108 O         -5.7315  -23.5472  -58.0594 O.2       19 UNK        -0.5000 
    109 N         -5.7274  -22.0399  -56.3562 N.am      20 UNK        -0.5000 
    110 CA        -5.4065  -20.7893  -57.0508 C.3       20 UNK         0.1400 
    111 CB        -6.3918  -20.5174  -58.2086 C.3       20 UNK        -0.1800 
    112 C         -3.9315  -20.7103  -57.4963 C.2       20 UNK         0.5000 
    113 O         -3.1507  -21.6372  -57.2616 O.2       20 UNK        -0.5000 
    114 N         -3.5672  -19.5650  -58.0940 N.am      21 UNK        -0.5000 
    115 CA        -2.2555  -19.2408  -58.6753 C.3       21 UNK         0.1400 
    116 CB        -2.0439  -20.0469  -59.9740 C.3       21 UNK        -0.1800 
    117 C         -1.0729  -19.3820  -57.6896 C.2       21 UNK         0.5000 
    118 O          0.0278  -19.7543  -58.1006 O.2       21 UNK        -0.5000 
    119 N         -1.3335  -19.1019  -56.4044 N.am      22 UNK        -0.5000 
    120 CA        -0.4093  -19.2813  -55.2686 C.3       22 UNK         0.1400 
    121 C         -0.0601  -20.7691  -54.9459 C.2       22 UNK         0.5000 
    122 N         -0.7824  -21.7560  -55.4659 N.am      22 UNK        -0.7600 
    123 O          0.8604  -21.0402  -54.1799 O.2       22 UNK        -0.5000 
    124 C124        0.8517  -18.3713  -55.3576 C.3       23 UNK        -0.0398 
    125 S125        0.4305  -16.5940  -55.3078 S.3       23 UNK        -0.2404 
    126 C126        0.9489  -16.1333  -53.6217 C.3       23 UNK        -0.0205 
    127 H127        1.6127  -15.6094  -50.4416 H         1 UNK         0.0600 
    128 H128        2.3289  -17.0396  -49.6841 H         1 UNK         0.0600 
    129 H129        3.0369  -15.4434  -49.4160 H         1 UNK         0.0600 
    130 H130       -0.4340  -15.5752  -49.4690 H         1 UNK         0.3000 
    131 H131       -0.9385  -16.1171  -46.7091 H         1 UNK         0.0600 
    132 H132       -2.6116  -16.7789  -48.2357 H         1 UNK         0.0800 
    133 H133       -3.3068  -15.5089  -47.2946 H         1 UNK         0.0800 
    134 H134       -3.9184  -16.8839  -50.3525 H         1 UNK         0.0800 
    135 H135       -3.7334  -15.7453  -51.6564 H         1 UNK         0.0800 
    136 H136       -1.4347  -15.2669  -52.6170 H         1 UNK         0.1150 
    137 H137        1.4201  -18.4442  -52.2477 H         1 UNK         0.1150 
    138 H138       -2.1547  -18.4938  -49.8935 H         1 UNK         0.1150 
    139 H139        0.8187  -20.4355  -51.0690 H         1 UNK         0.0800 
    140 H140       -0.7277  -20.6082  -50.2915 H         1 UNK         0.0800 
    141 H141       -1.3804  -19.7453  -48.1751 H         1 UNK         0.0800 
    142 H142       -0.3992  -19.1491  -46.8696 H         1 UNK         0.0800 
    143 H143       -0.2344  -22.0535  -47.7921 H         1 UNK         0.0600 
    144 H144        1.2026  -20.6440  -45.8238 H         1 UNK         0.3000 
    145 H145        2.1515  -23.5142  -43.8479 H         1 UNK         0.0600 
    146 H146        3.7160  -23.2589  -45.7444 H         1 UNK         0.0600 
    147 H147        3.5993  -21.5084  -45.6557 H         1 UNK         0.0600 
    148 H148        4.3246  -22.4115  -44.3299 H         1 UNK         0.0600 
    149 H149        2.5094  -20.6533  -43.5555 H         1 UNK         0.3000 
    150 H150       -0.2293  -20.2032  -41.3096 H         1 UNK         0.0600 
    151 H151        1.5640  -19.2541  -39.8612 H         1 UNK         0.0600 
    152 H152        2.7849  -20.1612  -40.7510 H         1 UNK         0.0600 
    153 H153        1.5735  -21.0112  -39.8013 H         1 UNK         0.0600 
    154 H154        1.7436  -18.3742  -42.2081 H         1 UNK         0.3000 
    155 H155        0.2859  -17.5270  -45.3479 H         1 UNK         0.0600 
    156 H156       -0.8961  -16.0522  -43.8369 H         1 UNK         0.0600 
    157 H157        0.6288  -15.2675  -44.2234 H         1 UNK         0.0600 
    158 H158        0.4134  -16.0560  -42.6674 H         1 UNK         0.0600 
    159 H159        2.6326  -16.6795  -43.9451 H         1 UNK         0.3000 
    160 H160        4.8539  -19.0249  -45.4810 H         1 UNK         0.0600 
    161 H161        4.4538  -17.2493  -47.1991 H         1 UNK         0.0600 
    162 H162        5.9013  -16.9138  -46.2598 H         1 UNK         0.0600 
    163 H163        4.4112  -16.0228  -45.9414 H         1 UNK         0.0600 
    164 H164        5.2439  -16.7779  -43.7389 H         1 UNK         0.3000 
    165 H165        4.7175  -18.4410  -40.6521 H         1 UNK         0.0600 
    166 H166        7.0255  -17.6584  -40.2005 H         1 UNK         0.0600 
    167 H167        7.0637  -19.0716  -41.2422 H         1 UNK         0.0600 
    168 H168        7.3338  -17.4737  -41.9277 H         1 UNK         0.0600 
    169 H169        5.6084  -15.8116  -41.2368 H         1 UNK         0.3000 
    170 H170        4.0899  -14.0750  -40.6514 H         1 UNK         0.0600 
    171 H171        3.6456  -12.8548  -42.7867 H         1 UNK         0.0600 
    172 H172        4.7498  -14.1871  -43.0716 H         1 UNK         0.0600 
    173 H173        3.0581  -14.3395  -43.5324 H         1 UNK         0.0600 
    174 H174        1.5091  -13.6132  -41.7381 H         1 UNK         0.3000 
    175 H175       -0.6001  -14.7505  -39.5203 H         1 UNK         0.0600 
    176 H176        0.4775  -12.1193  -38.3764 H         1 UNK         0.0600 
    177 H177       -1.1737  -12.7094  -38.1905 H         1 UNK         0.0600 
    178 H178        0.1586  -13.5932  -37.4687 H         1 UNK         0.0600 
    179 H179       -0.1121  -12.1135  -40.8382 H         1 UNK         0.3000 
    180 H180       -2.9335  -12.5985  -42.8647 H         1 UNK         0.0600 
    181 H181       -2.3099  -10.2394  -42.8075 H         1 UNK         0.0600 
    182 H182       -0.7929  -10.5836  -41.9894 H         1 UNK         0.0600 
    183 H183       -2.3258  -10.8497  -41.1632 H         1 UNK         0.0600 
    184 H184       -1.7991  -12.6029  -44.7679 H         1 UNK         0.3000 
    185 H185       -0.0006  -11.5587  -46.1690 H         1 UNK         0.0600 
    186 H186        2.6375  -12.9485  -45.4736 H         1 UNK         0.0600 
    187 H187        2.2887  -12.0353  -46.9381 H         1 UNK         0.0600 
    188 H188        2.3544  -11.2129  -45.3879 H         1 UNK         0.0600 
    189 H189        0.9431  -14.2775  -46.5412 H         1 UNK         0.3000 
    190 H190       -1.3055  -21.1428  -44.5614 H         1 UNK         0.3000 
    191 H191       -4.0743  -21.4992  -44.8658 H         1 UNK         0.0600 
    192 H192       -2.3128  -22.1290  -42.4404 H         1 UNK         0.0600 
    193 H193       -4.0545  -21.8935  -42.4116 H         1 UNK         0.0600 
    194 H194       -3.0000  -20.5532  -42.8322 H         1 UNK         0.0600 
    195 H195       -1.5231  -23.9666  -44.7476 H         1 UNK         0.3000 
    196 H196       -3.2856  -26.2205  -44.2956 H         1 UNK         0.0600 
    197 H197       -1.3009  -27.5572  -44.8452 H         1 UNK         0.0600 
    198 H198       -0.8255  -26.2504  -43.7707 H         1 UNK         0.0600 
    199 H199       -0.4683  -26.1545  -45.4956 H         1 UNK         0.0600 
    200 H200       -2.4746  -24.2718  -47.0613 H         1 UNK         0.3000 
    201 H201       -3.7010  -26.1616  -49.0089 H         1 UNK         0.0600 
    202 H202       -1.4866  -25.1339  -49.6027 H         1 UNK         0.0600 
    203 H203       -2.1904  -23.5264  -49.4494 H         1 UNK         0.0600 
    204 H204       -2.7588  -24.6266  -50.6987 H         1 UNK         0.0600 
    205 H205       -4.8922  -24.2520  -46.7607 H         1 UNK         0.3000 
    206 H206       -6.6352  -22.9740  -46.3465 H         1 UNK         0.0600 
    207 H207       -8.7273  -23.3887  -47.6727 H         1 UNK         0.0600 
    208 H208       -7.7821  -24.2741  -48.8653 H         1 UNK         0.0600 
    209 H209       -7.9071  -24.8716  -47.2180 H         1 UNK         0.0600 
    210 H210       -4.5478  -21.6378  -47.4602 H         1 UNK         0.3000 
    211 H211       -3.8682  -19.6853  -48.1992 H         1 UNK         0.0600 
    212 H212       -6.7807  -18.7578  -48.3495 H         1 UNK         0.0600 
    213 H213       -5.3515  -17.7368  -48.3550 H         1 UNK         0.0600 
    214 H214       -5.7533  -18.6651  -46.9196 H         1 UNK         0.0600 
    215 H215       -3.8870  -21.7223  -49.8848 H         1 UNK         0.3000 
    216 H216       -3.5875  -22.4077  -51.9645 H         1 UNK         0.0600 
    217 H217       -3.0060  -20.7510  -53.7543 H         1 UNK         0.0600 
    218 H218       -2.1105  -20.4802  -52.2753 H         1 UNK         0.0600 
    219 H219       -3.4662  -19.4317  -52.6894 H         1 UNK         0.0600 
    220 H220       -5.9538  -23.0157  -51.3126 H         1 UNK         0.3000 
    221 H221       -8.1385  -21.9028  -52.7564 H         1 UNK         0.0600 
    222 H222       -7.7235  -24.6548  -51.4849 H         1 UNK         0.0600 
    223 H223       -8.5046  -23.2403  -50.7692 H         1 UNK         0.0600 
    224 H224       -9.2672  -24.0779  -52.1077 H         1 UNK         0.0600 
    225 H225       -5.6199  -24.0100  -53.8386 H         1 UNK         0.3000 
    226 H226       -6.9206  -25.0152  -56.2341 H         1 UNK         0.0600 
    227 H227       -5.0248  -26.2102  -55.1372 H         1 UNK         0.0600 
    228 H228       -4.6083  -25.7644  -56.7834 H         1 UNK         0.0600 
    229 H229       -3.9632  -24.8327  -55.4383 H         1 UNK         0.0600 
    230 H230       -5.8001  -21.9332  -55.3497 H         1 UNK         0.3000 
    231 H231       -5.5452  -20.0029  -56.3077 H         1 UNK         0.0600 
    232 H232       -6.2078  -21.1691  -59.0631 H         1 UNK         0.0600 
    233 H233       -7.4241  -20.6647  -57.8905 H         1 UNK         0.0600 
    234 H234       -6.3118  -19.4898  -58.5638 H         1 UNK         0.0600 
    235 H235       -4.2691  -18.8464  -58.2038 H         1 UNK         0.3000 
    236 H236       -2.2926  -18.1848  -58.9464 H         1 UNK         0.0600 
    237 H237       -1.9470  -21.1145  -59.7735 H         1 UNK         0.0600 
    238 H238       -2.8773  -19.9101  -60.6632 H         1 UNK         0.0600 
    239 H239       -1.1403  -19.7270  -60.4943 H         1 UNK         0.0600 
    240 H240       -2.2682  -18.8063  -56.1651 H         1 UNK         0.3000 
    241 H241       -0.9729  -18.9565  -54.3934 H         1 UNK         0.0600 
    242 H242       -0.5431  -22.7072  -55.2386 H         1 UNK         0.3800 
    243 H243       -1.5502  -21.5755  -56.1055 H         1 UNK         0.3800 
    244 H244        1.5514  -18.5848  -54.5502 H         1 UNK         0.0800 
    245 H245        1.4099  -18.5686  -56.2726 H         1 UNK         0.0800 
    246 H246        0.8911  -15.0486  -53.5206 H         1 UNK         0.0800 
    247 H247        1.9983  -16.3939  -53.4752 H         1 UNK         0.0800 
@<TRIPOS>BOND
     1    1    2 1    
     2    1  127 1    
     3    1  128 1    
     4    1  129 1    
     5    2    3 2    
     6    2    4 am   BACKBONE|DICT|INTERRES
     7    4    5 1    
     8    4  130 1    
     9    5    6 1    
    10    5   65 1    
    11    5  131 1    
    12    6    7 1    
    13    6  132 1    
    14    6  133 1    
    15    7    8 1    
    16    8    9 1    
    17    8  134 1    
    18    8  135 1    
    19    9   10 ar   
    20    9   14 ar   
    21   10   11 ar   
    22   10  136 1    
    23   11   12 ar   
    24   11  126 1    
    25   12   13 ar   
    26   12  137 1    
    27   13   14 ar   
    28   13   15 1    
    29   14  138 1    
    30   15   16 1    
    31   15  139 1    
    32   15  140 1    
    33   16   17 1    
    34   17   18 1    
    35   17  141 1    
    36   17  142 1    
    37   18   19 1    
    38   18   67 1    
    39   18  143 1    
    40   19   20 am   BACKBONE|DICT|INTERRES
    41   19  144 1    
    42   20   21 2    
    43   20   22 1    
    44   22   23 1    
    45   22   24 1    
    46   22  145 1    
    47   23  146 1    
    48   23  147 1    
    49   23  148 1    
    50   24   25 am   BACKBONE|DICT|INTERRES
    51   24  149 1    
    52   25   26 2    
    53   25   27 1    
    54   27   28 1    
    55   27   29 1    
    56   27  150 1    
    57   28  151 1    
    58   28  152 1    
    59   28  153 1    
    60   29   30 am   BACKBONE|DICT|INTERRES
    61   29  154 1    
    62   30   31 2    
    63   30   32 1    
    64   32   33 1    
    65   32   34 1    
    66   32  155 1    
    67   33  156 1    
    68   33  157 1    
    69   33  158 1    
    70   34   35 am   BACKBONE|DICT|INTERRES
    71   34  159 1    
    72   35   36 2    
    73   35   37 1    
    74   37   38 1    
    75   37   39 1    
    76   37  160 1    
    77   38  161 1    
    78   38  162 1    
    79   38  163 1    
    80   39   40 am   BACKBONE|DICT|INTERRES
    81   39  164 1    
    82   40   41 2    
    83   40   42 1    
    84   42   43 1    
    85   42   44 1    
    86   42  165 1    
    87   43  166 1    
    88   43  167 1    
    89   43  168 1    
    90   44   45 am   BACKBONE|DICT|INTERRES
    91   44  169 1    
    92   45   46 2    
    93   45   47 1    
    94   47   48 1    
    95   47   49 1    
    96   47  170 1    
    97   48  171 1    
    98   48  172 1    
    99   48  173 1    
   100   49   50 am   BACKBONE|DICT|INTERRES
   101   49  174 1    
   102   50   51 2    
   103   50   52 1    
   104   52   53 1    
   105   52   54 1    
   106   52  175 1    
   107   53  176 1    
   108   53  177 1    
   109   53  178 1    
   110   54   55 am   BACKBONE|DICT|INTERRES
   111   54  179 1    
   112   55   56 2    
   113   55   57 1    
   114   57   58 1    
   115   57   59 1    
   116   57  180 1    
   117   58  181 1    
   118   58  182 1    
   119   58  183 1    
   120   59   60 am   BACKBONE|DICT|INTERRES
   121   59  184 1    
   122   60   61 2    
   123   60   62 1    
   124   62   63 1    
   125   62   64 1    
   126   62  185 1    
   127   63  186 1    
   128   63  187 1    
   129   63  188 1    
   130   64   65 am   BACKBONE|DICT|INTERRES
   131   64  189 1    
   132   65   66 2    
   133   67   68 2    
   134   67   69 am   BACKBONE|DICT|INTERRES
   135   69   70 1    
   136   69  190 1    
   137   70   71 1    
   138   70   72 1    
   139   70  191 1    
   140   71  192 1    
   141   71  193 1    
   142   71  194 1    
   143   72   73 2    
   144   72   74 am   BACKBONE|DICT|INTERRES
   145   74   75 1    
   146   74  195 1    
   147   75   76 1    
   148   75   77 1    
   149   75  196 1    
   150   76  197 1    
   151   76  198 1    
   152   76  199 1    
   153   77   78 2    
   154   77   79 am   BACKBONE|DICT|INTERRES
   155   79   80 1    
   156   79  200 1    
   157   80   81 1    
   158   80   82 1    
   159   80  201 1    
   160   81  202 1    
   161   81  203 1    
   162   81  204 1    
   163   82   83 2    
   164   82   84 am   BACKBONE|DICT|INTERRES
   165   84   85 1    
   166   84  205 1    
   167   85   86 1    
   168   85   87 1    
   169   85  206 1    
   170   86  207 1    
   171   86  208 1    
   172   86  209 1    
   173   87   88 2    
   174   87   89 am   BACKBONE|DICT|INTERRES
   175   89   90 1    
   176   89  210 1    
   177   90   91 1    
   178   90   92 1    
   179   90  211 1    
   180   91  212 1    
   181   91  213 1    
   182   91  214 1    
   183   92   93 2    
   184   92   94 am   BACKBONE|DICT|INTERRES
   185   94   95 1    
   186   94  215 1    
   187   95   96 1    
   188   95   97 1    
   189   95  216 1    
   190   96  217 1    
   191   96  218 1    
   192   96  219 1    
   193   97   98 2    
   194   97   99 am   BACKBONE|DICT|INTERRES
   195   99  100 1    
   196   99  220 1    
   197  100  101 1    
   198  100  102 1    
   199  100  221 1    
   200  101  222 1    
   201  101  223 1    
   202  101  224 1    
   203  102  103 2    
   204  102  104 am   BACKBONE|DICT|INTERRES
   205  104  105 1    
   206  104  225 1    
   207  105  106 1    
   208  105  107 1    
   209  105  226 1    
   210  106  227 1    
   211  106  228 1    
   212  106  229 1    
   213  107  108 2    
   214  107  109 am   BACKBONE|DICT|INTERRES
   215  109  110 1    
   216  109  230 1    
   217  110  111 1    
   218  110  112 1    
   219  110  231 1    
   220  111  232 1    
   221  111  233 1    
   222  111  234 1    
   223  112  113 2    
   224  112  114 am   BACKBONE|DICT|INTERRES
   225  114  115 1    
   226  114  235 1    
   227  115  116 1    
   228  115  117 1    
   229  115  236 1    
   230  116  237 1    
   231  116  238 1    
   232  116  239 1    
   233  117  118 2    
   234  117  119 am   BACKBONE|DICT|INTERRES
   235  119  120 1    
   236  119  240 1    
   237  120  121 1    
   238  120  124 1    
   239  120  241 1    
   240  121  122 am   BACKBONE|DICT|INTERRES
   241  121  123 2    
   242  122  242 1    
   243  122  243 1    
   244  124  125 1    
   245  124  244 1    
   246  124  245 1    
   247  125  126 1    
   248  126  246 1    
   249  126  247 1    
@<TRIPOS>SUBSTRUCTURE
     1 UNK         1 GROUP             0       ****    0 ROOT    
