@<TRIPOS>MOLECULE
3R540
247   249    1
SMALL
USER_CHARGES


@<TRIPOS>ATOM
      1 CA         -0.7375  -10.8797  -46.4974 C.3       0 UNK        -0.1800 
      2 C          -1.7486  -11.3473  -47.5442 C.2       0 UNK         0.5000 
      3 O          -2.8070  -10.7356  -47.6720 O.2       0 UNK        -0.5000 
      4 N          -1.4817  -12.4129  -48.3145 N.am      1 UNK        -0.5000 
      5 CA         -0.2855  -13.2676  -48.2749 C.3       1 UNK         0.1400 
      6 C6         -0.2106  -14.2242  -49.4869 C.3       23 UNK        -0.0398 
      7 S7         -0.2195  -13.3786  -51.1033 S.3       23 UNK        -0.2404 
      8 C8          0.5767  -14.6371  -52.1566 C.3       23 UNK        -0.0205 
      9 C9         -0.1507  -15.9728  -52.0903 C.ar      23 UNK        -0.0193 
     10 C10        -1.3208  -16.1763  -52.8267 C.ar      23 UNK        -0.1150 
     11 C11        -2.0113  -17.3882  -52.7367 C.ar      23 UNK        -0.0193 
     12 C12        -1.5331  -18.3924  -51.8907 C.ar      23 UNK        -0.1150 
     13 C13        -0.3569  -18.2071  -51.1600 C.ar      23 UNK        -0.0193 
     14 C14         0.3373  -16.9999  -51.2762 C.ar      23 UNK        -0.1150 
     15 C15         0.1660  -19.3148  -50.2548 C.3       23 UNK        -0.0205 
     16 S16         0.3049  -18.7988  -48.5113 S.3       23 UNK        -0.2404 
     17 C17        -1.4314  -18.4430  -48.0785 C.3       23 UNK        -0.0398 
     18 CA         -2.1778  -19.6917  -47.5555 C.3       11 UNK         0.1400 
     19 N          -1.5973  -20.2161  -46.3131 N.am      11 UNK        -0.5000 
     20 C          -1.9666  -21.3652  -45.7265 C.2       10 UNK         0.5000 
     21 O          -2.8207  -22.1130  -46.1983 O.2       10 UNK        -0.5000 
     22 CA         -1.3357  -21.7212  -44.3649 C.3       10 UNK         0.1400 
     23 CB         -0.1456  -22.6705  -44.5661 C.3       10 UNK        -0.1800 
     24 N          -0.8963  -20.5634  -43.5832 N.am      10 UNK        -0.5000 
     25 C          -1.6614  -19.5235  -43.2205 C.2       9 UNK         0.5000 
     26 O          -2.8697  -19.4557  -43.4442 O.2       9 UNK        -0.5000 
     27 CA         -0.9512  -18.3265  -42.5561 C.3       9 UNK         0.1400 
     28 CB         -1.1223  -18.3809  -41.0316 C.3       9 UNK        -0.1800 
     29 N           0.4747  -18.1765  -42.8782 N.am      9 UNK        -0.5000 
     30 C           1.0224  -18.1366  -44.1038 C.2       8 UNK         0.5000 
     31 O           0.3725  -18.2898  -45.1372 O.2       8 UNK        -0.5000 
     32 CA          2.5408  -17.9008  -44.1997 C.3       8 UNK         0.1400 
     33 CB          2.8521  -16.6704  -45.0654 C.3       8 UNK        -0.1800 
     34 N           3.1634  -17.7123  -42.8896 N.am      8 UNK        -0.5000 
     35 C           3.7603  -18.6705  -42.1680 C.2       7 UNK         0.5000 
     36 O           3.7938  -19.8536  -42.5095 O.2       7 UNK        -0.5000 
     37 CA          4.4135  -18.2275  -40.8388 C.3       7 UNK         0.1400 
     38 CB          5.5513  -19.1643  -40.3828 C.3       7 UNK        -0.1800 
     39 N           4.8549  -16.8277  -40.8560 N.am      7 UNK        -0.5000 
     40 C           5.7788  -16.2681  -41.6555 C.2       6 UNK         0.5000 
     41 O           6.4849  -16.9069  -42.4365 O.2       6 UNK        -0.5000 
     42 CA          5.9143  -14.7319  -41.6125 C.3       6 UNK         0.1400 
     43 CB          5.6181  -14.1311  -42.9971 C.3       6 UNK        -0.1800 
     44 N           5.0016  -14.1231  -40.6434 N.am      6 UNK        -0.5000 
     45 C           5.3184  -13.8001  -39.3822 C.2       5 UNK         0.5000 
     46 O           6.4483  -13.9198  -38.9078 O.2       5 UNK        -0.5000 
     47 CA          4.1740  -13.2741  -38.4908 C.3       5 UNK         0.1400 
     48 CB          4.1681  -11.7379  -38.4780 C.3       5 UNK        -0.1800 
     49 N           2.8485  -13.7507  -38.8976 N.am      5 UNK        -0.5000 
     50 C           2.4431  -15.0280  -38.8556 C.2       4 UNK         0.5000 
     51 O           3.1406  -15.9523  -38.4395 O.2       4 UNK        -0.5000 
     52 CA          1.0540  -15.3365  -39.4444 C.3       4 UNK         0.1400 
     53 CB         -0.0269  -15.2671  -38.3563 C.3       4 UNK        -0.1800 
     54 N           0.6839  -14.4542  -40.5555 N.am      4 UNK        -0.5000 
     55 C           1.3322  -14.3935  -41.7251 C.2       3 UNK         0.5000 
     56 O           2.3089  -15.0958  -41.9983 O.2       3 UNK        -0.5000 
     57 CA          0.8231  -13.3624  -42.7453 C.3       3 UNK         0.1400 
     58 CB          1.9721  -12.4864  -43.2692 C.3       3 UNK        -0.1800 
     59 N           0.1818  -14.0234  -43.8751 N.am      3 UNK        -0.5000 
     60 C          -1.0340  -14.5784  -43.8656 C.2       2 UNK         0.5000 
     61 O          -1.7761  -14.5594  -42.8826 O.2       2 UNK        -0.5000 
     62 CA         -1.4946  -15.2520  -45.1789 C.3       2 UNK         0.1400 
     63 CB         -2.9485  -15.7530  -45.1185 C.3       2 UNK        -0.1800 
     64 N          -1.3439  -14.4015  -46.3618 N.am      2 UNK        -0.5000 
     65 C          -0.1937  -14.1076  -46.9849 C.2       1 UNK         0.5000 
     66 O           0.9109  -14.4659  -46.5795 O.2       1 UNK        -0.5000 
     67 C          -3.6934  -19.4080  -47.4486 C.2       11 UNK         0.5000 
     68 O          -4.3818  -19.4701  -48.4677 O.2       11 UNK        -0.5000 
     69 N          -4.2019  -19.1470  -46.2330 N.am      12 UNK        -0.5000 
     70 CA         -5.6313  -18.9641  -45.9689 C.3       12 UNK         0.1400 
     71 CB         -5.8252  -18.3363  -44.5808 C.3       12 UNK        -0.1800 
     72 C          -6.4439  -20.2691  -46.0821 C.2       12 UNK         0.5000 
     73 O          -7.6507  -20.2050  -46.3221 O.2       12 UNK        -0.5000 
     74 N          -5.7871  -21.4293  -45.9341 N.am      13 UNK        -0.5000 
     75 CA         -6.3917  -22.7542  -46.0626 C.3       13 UNK         0.1400 
     76 CB         -5.5904  -23.7655  -45.2226 C.3       13 UNK        -0.1800 
     77 C          -6.4940  -23.1580  -47.5453 C.2       13 UNK         0.5000 
     78 O          -5.8059  -24.0796  -47.9863 O.2       13 UNK        -0.5000 
     79 N          -7.3372  -22.4301  -48.2911 N.am      14 UNK        -0.5000 
     80 CA         -7.6759  -22.6293  -49.7041 C.3       14 UNK         0.1400 
     81 CB         -8.5264  -23.9065  -49.8691 C.3       14 UNK        -0.1800 
     82 C          -6.4391  -22.6159  -50.6250 C.2       14 UNK         0.5000 
     83 O          -6.2149  -23.5710  -51.3694 O.2       14 UNK        -0.5000 
     84 N          -5.6361  -21.5454  -50.5281 N.am      15 UNK        -0.5000 
     85 CA         -4.3921  -21.3250  -51.2781 C.3       15 UNK         0.1400 
     86 CB         -4.6845  -21.1696  -52.7855 C.3       15 UNK        -0.1800 
     87 C          -3.3210  -22.3935  -50.9699 C.2       15 UNK         0.5000 
     88 O          -2.6326  -22.8653  -51.8787 O.2       15 UNK        -0.5000 
     89 N          -3.2352  -22.7610  -49.6813 N.am      16 UNK        -0.5000 
     90 CA         -2.4009  -23.8201  -49.1072 C.3       16 UNK         0.1400 
     91 CB         -0.9033  -23.4637  -49.2228 C.3       16 UNK        -0.1800 
     92 C          -2.7543  -25.1988  -49.6956 C.2       16 UNK         0.5000 
     93 O          -1.8901  -25.8785  -50.2470 O.2       16 UNK        -0.5000 
     94 N          -4.0426  -25.5615  -49.6064 N.am      17 UNK        -0.5000 
     95 CA         -4.6647  -26.7598  -50.1832 C.3       17 UNK         0.1400 
     96 CB         -4.1978  -28.0264  -49.4369 C.3       17 UNK        -0.1800 
     97 C          -4.4619  -26.8442  -51.7119 C.2       17 UNK         0.5000 
     98 O          -4.1261  -27.9038  -52.2439 O.2       17 UNK        -0.5000 
     99 N          -4.6380  -25.6928  -52.3736 N.am      18 UNK        -0.5000 
    100 CA        -4.4480  -25.4157  -53.7979 C.3       18 UNK         0.1400 
    101 CB        -5.4358  -26.2354  -54.6529 C.3       18 UNK        -0.1800 
    102 C         -2.9944  -25.5407  -54.3039 C.2       18 UNK         0.5000 
    103 O         -2.7864  -25.4691  -55.5159 O.2       18 UNK        -0.5000 
    104 N         -2.0050  -25.6850  -53.4075 N.am      19 UNK        -0.5000 
    105 CA        -0.5892  -25.8389  -53.7613 C.3       19 UNK         0.1400 
    106 CB         0.2239  -26.2377  -52.5222 C.3       19 UNK        -0.1800 
    107 C          0.0231  -24.5894  -54.4197 C.2       19 UNK         0.5000 
    108 O          0.9386  -24.7263  -55.2323 O.2       19 UNK        -0.5000 
    109 N         -0.5015  -23.4014  -54.0860 N.am      20 UNK        -0.5000 
    110 CA        -0.1131  -22.1355  -54.7122 C.3       20 UNK         0.1400 
    111 CB        -0.4828  -20.9831  -53.7711 C.3       20 UNK        -0.1800 
    112 C         -0.7371  -21.9310  -56.1103 C.2       20 UNK         0.5000 
    113 O         -0.2852  -21.0496  -56.8417 O.2       20 UNK        -0.5000 
    114 N         -1.7480  -22.7458  -56.4576 N.am      21 UNK        -0.5000 
    115 CA        -2.4668  -22.7920  -57.7377 C.3       21 UNK         0.1400 
    116 CB        -1.5312  -23.2774  -58.8646 C.3       21 UNK        -0.1800 
    117 C         -3.2113  -21.4857  -58.0942 C.2       21 UNK         0.5000 
    118 O         -3.3685  -21.1677  -59.2750 O.2       21 UNK        -0.5000 
    119 N         -3.6564  -20.7518  -57.0675 N.am      22 UNK        -0.5000 
    120 CA        -4.4085  -19.4936  -57.1887 C.3       22 UNK         0.1400 
    121 C         -5.8353  -19.7007  -57.7693 C.2       22 UNK         0.5000 
    122 N         -6.3334  -18.7580  -58.5578 N.am      22 UNK        -0.7600 
    123 O         -6.5108  -20.6855  -57.4777 O.2       22 UNK        -0.5000 
    124 C124       -4.4809  -18.7397  -55.8372 C.3       23 UNK        -0.0398 
    125 S125       -2.8282  -18.3798  -55.1588 S.3       23 UNK        -0.2404 
    126 C126       -3.2623  -17.6231  -53.5654 C.3       23 UNK        -0.0205 
    127 H127       -0.9718   -9.8656  -46.1731 H         1 UNK         0.0600 
    128 H128        0.2781  -10.8670  -46.8909 H         1 UNK         0.0600 
    129 H129       -0.7675  -11.5234  -45.6184 H         1 UNK         0.0600 
    130 H130       -2.1578  -12.6691  -49.0199 H         1 UNK         0.3000 
    131 H131        0.5952  -12.6241  -48.3110 H         1 UNK         0.0600 
    132 H132        0.7025  -14.8195  -49.4249 H         1 UNK         0.0800 
    133 H133       -1.0411  -14.9332  -49.4724 H         1 UNK         0.0800 
    134 H134        1.6191  -14.7529  -51.8557 H         1 UNK         0.0800 
    135 H135        0.5947  -14.2798  -53.1872 H         1 UNK         0.0800 
    136 H136       -1.6938  -15.3906  -53.4687 H         1 UNK         0.1150 
    137 H137       -2.0665  -19.3282  -51.8202 H         1 UNK         0.1150 
    138 H138        1.2465  -16.8540  -50.7101 H         1 UNK         0.1150 
    139 H139       -0.4685  -20.2007  -50.3135 H         1 UNK         0.0800 
    140 H140        1.1508  -19.6213  -50.6094 H         1 UNK         0.0800 
    141 H141       -1.9349  -18.0197  -48.9490 H         1 UNK         0.0800 
    142 H142       -1.4330  -17.6572  -47.3217 H         1 UNK         0.0800 
    143 H143       -2.0726  -20.4758  -48.3073 H         1 UNK         0.0600 
    144 H144       -0.8824  -19.6408  -45.8757 H         1 UNK         0.3000 
    145 H145       -2.0976  -22.2412  -43.7809 H         1 UNK         0.0600 
    146 H146        0.6627  -22.1889  -45.1181 H         1 UNK         0.0600 
    147 H147        0.2547  -23.0110  -43.6110 H         1 UNK         0.0600 
    148 H148       -0.4433  -23.5575  -45.1272 H         1 UNK         0.0600 
    149 H149        0.0888  -20.5157  -43.3698 H         1 UNK         0.3000 
    150 H150       -1.4544  -17.4289  -42.9143 H         1 UNK         0.0600 
    151 H151       -2.1657  -18.5449  -40.7581 H         1 UNK         0.0600 
    152 H152       -0.8195  -17.4424  -40.5707 H         1 UNK         0.0600 
    153 H153       -0.5353  -19.1855  -40.5874 H         1 UNK         0.0600 
    154 H154        1.0982  -18.0485  -42.0959 H         1 UNK         0.3000 
    155 H155        2.9707  -18.7747  -44.6930 H         1 UNK         0.0600 
    156 H156        2.4405  -16.7810  -46.0696 H         1 UNK         0.0600 
    157 H157        3.9273  -16.5246  -45.1701 H         1 UNK         0.0600 
    158 H158        2.4331  -15.7600  -44.6375 H         1 UNK         0.0600 
    159 H159        3.1273  -16.7660  -42.5191 H         1 UNK         0.3000 
    160 H160        3.6252  -18.2830  -40.0869 H         1 UNK         0.0600 
    161 H161        5.9912  -18.8222  -39.4461 H         1 UNK         0.0600 
    162 H162        6.3476  -19.2290  -41.1245 H         1 UNK         0.0600 
    163 H163        5.1806  -20.1761  -40.2148 H         1 UNK         0.0600 
    164 H164        4.3512  -16.2176  -40.2248 H         1 UNK         0.3000 
    165 H165        6.9486  -14.4979  -41.3527 H         1 UNK         0.0600 
    166 H166        4.6261  -14.4112  -43.3521 H         1 UNK         0.0600 
    167 H167        5.6746  -13.0426  -42.9782 H         1 UNK         0.0600 
    168 H168        6.3388  -14.4800  -43.7376 H         1 UNK         0.0600 
    169 H169        4.0416  -14.0250  -40.9452 H         1 UNK         0.3000 
    170 H170        4.3613  -13.6257  -37.4740 H         1 UNK         0.0600 
    171 H171        3.9638  -11.3278  -39.4679 H         1 UNK         0.0600 
    172 H172        3.4148  -11.3515  -37.7912 H         1 UNK         0.0600 
    173 H173        5.1329  -11.3461  -38.1531 H         1 UNK         0.0600 
    174 H174        2.2086  -13.0574  -39.2565 H         1 UNK         0.3000 
    175 H175        1.0917  -16.3579  -39.8268 H         1 UNK         0.0600 
    176 H176       -0.1232  -14.2605  -37.9476 H         1 UNK         0.0600 
    177 H177       -1.0000  -15.5656  -38.7468 H         1 UNK         0.0600 
    178 H178        0.2087  -15.9370  -37.5282 H         1 UNK         0.0600 
    179 H179       -0.1276  -13.8690  -40.4156 H         1 UNK         0.3000 
    180 H180        0.0962  -12.7081  -42.2594 H         1 UNK         0.0600 
    181 H181        2.6925  -13.0674  -43.8459 H         1 UNK         0.0600 
    182 H182        2.5116  -12.0112  -42.4489 H         1 UNK         0.0600 
    183 H183        1.5958  -11.6925  -43.9146 H         1 UNK         0.0600 
    184 H184        0.7279  -14.1114  -44.7277 H         1 UNK         0.3000 
    185 H185       -0.8576  -16.1227  -45.3197 H         1 UNK         0.0600 
    186 H186       -3.2243  -16.2806  -46.0316 H         1 UNK         0.0600 
    187 H187       -3.0920  -16.4483  -44.2916 H         1 UNK         0.0600 
    188 H188       -3.6514  -14.9305  -44.9813 H         1 UNK         0.0600 
    189 H189       -2.1971  -14.0230  -46.7475 H         1 UNK         0.3000 
    190 H190       -3.5922  -19.1606  -45.4227 H         1 UNK         0.3000 
    191 H191       -6.0273  -18.2674  -46.7108 H         1 UNK         0.0600 
    192 H192       -5.4611  -18.9900  -43.7878 H         1 UNK         0.0600 
    193 H193       -5.3054  -17.3829  -44.4991 H         1 UNK         0.0600 
    194 H194       -6.8808  -18.1444  -44.3846 H         1 UNK         0.0600 
    195 H195       -4.7810  -21.4136  -45.8147 H         1 UNK         0.3000 
    196 H196       -7.4055  -22.7275  -45.6575 H         1 UNK         0.0600 
    197 H197       -5.5237  -23.4496  -44.1815 H         1 UNK         0.0600 
    198 H198       -4.5761  -23.8993  -45.5977 H         1 UNK         0.0600 
    199 H199       -6.0710  -24.7443  -45.2353 H         1 UNK         0.0600 
    200 H200       -7.8017  -21.6552  -47.8295 H         1 UNK         0.3000 
    201 H201       -8.2923  -21.7801  -50.0022 H         1 UNK         0.0600 
    202 H202       -8.8615  -24.0223  -50.9006 H         1 UNK         0.0600 
    203 H203       -9.4169  -23.8708  -49.2416 H         1 UNK         0.0600 
    204 H204       -7.9663  -24.8043  -49.6048 H         1 UNK         0.0600 
    205 H205       -5.8656  -20.8267  -49.8535 H         1 UNK         0.3000 
    206 H206       -3.9861  -20.3765  -50.9271 H         1 UNK         0.0600 
    207 H207       -5.0217  -22.1020  -53.2366 H         1 UNK         0.0600 
    208 H208       -3.7968  -20.8497  -53.3280 H         1 UNK         0.0600 
    209 H209       -5.4562  -20.4198  -52.9571 H         1 UNK         0.0600 
    210 H210       -3.8879  -22.3389  -49.0363 H         1 UNK         0.3000 
    211 H211       -2.6470  -23.8781  -48.0473 H         1 UNK         0.0600 
    212 H212       -0.6884  -22.5073  -48.7465 H         1 UNK         0.0600 
    213 H213       -0.2867  -24.2158  -48.7297 H         1 UNK         0.0600 
    214 H214       -0.5754  -23.4033  -50.2609 H         1 UNK         0.0600 
    215 H215       -4.6822  -24.9392  -49.1133 H         1 UNK         0.3000 
    216 H216       -5.7385  -26.6548  -50.0211 H         1 UNK         0.0600 
    217 H217       -4.7415  -28.9060  -49.7829 H         1 UNK         0.0600 
    218 H218       -3.1351  -28.2180  -49.5884 H         1 UNK         0.0600 
    219 H219       -4.3732  -27.9379  -48.3647 H         1 UNK         0.0600 
    220 H220       -4.9724  -24.8944  -51.8379 H         1 UNK         0.3000 
    221 H221       -4.7085  -24.3647  -53.9231 H         1 UNK         0.0600 
    222 H222       -5.1996  -27.2996  -54.6374 H         1 UNK         0.0600 
    223 H223       -5.4152  -25.9129  -55.6945 H         1 UNK         0.0600 
    224 H224       -6.4592  -26.1123  -54.2984 H         1 UNK         0.0600 
    225 H225       -2.2303  -25.7042  -52.4196 H         1 UNK         0.3000 
    226 H226       -0.5198  -26.6550  -54.4834 H         1 UNK         0.0600 
    227 H227       -0.1783  -27.1378  -52.0569 H         1 UNK         0.0600 
    228 H228        1.2616  -26.4445  -52.7868 H         1 UNK         0.0600 
    229 H229        0.2306  -25.4434  -51.7749 H         1 UNK         0.0600 
    230 H230       -1.2387  -23.3638  -53.3883 H         1 UNK         0.3000 
    231 H231        0.9717  -22.1259  -54.8374 H         1 UNK         0.0600 
    232 H232       -0.1577  -20.0237  -54.1758 H         1 UNK         0.0600 
    233 H233       -0.0117  -21.1024  -52.7957 H         1 UNK         0.0600 
    234 H234       -1.5586  -20.9258  -53.6194 H         1 UNK         0.0600 
    235 H235       -2.0121  -23.4698  -55.8008 H         1 UNK         0.3000 
    236 H236       -3.2434  -23.5481  -57.6145 H         1 UNK         0.0600 
    237 H237       -1.0388  -24.2109  -58.5915 H         1 UNK         0.0600 
    238 H238       -2.0872  -23.4634  -59.7842 H         1 UNK         0.0600 
    239 H239       -0.7576  -22.5437  -59.0925 H         1 UNK         0.0600 
    240 H240       -3.4791  -21.0778  -56.1303 H         1 UNK         0.3000 
    241 H241       -3.8574  -18.8629  -57.8895 H         1 UNK         0.0600 
    242 H242       -7.2638  -18.8724  -58.9297 H         1 UNK         0.3800 
    243 H243       -5.8008  -17.9383  -58.8067 H         1 UNK         0.3800 
    244 H244       -5.0470  -19.3194  -55.1072 H         1 UNK         0.0800 
    245 H245       -5.0094  -17.7921  -55.9567 H         1 UNK         0.0800 
    246 H246       -3.7859  -16.6817  -53.7389 H         1 UNK         0.0800 
    247 H247       -3.9538  -18.2683  -53.0224 H         1 UNK         0.0800 
@<TRIPOS>BOND
     1    1    2 1    
     2    1  127 1    
     3    1  128 1    
     4    1  129 1    
     5    2    3 2    
     6    2    4 am   BACKBONE|DICT|INTERRES
     7    4    5 1    
     8    4  130 1    
     9    5    6 1    
    10    5   65 1    
    11    5  131 1    
    12    6    7 1    
    13    6  132 1    
    14    6  133 1    
    15    7    8 1    
    16    8    9 1    
    17    8  134 1    
    18    8  135 1    
    19    9   10 ar   
    20    9   14 ar   
    21   10   11 ar   
    22   10  136 1    
    23   11   12 ar   
    24   11  126 1    
    25   12   13 ar   
    26   12  137 1    
    27   13   14 ar   
    28   13   15 1    
    29   14  138 1    
    30   15   16 1    
    31   15  139 1    
    32   15  140 1    
    33   16   17 1    
    34   17   18 1    
    35   17  141 1    
    36   17  142 1    
    37   18   19 1    
    38   18   67 1    
    39   18  143 1    
    40   19   20 am   BACKBONE|DICT|INTERRES
    41   19  144 1    
    42   20   21 2    
    43   20   22 1    
    44   22   23 1    
    45   22   24 1    
    46   22  145 1    
    47   23  146 1    
    48   23  147 1    
    49   23  148 1    
    50   24   25 am   BACKBONE|DICT|INTERRES
    51   24  149 1    
    52   25   26 2    
    53   25   27 1    
    54   27   28 1    
    55   27   29 1    
    56   27  150 1    
    57   28  151 1    
    58   28  152 1    
    59   28  153 1    
    60   29   30 am   BACKBONE|DICT|INTERRES
    61   29  154 1    
    62   30   31 2    
    63   30   32 1    
    64   32   33 1    
    65   32   34 1    
    66   32  155 1    
    67   33  156 1    
    68   33  157 1    
    69   33  158 1    
    70   34   35 am   BACKBONE|DICT|INTERRES
    71   34  159 1    
    72   35   36 2    
    73   35   37 1    
    74   37   38 1    
    75   37   39 1    
    76   37  160 1    
    77   38  161 1    
    78   38  162 1    
    79   38  163 1    
    80   39   40 am   BACKBONE|DICT|INTERRES
    81   39  164 1    
    82   40   41 2    
    83   40   42 1    
    84   42   43 1    
    85   42   44 1    
    86   42  165 1    
    87   43  166 1    
    88   43  167 1    
    89   43  168 1    
    90   44   45 am   BACKBONE|DICT|INTERRES
    91   44  169 1    
    92   45   46 2    
    93   45   47 1    
    94   47   48 1    
    95   47   49 1    
    96   47  170 1    
    97   48  171 1    
    98   48  172 1    
    99   48  173 1    
   100   49   50 am   BACKBONE|DICT|INTERRES
   101   49  174 1    
   102   50   51 2    
   103   50   52 1    
   104   52   53 1    
   105   52   54 1    
   106   52  175 1    
   107   53  176 1    
   108   53  177 1    
   109   53  178 1    
   110   54   55 am   BACKBONE|DICT|INTERRES
   111   54  179 1    
   112   55   56 2    
   113   55   57 1    
   114   57   58 1    
   115   57   59 1    
   116   57  180 1    
   117   58  181 1    
   118   58  182 1    
   119   58  183 1    
   120   59   60 am   BACKBONE|DICT|INTERRES
   121   59  184 1    
   122   60   61 2    
   123   60   62 1    
   124   62   63 1    
   125   62   64 1    
   126   62  185 1    
   127   63  186 1    
   128   63  187 1    
   129   63  188 1    
   130   64   65 am   BACKBONE|DICT|INTERRES
   131   64  189 1    
   132   65   66 2    
   133   67   68 2    
   134   67   69 am   BACKBONE|DICT|INTERRES
   135   69   70 1    
   136   69  190 1    
   137   70   71 1    
   138   70   72 1    
   139   70  191 1    
   140   71  192 1    
   141   71  193 1    
   142   71  194 1    
   143   72   73 2    
   144   72   74 am   BACKBONE|DICT|INTERRES
   145   74   75 1    
   146   74  195 1    
   147   75   76 1    
   148   75   77 1    
   149   75  196 1    
   150   76  197 1    
   151   76  198 1    
   152   76  199 1    
   153   77   78 2    
   154   77   79 am   BACKBONE|DICT|INTERRES
   155   79   80 1    
   156   79  200 1    
   157   80   81 1    
   158   80   82 1    
   159   80  201 1    
   160   81  202 1    
   161   81  203 1    
   162   81  204 1    
   163   82   83 2    
   164   82   84 am   BACKBONE|DICT|INTERRES
   165   84   85 1    
   166   84  205 1    
   167   85   86 1    
   168   85   87 1    
   169   85  206 1    
   170   86  207 1    
   171   86  208 1    
   172   86  209 1    
   173   87   88 2    
   174   87   89 am   BACKBONE|DICT|INTERRES
   175   89   90 1    
   176   89  210 1    
   177   90   91 1    
   178   90   92 1    
   179   90  211 1    
   180   91  212 1    
   181   91  213 1    
   182   91  214 1    
   183   92   93 2    
   184   92   94 am   BACKBONE|DICT|INTERRES
   185   94   95 1    
   186   94  215 1    
   187   95   96 1    
   188   95   97 1    
   189   95  216 1    
   190   96  217 1    
   191   96  218 1    
   192   96  219 1    
   193   97   98 2    
   194   97   99 am   BACKBONE|DICT|INTERRES
   195   99  100 1    
   196   99  220 1    
   197  100  101 1    
   198  100  102 1    
   199  100  221 1    
   200  101  222 1    
   201  101  223 1    
   202  101  224 1    
   203  102  103 2    
   204  102  104 am   BACKBONE|DICT|INTERRES
   205  104  105 1    
   206  104  225 1    
   207  105  106 1    
   208  105  107 1    
   209  105  226 1    
   210  106  227 1    
   211  106  228 1    
   212  106  229 1    
   213  107  108 2    
   214  107  109 am   BACKBONE|DICT|INTERRES
   215  109  110 1    
   216  109  230 1    
   217  110  111 1    
   218  110  112 1    
   219  110  231 1    
   220  111  232 1    
   221  111  233 1    
   222  111  234 1    
   223  112  113 2    
   224  112  114 am   BACKBONE|DICT|INTERRES
   225  114  115 1    
   226  114  235 1    
   227  115  116 1    
   228  115  117 1    
   229  115  236 1    
   230  116  237 1    
   231  116  238 1    
   232  116  239 1    
   233  117  118 2    
   234  117  119 am   BACKBONE|DICT|INTERRES
   235  119  120 1    
   236  119  240 1    
   237  120  121 1    
   238  120  124 1    
   239  120  241 1    
   240  121  122 am   BACKBONE|DICT|INTERRES
   241  121  123 2    
   242  122  242 1    
   243  122  243 1    
   244  124  125 1    
   245  124  244 1    
   246  124  245 1    
   247  125  126 1    
   248  126  246 1    
   249  126  247 1    
@<TRIPOS>SUBSTRUCTURE
     1 UNK         1 GROUP             0       ****    0 ROOT    
