@<TRIPOS>MOLECULE
3R540
247   249    1
SMALL
USER_CHARGES


@<TRIPOS>ATOM
      1 CA          1.5192   -9.8435  -52.7725 C.3       0 UNK        -0.1800 
      2 C           2.2203  -10.5551  -51.6237 C.2       0 UNK         0.5000 
      3 O           3.3052  -10.1386  -51.2162 O.2       0 UNK        -0.5000 
      4 N           1.6107  -11.6293  -51.1087 N.am      1 UNK        -0.5000 
      5 CA          2.1022  -12.4163  -49.9740 C.3       1 UNK         0.1400 
      6 C6          1.3131  -13.7395  -49.8087 C.3       23 UNK        -0.0398 
      7 S7          1.6349  -14.8938  -51.1856 S.3       23 UNK        -0.2404 
      8 C8          2.3318  -16.3375  -50.3060 C.3       23 UNK        -0.0205 
      9 C9          1.3109  -17.3864  -49.8571 C.ar      23 UNK        -0.0193 
     10 C10        -0.0387  -17.0831  -49.6219 C.ar      23 UNK        -0.1150 
     11 C11        -0.9422  -18.0855  -49.2553 C.ar      23 UNK        -0.0193 
     12 C12        -0.4872  -19.3940  -49.0966 C.ar      23 UNK        -0.1150 
     13 C13         0.8543  -19.7128  -49.3112 C.ar      23 UNK        -0.0193 
     14 C14         1.7465  -18.7055  -49.6862 C.ar      23 UNK        -0.1150 
     15 C15         1.3218  -21.1545  -49.1844 C.3       23 UNK        -0.0205 
     16 S16         2.1314  -21.5140  -47.5911 S.3       23 UNK        -0.2404 
     17 C17         0.8362  -21.1332  -46.3615 C.3       23 UNK        -0.0398 
     18 CA         -0.0325  -22.3484  -45.9570 C.3       11 UNK         0.1400 
     19 N          -0.6037  -22.1701  -44.6196 N.am      11 UNK        -0.5000 
     20 C          -1.3381  -23.0674  -43.9471 C.2       10 UNK         0.5000 
     21 O          -1.6707  -24.1626  -44.4002 O.2       10 UNK        -0.5000 
     22 CA         -1.8038  -22.6513  -42.5441 C.3       10 UNK         0.1400 
     23 CB         -0.6560  -22.7724  -41.5296 C.3       10 UNK        -0.1800 
     24 N          -2.3050  -21.2785  -42.5546 N.am      10 UNK        -0.5000 
     25 C          -3.5684  -20.9408  -42.8454 C.2       9 UNK         0.5000 
     26 O          -4.4655  -21.7590  -43.0504 O.2       9 UNK        -0.5000 
     27 CA         -3.8846  -19.4344  -42.9405 C.3       9 UNK         0.1400 
     28 CB         -4.3143  -18.8870  -41.5711 C.3       9 UNK        -0.1800 
     29 N          -2.7736  -18.6277  -43.4519 N.am      9 UNK        -0.5000 
     30 C          -2.2543  -18.7435  -44.6814 C.2       8 UNK         0.5000 
     31 O          -2.6431  -19.5570  -45.5159 O.2       8 UNK        -0.5000 
     32 CA         -1.0652  -17.8330  -45.0269 C.3       8 UNK         0.1400 
     33 CB         -1.5610  -16.4647  -45.5128 C.3       8 UNK        -0.1800 
     34 N          -0.0883  -17.6450  -43.9504 N.am      8 UNK        -0.5000 
     35 C           0.5047  -18.6090  -43.2300 C.2       7 UNK         0.5000 
     36 O           0.1786  -19.7973  -43.2613 O.2       7 UNK        -0.5000 
     37 CA          1.7006  -18.1488  -42.3761 C.3       7 UNK         0.1400 
     38 CB          2.4012  -19.3035  -41.6306 C.3       7 UNK        -0.1800 
     39 N           2.6484  -17.3844  -43.1931 N.am      7 UNK        -0.5000 
     40 C           3.3215  -17.8075  -44.2759 C.2       6 UNK         0.5000 
     41 O           3.3422  -18.9736  -44.6687 O.2       6 UNK        -0.5000 
     42 CA          4.0832  -16.7361  -45.0793 C.3       6 UNK         0.1400 
     43 CB          3.2494  -16.2985  -46.2960 C.3       6 UNK        -0.1800 
     44 N           4.4180  -15.5514  -44.2889 N.am      6 UNK        -0.5000 
     45 C           5.3305  -15.5076  -43.3086 C.2       5 UNK         0.5000 
     46 O           6.0379  -16.4618  -42.9842 O.2       5 UNK        -0.5000 
     47 CA          5.4489  -14.1765  -42.5484 C.3       5 UNK         0.1400 
     48 CB          6.3488  -13.1912  -43.3102 C.3       5 UNK        -0.1800 
     49 N           4.1352  -13.5685  -42.3317 N.am      5 UNK        -0.5000 
     50 C           3.3070  -13.8921  -41.3294 C.2       4 UNK         0.5000 
     51 O           3.5787  -14.7199  -40.4595 O.2       4 UNK        -0.5000 
     52 CA          1.9417  -13.1790  -41.2908 C.3       4 UNK         0.1400 
     53 CB          2.0341  -11.8868  -40.4651 C.3       4 UNK        -0.1800 
     54 N           1.4192  -12.8606  -42.6203 N.am      4 UNK        -0.5000 
     55 C           0.9330  -13.7665  -43.4781 C.2       3 UNK         0.5000 
     56 O           0.8626  -14.9731  -43.2400 O.2       3 UNK        -0.5000 
     57 CA          0.4736  -13.2440  -44.8511 C.3       3 UNK         0.1400 
     58 CB         -0.9891  -12.7802  -44.7881 C.3       3 UNK        -0.1800 
     59 N           1.2896  -12.1730  -45.4304 N.am      3 UNK        -0.5000 
     60 C           2.6154  -12.2055  -45.6132 C.2       2 UNK         0.5000 
     61 O           3.3504  -13.0864  -45.1664 O.2       2 UNK        -0.5000 
     62 CA          3.2000  -11.1205  -46.5309 C.3       2 UNK         0.1400 
     63 CB          4.6615  -10.7905  -46.1815 C.3       2 UNK        -0.1800 
     64 N           3.1369  -11.6122  -47.9047 N.am      2 UNK        -0.5000 
     65 C           2.0383  -11.5985  -48.6693 C.2       1 UNK         0.5000 
     66 O           0.9931  -11.0210  -48.3589 O.2       1 UNK        -0.5000 
     67 C          -1.1039  -22.6672  -47.0206 C.2       11 UNK         0.5000 
     68 O          -0.8909  -23.5559  -47.8453 O.2       11 UNK        -0.5000 
     69 N          -2.2545  -21.9803  -46.9563 N.am      12 UNK        -0.5000 
     70 CA         -3.3992  -22.1807  -47.8465 C.3       12 UNK         0.1400 
     71 CB         -4.4775  -21.1325  -47.5418 C.3       12 UNK        -0.1800 
     72 C          -3.9887  -23.6007  -47.7915 C.2       12 UNK         0.5000 
     73 O          -4.4550  -24.0944  -48.8181 O.2       12 UNK        -0.5000 
     74 N          -3.9298  -24.2383  -46.6161 N.am      13 UNK        -0.5000 
     75 CA         -4.3239  -25.6300  -46.4238 C.3       13 UNK         0.1400 
     76 CB         -4.7694  -25.8399  -44.9680 C.3       13 UNK        -0.1800 
     77 C          -3.1793  -26.5876  -46.7950 C.2       13 UNK         0.5000 
     78 O          -3.4104  -27.5520  -47.5239 O.2       13 UNK        -0.5000 
     79 N          -1.9691  -26.3027  -46.2928 N.am      14 UNK        -0.5000 
     80 CA         -0.7821  -27.1505  -46.4234 C.3       14 UNK         0.1400 
     81 CB          0.3344  -26.6042  -45.5207 C.3       14 UNK        -0.1800 
     82 C          -0.2798  -27.3080  -47.8695 C.2       14 UNK         0.5000 
     83 O           0.0360  -28.4248  -48.2819 O.2       14 UNK        -0.5000 
     84 N          -0.2240  -26.1965  -48.6136 N.am      15 UNK        -0.5000 
     85 CA          0.2034  -26.1581  -50.0147 C.3       15 UNK         0.1400 
     86 CB          0.9675  -24.8466  -50.2603 C.3       15 UNK        -0.1800 
     87 C          -0.9820  -26.2733  -50.9922 C.2       15 UNK         0.5000 
     88 O          -0.7577  -26.3121  -52.2022 O.2       15 UNK        -0.5000 
     89 N          -2.2141  -26.2841  -50.4592 N.am      16 UNK        -0.5000 
     90 CA         -3.5003  -26.2606  -51.1671 C.3       16 UNK         0.1400 
     91 CB         -3.6869  -27.5203  -52.0375 C.3       16 UNK        -0.1800 
     92 C          -3.7485  -24.9532  -51.9523 C.2       16 UNK         0.5000 
     93 O          -4.6031  -24.9216  -52.8392 O.2       16 UNK        -0.5000 
     94 N          -3.0351  -23.8761  -51.5879 N.am      17 UNK        -0.5000 
     95 CA         -3.1297  -22.5468  -52.1972 C.3       17 UNK         0.1400 
     96 CB         -1.9348  -21.6915  -51.7503 C.3       17 UNK        -0.1800 
     97 C          -4.4797  -21.8349  -51.9594 C.2       17 UNK         0.5000 
     98 O          -4.7618  -20.8424  -52.6317 O.2       17 UNK        -0.5000 
     99 N          -5.3294  -22.3858  -51.0783 N.am      18 UNK        -0.5000 
    100 CA        -6.7472  -22.0407  -50.9524 C.3       18 UNK         0.1400 
    101 CB        -7.3824  -22.8779  -49.8305 C.3       18 UNK        -0.1800 
    102 C         -7.5326  -22.2513  -52.2632 C.2       18 UNK         0.5000 
    103 O         -8.4098  -21.4465  -52.5753 O.2       18 UNK        -0.5000 
    104 N         -7.1775  -23.2960  -53.0289 N.am      19 UNK        -0.5000 
    105 CA        -7.7632  -23.5972  -54.3385 C.3       19 UNK         0.1400 
    106 CB        -7.4356  -25.0483  -54.7214 C.3       19 UNK        -0.1800 
    107 C         -7.2901  -22.6270  -55.4383 C.2       19 UNK         0.5000 
    108 O         -8.0195  -22.4021  -56.4044 O.2       19 UNK        -0.5000 
    109 N         -6.0931  -22.0512  -55.2596 N.am      20 UNK        -0.5000 
    110 CA        -5.5307  -21.0001  -56.1102 C.3       20 UNK         0.1400 
    111 CB        -3.9965  -21.0524  -56.0182 C.3       20 UNK        -0.1800 
    112 C         -6.0540  -19.5953  -55.7420 C.2       20 UNK         0.5000 
    113 O         -5.8074  -18.6517  -56.4939 O.2       20 UNK        -0.5000 
    114 N         -6.7598  -19.4862  -54.6050 N.am      21 UNK        -0.5000 
    115 CA        -7.3371  -18.2785  -54.0122 C.3       21 UNK         0.1400 
    116 CB        -8.4656  -17.7158  -54.9017 C.3       21 UNK        -0.1800 
    117 C         -6.2600  -17.2360  -53.6527 C.2       21 UNK         0.5000 
    118 O         -6.3396  -16.0841  -54.0844 O.2       21 UNK        -0.5000 
    119 N         -5.2598  -17.6717  -52.8747 N.am      22 UNK        -0.5000 
    120 CA        -4.1270  -16.8469  -52.4168 C.3       22 UNK         0.1400 
    121 C         -4.4740  -15.6475  -51.4812 C.2       22 UNK         0.5000 
    122 N         -5.6615  -15.5817  -50.8912 N.am      22 UNK        -0.7600 
    123 O         -3.6489  -14.7576  -51.2941 O.2       22 UNK        -0.5000 
    124 C124       -2.9949  -17.7215  -51.8234 C.3       23 UNK        -0.0398 
    125 S125       -3.4655  -18.6010  -50.2887 S.3       23 UNK        -0.2404 
    126 C126       -2.4169  -17.7723  -49.0494 C.3       23 UNK        -0.0205 
    127 H127        1.3066   -8.8098  -52.4995 H         1 UNK         0.0600 
    128 H128        0.5774  -10.3266  -53.0344 H         1 UNK         0.0600 
    129 H129        2.1565   -9.8398  -53.6568 H         1 UNK         0.0600 
    130 H130        0.7179  -11.9170  -51.4824 H         1 UNK         0.3000 
    131 H131        3.1480  -12.6639  -50.1701 H         1 UNK         0.0600 
    132 H132        0.2400  -13.5451  -49.7608 H         1 UNK         0.0800 
    133 H133        1.5679  -14.2285  -48.8664 H         1 UNK         0.0800 
    134 H134        3.0403  -16.8098  -50.9884 H         1 UNK         0.0800 
    135 H135        2.9184  -16.0117  -49.4465 H         1 UNK         0.0800 
    136 H136       -0.4013  -16.0735  -49.7437 H         1 UNK         0.1150 
    137 H137       -1.1891  -20.1669  -48.8210 H         1 UNK         0.1150 
    138 H138        2.7836  -18.9560  -49.8612 H         1 UNK         0.1150 
    139 H139        0.4827  -21.8327  -49.3312 H         1 UNK         0.0800 
    140 H140        2.0245  -21.3774  -49.9884 H         1 UNK         0.0800 
    141 H141        1.3761  -20.7699  -45.4863 H         1 UNK         0.0800 
    142 H142        0.2239  -20.2934  -46.6817 H         1 UNK         0.0800 
    143 H143        0.6208  -23.2197  -45.8879 H         1 UNK         0.0600 
    144 H144       -0.3720  -21.2978  -44.1494 H         1 UNK         0.3000 
    145 H145       -2.5990  -23.3332  -42.2347 H         1 UNK         0.0600 
    146 H146       -0.9930  -22.5202  -40.5242 H         1 UNK         0.0600 
    147 H147       -0.2714  -23.7925  -41.4976 H         1 UNK         0.0600 
    148 H148        0.1784  -22.1149  -41.7765 H         1 UNK         0.0600 
    149 H149       -1.6111  -20.5449  -42.4729 H         1 UNK         0.3000 
    150 H150       -4.7223  -19.3202  -43.6318 H         1 UNK         0.0600 
    151 H151       -5.1579  -19.4518  -41.1719 H         1 UNK         0.0600 
    152 H152       -4.6275  -17.8453  -41.6428 H         1 UNK         0.0600 
    153 H153       -3.5051  -18.9461  -40.8422 H         1 UNK         0.0600 
    154 H154       -2.3748  -17.9457  -42.8238 H         1 UNK         0.3000 
    155 H155       -0.5354  -18.3012  -45.8570 H         1 UNK         0.0600 
    156 H156       -0.7577  -15.9098  -45.9945 H         1 UNK         0.0600 
    157 H157       -1.9490  -15.8658  -44.6890 H         1 UNK         0.0600 
    158 H158       -2.3612  -16.5668  -46.2462 H         1 UNK         0.0600 
    159 H159        0.2458  -16.6950  -43.8108 H         1 UNK         0.3000 
    160 H160        1.3061  -17.4598  -41.6279 H         1 UNK         0.0600 
    161 H161        2.7749  -20.0662  -42.3142 H         1 UNK         0.0600 
    162 H162        1.7121  -19.7949  -40.9429 H         1 UNK         0.0600 
    163 H163        3.2433  -18.9381  -41.0429 H         1 UNK         0.0600 
    164 H164        2.6680  -16.3911  -43.0045 H         1 UNK         0.3000 
    165 H165        5.0118  -17.1845  -45.4383 H         1 UNK         0.0600 
    166 H166        2.3073  -15.8405  -45.9926 H         1 UNK         0.0600 
    167 H167        3.7906  -15.5760  -46.9072 H         1 UNK         0.0600 
    168 H168        3.0085  -17.1505  -46.9338 H         1 UNK         0.0600 
    169 H169        3.9290  -14.6919  -44.5305 H         1 UNK         0.3000 
    170 H170        5.9150  -14.3790  -41.5816 H         1 UNK         0.0600 
    171 H171        7.3478  -13.6059  -43.4505 H         1 UNK         0.0600 
    172 H172        5.9499  -12.9584  -44.2975 H         1 UNK         0.0600 
    173 H173        6.4590  -12.2545  -42.7638 H         1 UNK         0.0600 
    174 H174        3.8059  -12.9407  -43.0535 H         1 UNK         0.3000 
    175 H175        1.2339  -13.8478  -40.7961 H         1 UNK         0.0600 
    176 H176        2.7148  -11.1658  -40.9195 H         1 UNK         0.0600 
    177 H177        1.0580  -11.4117  -40.3657 H         1 UNK         0.0600 
    178 H178        2.3983  -12.0924  -39.4576 H         1 UNK         0.0600 
    179 H179        1.4441  -11.8923  -42.9045 H         1 UNK         0.3000 
    180 H180        0.5351  -14.0839  -45.5435 H         1 UNK         0.0600 
    181 H181       -1.0958  -11.8711  -44.1950 H         1 UNK         0.0600 
    182 H182       -1.6278  -13.5394  -44.3361 H         1 UNK         0.0600 
    183 H183       -1.3816  -12.5790  -45.7851 H         1 UNK         0.0600 
    184 H184        0.7760  -11.4270  -45.8799 H         1 UNK         0.3000 
    185 H185        2.6086  -10.2080  -46.4286 H         1 UNK         0.0600 
    186 H186        4.7522  -10.4721  -45.1422 H         1 UNK         0.0600 
    187 H187        5.3183  -11.6499  -46.3209 H         1 UNK         0.0600 
    188 H188        5.0391   -9.9796  -46.8044 H         1 UNK         0.0600 
    189 H189        3.9487  -12.1202  -48.2254 H         1 UNK         0.3000 
    190 H190       -2.3531  -21.2371  -46.2676 H         1 UNK         0.3000 
    191 H191       -3.0549  -22.0166  -48.8654 H         1 UNK         0.0600 
    192 H192       -5.3163  -21.2167  -48.2306 H         1 UNK         0.0600 
    193 H193       -4.0857  -20.1225  -47.6521 H         1 UNK         0.0600 
    194 H194       -4.8640  -21.2338  -46.5269 H         1 UNK         0.0600 
    195 H195       -3.4827  -23.7786  -45.8346 H         1 UNK         0.3000 
    196 H196       -5.1764  -25.8565  -47.0683 H         1 UNK         0.0600 
    197 H197       -5.0835  -26.8711  -44.8019 H         1 UNK         0.0600 
    198 H198       -5.6154  -25.1985  -44.7204 H         1 UNK         0.0600 
    199 H199       -3.9689  -25.6228  -44.2602 H         1 UNK         0.0600 
    200 H200       -1.8726  -25.4892  -45.6896 H         1 UNK         0.3000 
    201 H201       -1.0501  -28.1447  -46.0599 H         1 UNK         0.0600 
    202 H202        0.0161  -26.5649  -44.4787 H         1 UNK         0.0600 
    203 H203        0.6338  -25.5989  -45.8168 H         1 UNK         0.0600 
    204 H204        1.2208  -27.2381  -45.5667 H         1 UNK         0.0600 
    205 H205       -0.4996  -25.3043  -48.2055 H         1 UNK         0.3000 
    206 H206        0.8835  -26.9877  -50.2185 H         1 UNK         0.0600 
    207 H207        1.7619  -24.7030  -49.5276 H         1 UNK         0.0600 
    208 H208        1.4302  -24.8435  -51.2478 H         1 UNK         0.0600 
    209 H209        0.3039  -23.9838  -50.2111 H         1 UNK         0.0600 
    210 H210       -2.2776  -26.2717  -49.4506 H         1 UNK         0.3000 
    211 H211       -4.2656  -26.2909  -50.3906 H         1 UNK         0.0600 
    212 H212       -3.0156  -27.5256  -52.8964 H         1 UNK         0.0600 
    213 H213       -4.7056  -27.5808  -52.4224 H         1 UNK         0.0600 
    214 H214       -3.5049  -28.4276  -51.4615 H         1 UNK         0.0600 
    215 H215       -2.3829  -23.9824  -50.8257 H         1 UNK         0.3000 
    216 H216       -3.0444  -22.6833  -53.2771 H         1 UNK         0.0600 
    217 H217       -1.9419  -20.7220  -52.2482 H         1 UNK         0.0600 
    218 H218       -0.9894  -22.1730  -52.0010 H         1 UNK         0.0600 
    219 H219       -1.9384  -21.5055  -50.6794 H         1 UNK         0.0600 
    220 H220       -5.0084  -23.1734  -50.5249 H         1 UNK         0.3000 
    221 H221       -6.8139  -20.9845  -50.6835 H         1 UNK         0.0600 
    222 H222       -7.2957  -23.9469  -50.0299 H         1 UNK         0.0600 
    223 H223       -6.9166  -22.6841  -48.8662 H         1 UNK         0.0600 
    224 H224       -8.4437  -22.6488  -49.7248 H         1 UNK         0.0600 
    225 H225       -6.4136  -23.8937  -52.7308 H         1 UNK         0.3000 
    226 H226       -8.8485  -23.5048  -54.2587 H         1 UNK         0.0600 
    227 H227       -7.7793  -25.7464  -53.9580 H         1 UNK         0.0600 
    228 H228       -7.9235  -25.3233  -55.6573 H         1 UNK         0.0600 
    229 H229       -6.3639  -25.1982  -54.8557 H         1 UNK         0.0600 
    230 H230       -5.5721  -22.2784  -54.4253 H         1 UNK         0.3000 
    231 H231       -5.8130  -21.1937  -57.1472 H         1 UNK         0.0600 
    232 H232       -3.5418  -20.3442  -56.7118 H         1 UNK         0.0600 
    233 H233       -3.6179  -22.0426  -56.2723 H         1 UNK         0.0600 
    234 H234       -3.6397  -20.8012  -55.0195 H         1 UNK         0.0600 
    235 H235       -6.8751  -20.3267  -54.0561 H         1 UNK         0.3000 
    236 H236       -7.7903  -18.5885  -53.0694 H         1 UNK         0.0600 
    237 H237       -9.2211  -18.4750  -55.1044 H         1 UNK         0.0600 
    238 H238       -8.9679  -16.8813  -54.4111 H         1 UNK         0.0600 
    239 H239       -8.0898  -17.3530  -55.8587 H         1 UNK         0.0600 
    240 H240       -5.2382  -18.6458  -52.5952 H         1 UNK         0.3000 
    241 H241       -3.7174  -16.3870  -53.3182 H         1 UNK         0.0600 
    242 H242       -6.3421  -16.3103  -51.0297 H         1 UNK         0.3800 
    243 H243       -5.8764  -14.7995  -50.2936 H         1 UNK         0.3800 
    244 H244       -2.6941  -18.4693  -52.5575 H         1 UNK         0.0800 
    245 H245       -2.1048  -17.1154  -51.6503 H         1 UNK         0.0800 
    246 H246       -2.7150  -18.1135  -48.0578 H         1 UNK         0.0800 
    247 H247       -2.6003  -16.6970  -49.0765 H         1 UNK         0.0800 
@<TRIPOS>BOND
     1    1    2 1    
     2    1  127 1    
     3    1  128 1    
     4    1  129 1    
     5    2    3 2    
     6    2    4 am   BACKBONE|DICT|INTERRES
     7    4    5 1    
     8    4  130 1    
     9    5    6 1    
    10    5   65 1    
    11    5  131 1    
    12    6    7 1    
    13    6  132 1    
    14    6  133 1    
    15    7    8 1    
    16    8    9 1    
    17    8  134 1    
    18    8  135 1    
    19    9   10 ar   
    20    9   14 ar   
    21   10   11 ar   
    22   10  136 1    
    23   11   12 ar   
    24   11  126 1    
    25   12   13 ar   
    26   12  137 1    
    27   13   14 ar   
    28   13   15 1    
    29   14  138 1    
    30   15   16 1    
    31   15  139 1    
    32   15  140 1    
    33   16   17 1    
    34   17   18 1    
    35   17  141 1    
    36   17  142 1    
    37   18   19 1    
    38   18   67 1    
    39   18  143 1    
    40   19   20 am   BACKBONE|DICT|INTERRES
    41   19  144 1    
    42   20   21 2    
    43   20   22 1    
    44   22   23 1    
    45   22   24 1    
    46   22  145 1    
    47   23  146 1    
    48   23  147 1    
    49   23  148 1    
    50   24   25 am   BACKBONE|DICT|INTERRES
    51   24  149 1    
    52   25   26 2    
    53   25   27 1    
    54   27   28 1    
    55   27   29 1    
    56   27  150 1    
    57   28  151 1    
    58   28  152 1    
    59   28  153 1    
    60   29   30 am   BACKBONE|DICT|INTERRES
    61   29  154 1    
    62   30   31 2    
    63   30   32 1    
    64   32   33 1    
    65   32   34 1    
    66   32  155 1    
    67   33  156 1    
    68   33  157 1    
    69   33  158 1    
    70   34   35 am   BACKBONE|DICT|INTERRES
    71   34  159 1    
    72   35   36 2    
    73   35   37 1    
    74   37   38 1    
    75   37   39 1    
    76   37  160 1    
    77   38  161 1    
    78   38  162 1    
    79   38  163 1    
    80   39   40 am   BACKBONE|DICT|INTERRES
    81   39  164 1    
    82   40   41 2    
    83   40   42 1    
    84   42   43 1    
    85   42   44 1    
    86   42  165 1    
    87   43  166 1    
    88   43  167 1    
    89   43  168 1    
    90   44   45 am   BACKBONE|DICT|INTERRES
    91   44  169 1    
    92   45   46 2    
    93   45   47 1    
    94   47   48 1    
    95   47   49 1    
    96   47  170 1    
    97   48  171 1    
    98   48  172 1    
    99   48  173 1    
   100   49   50 am   BACKBONE|DICT|INTERRES
   101   49  174 1    
   102   50   51 2    
   103   50   52 1    
   104   52   53 1    
   105   52   54 1    
   106   52  175 1    
   107   53  176 1    
   108   53  177 1    
   109   53  178 1    
   110   54   55 am   BACKBONE|DICT|INTERRES
   111   54  179 1    
   112   55   56 2    
   113   55   57 1    
   114   57   58 1    
   115   57   59 1    
   116   57  180 1    
   117   58  181 1    
   118   58  182 1    
   119   58  183 1    
   120   59   60 am   BACKBONE|DICT|INTERRES
   121   59  184 1    
   122   60   61 2    
   123   60   62 1    
   124   62   63 1    
   125   62   64 1    
   126   62  185 1    
   127   63  186 1    
   128   63  187 1    
   129   63  188 1    
   130   64   65 am   BACKBONE|DICT|INTERRES
   131   64  189 1    
   132   65   66 2    
   133   67   68 2    
   134   67   69 am   BACKBONE|DICT|INTERRES
   135   69   70 1    
   136   69  190 1    
   137   70   71 1    
   138   70   72 1    
   139   70  191 1    
   140   71  192 1    
   141   71  193 1    
   142   71  194 1    
   143   72   73 2    
   144   72   74 am   BACKBONE|DICT|INTERRES
   145   74   75 1    
   146   74  195 1    
   147   75   76 1    
   148   75   77 1    
   149   75  196 1    
   150   76  197 1    
   151   76  198 1    
   152   76  199 1    
   153   77   78 2    
   154   77   79 am   BACKBONE|DICT|INTERRES
   155   79   80 1    
   156   79  200 1    
   157   80   81 1    
   158   80   82 1    
   159   80  201 1    
   160   81  202 1    
   161   81  203 1    
   162   81  204 1    
   163   82   83 2    
   164   82   84 am   BACKBONE|DICT|INTERRES
   165   84   85 1    
   166   84  205 1    
   167   85   86 1    
   168   85   87 1    
   169   85  206 1    
   170   86  207 1    
   171   86  208 1    
   172   86  209 1    
   173   87   88 2    
   174   87   89 am   BACKBONE|DICT|INTERRES
   175   89   90 1    
   176   89  210 1    
   177   90   91 1    
   178   90   92 1    
   179   90  211 1    
   180   91  212 1    
   181   91  213 1    
   182   91  214 1    
   183   92   93 2    
   184   92   94 am   BACKBONE|DICT|INTERRES
   185   94   95 1    
   186   94  215 1    
   187   95   96 1    
   188   95   97 1    
   189   95  216 1    
   190   96  217 1    
   191   96  218 1    
   192   96  219 1    
   193   97   98 2    
   194   97   99 am   BACKBONE|DICT|INTERRES
   195   99  100 1    
   196   99  220 1    
   197  100  101 1    
   198  100  102 1    
   199  100  221 1    
   200  101  222 1    
   201  101  223 1    
   202  101  224 1    
   203  102  103 2    
   204  102  104 am   BACKBONE|DICT|INTERRES
   205  104  105 1    
   206  104  225 1    
   207  105  106 1    
   208  105  107 1    
   209  105  226 1    
   210  106  227 1    
   211  106  228 1    
   212  106  229 1    
   213  107  108 2    
   214  107  109 am   BACKBONE|DICT|INTERRES
   215  109  110 1    
   216  109  230 1    
   217  110  111 1    
   218  110  112 1    
   219  110  231 1    
   220  111  232 1    
   221  111  233 1    
   222  111  234 1    
   223  112  113 2    
   224  112  114 am   BACKBONE|DICT|INTERRES
   225  114  115 1    
   226  114  235 1    
   227  115  116 1    
   228  115  117 1    
   229  115  236 1    
   230  116  237 1    
   231  116  238 1    
   232  116  239 1    
   233  117  118 2    
   234  117  119 am   BACKBONE|DICT|INTERRES
   235  119  120 1    
   236  119  240 1    
   237  120  121 1    
   238  120  124 1    
   239  120  241 1    
   240  121  122 am   BACKBONE|DICT|INTERRES
   241  121  123 2    
   242  122  242 1    
   243  122  243 1    
   244  124  125 1    
   245  124  244 1    
   246  124  245 1    
   247  125  126 1    
   248  126  246 1    
   249  126  247 1    
@<TRIPOS>SUBSTRUCTURE
     1 UNK         1 GROUP             0       ****    0 ROOT    
