@<TRIPOS>MOLECULE
3R540
247   249    1
SMALL
USER_CHARGES


@<TRIPOS>ATOM
      1 CA          0.1957  -12.4756  -48.3783 C.3       0 UNK        -0.1800 
      2 C           1.6815  -12.7955  -48.4606 C.2       0 UNK         0.5000 
      3 O           2.5140  -11.9187  -48.2248 O.2       0 UNK        -0.5000 
      4 N           2.0186  -14.0460  -48.7997 N.am      1 UNK        -0.5000 
      5 CA          3.3914  -14.5564  -48.8547 C.3       1 UNK         0.1400 
      6 C6          3.4614  -15.9476  -49.5271 C.3       23 UNK        -0.0398 
      7 S7          3.4781  -15.8291  -51.3491 S.3       23 UNK        -0.2404 
      8 C8          1.7159  -15.6172  -51.7787 C.3       23 UNK        -0.0205 
      9 C9          0.8037  -16.7194  -51.2521 C.ar      23 UNK        -0.0193 
     10 C10        -0.4409  -16.3883  -50.7067 C.ar      23 UNK        -0.1150 
     11 C11        -1.3062  -17.3884  -50.2550 C.ar      23 UNK        -0.0193 
     12 C12        -0.9064  -18.7255  -50.3184 C.ar      23 UNK        -0.1150 
     13 C13         0.3403  -19.0691  -50.8466 C.ar      23 UNK        -0.0193 
     14 C14         1.1800  -18.0646  -51.3313 C.ar      23 UNK        -0.1150 
     15 C15         0.7825  -20.5236  -50.8953 C.3       23 UNK        -0.0205 
     16 S16         2.0980  -20.8930  -49.6835 S.3       23 UNK        -0.2404 
     17 C17         1.2988  -20.5041  -48.0864 C.3       23 UNK        -0.0398 
     18 CA          0.6892  -21.7362  -47.3765 C.3       11 UNK         0.1400 
     19 N           0.4034  -21.4617  -45.9665 N.am      11 UNK        -0.5000 
     20 C           0.0076  -22.3766  -45.0705 C.2       10 UNK         0.5000 
     21 O          -0.0862  -23.5782  -45.3163 O.2       10 UNK        -0.5000 
     22 CA         -0.4082  -21.8576  -43.6826 C.3       10 UNK         0.1400 
     23 CB          0.8191  -21.6590  -42.7815 C.3       10 UNK        -0.1800 
     24 N          -1.1842  -20.6178  -43.7565 N.am      10 UNK        -0.5000 
     25 C          -2.3853  -20.5138  -44.3443 C.2       9 UNK         0.5000 
     26 O          -2.9880  -21.4684  -44.8328 O.2       9 UNK        -0.5000 
     27 CA         -3.0005  -19.1073  -44.4484 C.3       9 UNK         0.1400 
     28 CB         -3.6900  -18.7169  -43.1332 C.3       9 UNK        -0.1800 
     29 N          -2.0222  -18.0852  -44.8223 N.am      9 UNK        -0.5000 
     30 C          -1.3574  -18.0570  -45.9866 C.2       8 UNK         0.5000 
     31 O          -1.5334  -18.8761  -46.8884 O.2       8 UNK        -0.5000 
     32 CA         -0.2703  -16.9744  -46.1429 C.3       8 UNK         0.1400 
     33 CB         -0.8793  -15.6039  -46.4696 C.3       8 UNK        -0.1800 
     34 N           0.5641  -16.8549  -44.9484 N.am      8 UNK        -0.5000 
     35 C           1.3530  -17.8298  -44.4770 C.2       7 UNK         0.5000 
     36 O           1.5067  -18.9167  -45.0346 O.2       7 UNK        -0.5000 
     37 CA          2.0311  -17.5701  -43.1218 C.3       7 UNK         0.1400 
     38 CB          3.3105  -16.7400  -43.2927 C.3       7 UNK        -0.1800 
     39 N           1.1270  -16.9076  -42.1806 N.am      7 UNK        -0.5000 
     40 C           0.0734  -17.5069  -41.6068 C.2       6 UNK         0.5000 
     41 O          -0.2230  -18.6862  -41.7911 O.2       6 UNK        -0.5000 
     42 CA         -0.8209  -16.6370  -40.7047 C.3       6 UNK         0.1400 
     43 CB         -0.2434  -16.5607  -39.2836 C.3       6 UNK        -0.1800 
     44 N          -1.0041  -15.2829  -41.2260 N.am      6 UNK        -0.5000 
     45 C          -1.6430  -14.9845  -42.3665 C.2       5 UNK         0.5000 
     46 O          -2.1883  -15.8209  -43.0835 O.2       5 UNK        -0.5000 
     47 CA         -1.6218  -13.5090  -42.8053 C.3       5 UNK         0.1400 
     48 CB         -2.8233  -12.7529  -42.2196 C.3       5 UNK        -0.1800 
     49 N          -0.3830  -12.8240  -42.4281 N.am      5 UNK        -0.5000 
     50 C           0.8298  -13.1487  -42.8937 C.2       4 UNK         0.5000 
     51 O           1.0319  -14.0598  -43.7003 O.2       4 UNK        -0.5000 
     52 CA          2.0164  -12.3712  -42.3014 C.3       4 UNK         0.1400 
     53 CB          2.7740  -13.2408  -41.2862 C.3       4 UNK        -0.1800 
     54 N           2.9449  -11.9284  -43.3354 N.am      4 UNK        -0.5000 
     55 C           2.6899  -10.9906  -44.2531 C.2       3 UNK         0.5000 
     56 O           1.6285  -10.3678  -44.3098 O.2       3 UNK        -0.5000 
     57 CA          3.8021  -10.6717  -45.2710 C.3       3 UNK         0.1400 
     58 CB          4.7869   -9.6303  -44.7061 C.3       3 UNK        -0.1800 
     59 N           4.5120  -11.8380  -45.8132 N.am      3 UNK        -0.5000 
     60 C           5.3324  -12.7085  -45.2030 C.2       2 UNK         0.5000 
     61 O           5.5955  -12.6704  -44.0000 O.2       2 UNK        -0.5000 
     62 CA          5.9810  -13.7920  -46.0952 C.3       2 UNK         0.1400 
     63 CB          6.2905  -15.0965  -45.3325 C.3       2 UNK        -0.1800 
     64 N           5.2326  -14.0541  -47.3316 N.am      2 UNK        -0.5000 
     65 C           4.0049  -14.5830  -47.4408 C.2       1 UNK         0.5000 
     66 O           3.3564  -15.0469  -46.5019 O.2       1 UNK        -0.5000 
     67 C          -0.5590  -22.2681  -48.1119 C.2       11 UNK         0.5000 
     68 O          -0.4659  -23.2820  -48.8031 O.2       11 UNK        -0.5000 
     69 N          -1.7101  -21.6061  -47.9235 N.am      12 UNK        -0.5000 
     70 CA         -2.9933  -22.0219  -48.4921 C.3       12 UNK         0.1400 
     71 CB         -4.0519  -20.9374  -48.2482 C.3       12 UNK        -0.1800 
     72 C          -3.4641  -23.3935  -47.9728 C.2       12 UNK         0.5000 
     73 O          -3.9257  -24.2136  -48.7649 O.2       12 UNK        -0.5000 
     74 N          -3.2940  -23.6386  -46.6655 N.am      13 UNK        -0.5000 
     75 CA         -3.5623  -24.9210  -46.0133 C.3       13 UNK         0.1400 
     76 CB         -3.4233  -24.7712  -44.4913 C.3       13 UNK        -0.1800 
     77 C          -2.6639  -26.0547  -46.5404 C.2       13 UNK         0.5000 
     78 O          -3.1697  -27.1419  -46.8211 O.2       13 UNK        -0.5000 
     79 N          -1.3627  -25.7710  -46.7051 N.am      14 UNK        -0.5000 
     80 CA         -0.3779  -26.6797  -47.2976 C.3       14 UNK         0.1400 
     81 CB          1.0326  -26.0900  -47.1496 C.3       14 UNK        -0.1800 
     82 C          -0.6839  -27.0096  -48.7702 C.2       14 UNK         0.5000 
     83 O          -0.5224  -28.1592  -49.1812 O.2       14 UNK        -0.5000 
     84 N          -1.1926  -26.0229  -49.5199 N.am      15 UNK        -0.5000 
     85 CA         -1.7105  -26.1494  -50.8843 C.3       15 UNK         0.1400 
     86 CB         -1.6856  -24.7626  -51.5538 C.3       15 UNK        -0.1800 
     87 C          -3.1116  -26.8054  -50.9323 C.2       15 UNK         0.5000 
     88 O          -4.0018  -26.3121  -51.6254 O.2       15 UNK        -0.5000 
     89 N          -3.2872  -27.9054  -50.1855 N.am      16 UNK        -0.5000 
     90 CA         -4.4752  -28.7642  -50.0963 C.3       16 UNK         0.1400 
     91 CB         -4.6619  -29.5389  -51.4175 C.3       16 UNK        -0.1800 
     92 C          -5.7683  -28.0420  -49.6535 C.2       16 UNK         0.5000 
     93 O          -6.8633  -28.5083  -49.9737 O.2       16 UNK        -0.5000 
     94 N          -5.6226  -26.9176  -48.9362 N.am      17 UNK        -0.5000 
     95 CA         -6.6832  -25.9995  -48.5023 C.3       17 UNK         0.1400 
     96 CB         -7.6183  -26.6772  -47.4790 C.3       17 UNK        -0.1800 
     97 C          -7.4413  -25.3355  -49.6744 C.2       17 UNK         0.5000 
     98 O          -8.6014  -24.9495  -49.5143 O.2       17 UNK        -0.5000 
     99 N          -6.7778  -25.2101  -50.8319 N.am      18 UNK        -0.5000 
    100 CA        -7.2910  -24.5392  -52.0242 C.3       18 UNK         0.1400 
    101 CB        -6.5206  -25.0657  -53.2482 C.3       18 UNK        -0.1800 
    102 C         -7.1717  -23.0058  -51.9147 C.2       18 UNK         0.5000 
    103 O         -6.6327  -22.4826  -50.9361 O.2       18 UNK        -0.5000 
    104 N         -7.6528  -22.3078  -52.9537 N.am      19 UNK        -0.5000 
    105 CA        -7.5459  -20.8525  -53.1067 C.3       19 UNK         0.1400 
    106 CB        -8.3926  -20.4112  -54.3106 C.3       19 UNK        -0.1800 
    107 C         -6.0942  -20.3519  -53.2575 C.2       19 UNK         0.5000 
    108 O         -5.8269  -19.1910  -52.9533 O.2       19 UNK        -0.5000 
    109 N         -5.1974  -21.2327  -53.7316 N.am      20 UNK        -0.5000 
    110 CA        -3.7306  -21.1220  -53.7640 C.3       20 UNK         0.1400 
    111 CB        -3.1776  -21.1004  -52.3256 C.3       20 UNK        -0.1800 
    112 C         -3.1460  -19.9736  -54.6162 C.2       20 UNK         0.5000 
    113 O         -1.9256  -19.8099  -54.6368 O.2       20 UNK        -0.5000 
    114 N         -4.0082  -19.2221  -55.3168 N.am      21 UNK        -0.5000 
    115 CA        -3.7056  -18.0395  -56.1286 C.3       21 UNK         0.1400 
    116 CB        -2.9176  -18.4347  -57.3955 C.3       21 UNK        -0.1800 
    117 C         -3.0291  -16.9157  -55.3124 C.2       21 UNK         0.5000 
    118 O         -2.0562  -16.3172  -55.7765 O.2       21 UNK        -0.5000 
    119 N         -3.5521  -16.6680  -54.1021 N.am      22 UNK        -0.5000 
    120 CA        -3.0800  -15.6384  -53.1613 C.3       22 UNK         0.1400 
    121 C         -3.0690  -14.2047  -53.7666 C.2       22 UNK         0.5000 
    122 N         -2.0240  -13.4252  -53.5231 N.am      22 UNK        -0.7600 
    123 O         -4.0233  -13.7784  -54.4138 O.2       22 UNK        -0.5000 
    124 C124       -3.9037  -15.6289  -51.8470 C.3       23 UNK        -0.0398 
    125 S125       -3.9643  -17.2324  -50.9765 S.3       23 UNK        -0.2404 
    126 C126       -2.6785  -17.0363  -49.7066 C.3       23 UNK        -0.0205 
    127 H127       -0.0400  -11.6203  -49.0114 H         1 UNK         0.0600 
    128 H128       -0.0760  -12.2277  -47.3521 H         1 UNK         0.0600 
    129 H129       -0.4192  -13.3161  -48.7011 H         1 UNK         0.0600 
    130 H130        1.2946  -14.7318  -48.9485 H         1 UNK         0.3000 
    131 H131        3.9752  -13.8542  -49.4544 H         1 UNK         0.0600 
    132 H132        4.3849  -16.4625  -49.2549 H         1 UNK         0.0800 
    133 H133        2.6542  -16.5978  -49.1862 H         1 UNK         0.0800 
    134 H134        1.6281  -15.5929  -52.8655 H         1 UNK         0.0800 
    135 H135        1.3860  -14.6390  -51.4276 H         1 UNK         0.0800 
    136 H136       -0.7498  -15.3540  -50.6544 H         1 UNK         0.1150 
    137 H137       -1.5702  -19.4975  -49.9558 H         1 UNK         0.1150 
    138 H138        2.1373  -18.3339  -51.7548 H         1 UNK         0.1150 
    139 H139       -0.0643  -21.1916  -50.7359 H         1 UNK         0.0800 
    140 H140        1.1550  -20.7481  -51.8957 H         1 UNK         0.0800 
    141 H141        0.5635  -19.7101  -48.2051 H         1 UNK         0.0800 
    142 H142        2.0788  -20.0773  -47.4546 H         1 UNK         0.0800 
    143 H143        1.4368  -22.5323  -47.3902 H         1 UNK         0.0600 
    144 H144        0.5054  -20.4980  -45.6621 H         1 UNK         0.3000 
    145 H145       -1.0427  -22.6174  -43.2222 H         1 UNK         0.0600 
    146 H146        0.5242  -21.3737  -41.7717 H         1 UNK         0.0600 
    147 H147        1.3979  -22.5800  -42.7026 H         1 UNK         0.0600 
    148 H148        1.4835  -20.8862  -43.1674 H         1 UNK         0.0600 
    149 H149       -0.7768  -19.7986  -43.3162 H         1 UNK         0.3000 
    150 H150       -3.7609  -19.1374  -45.2315 H         1 UNK         0.0600 
    151 H151       -4.4337  -19.4611  -42.8458 H         1 UNK         0.0600 
    152 H152       -4.2064  -17.7616  -43.2279 H         1 UNK         0.0600 
    153 H153       -2.9761  -18.6318  -42.3139 H         1 UNK         0.0600 
    154 H154       -1.8660  -17.3408  -44.1475 H         1 UNK         0.3000 
    155 H155        0.3763  -17.2654  -46.9736 H         1 UNK         0.0600 
    156 H156       -1.4161  -15.6310  -47.4161 H         1 UNK         0.0600 
    157 H157       -0.1038  -14.8427  -46.5547 H         1 UNK         0.0600 
    158 H158       -1.5815  -15.2785  -45.7022 H         1 UNK         0.0600 
    159 H159        0.5381  -15.9703  -44.4531 H         1 UNK         0.3000 
    160 H160        2.3141  -18.5366  -42.6994 H         1 UNK         0.0600 
    161 H161        3.1062  -15.7628  -43.7315 H         1 UNK         0.0600 
    162 H162        4.0129  -17.2524  -43.9508 H         1 UNK         0.0600 
    163 H163        3.8133  -16.5839  -42.3384 H         1 UNK         0.0600 
    164 H164        1.2704  -15.9202  -42.0307 H         1 UNK         0.3000 
    165 H165       -1.8020  -17.1132  -40.6496 H         1 UNK         0.0600 
    166 H166       -0.9091  -16.0129  -38.6164 H         1 UNK         0.0600 
    167 H167       -0.1121  -17.5584  -38.8624 H         1 UNK         0.0600 
    168 H168        0.7291  -16.0671  -39.2683 H         1 UNK         0.0600 
    169 H169       -0.5908  -14.5300  -40.6966 H         1 UNK         0.3000 
    170 H170       -1.7003  -13.4863  -43.8942 H         1 UNK         0.0600 
    171 H171       -3.7612  -13.2323  -42.5034 H         1 UNK         0.0600 
    172 H172       -2.7879  -12.7200  -41.1300 H         1 UNK         0.0600 
    173 H173       -2.8606  -11.7270  -42.5864 H         1 UNK         0.0600 
    174 H174       -0.4707  -12.0649  -41.7678 H         1 UNK         0.3000 
    175 H175        1.6406  -11.4864  -41.7832 H         1 UNK         0.0600 
    176 H176        3.2179  -14.1172  -41.7592 H         1 UNK         0.0600 
    177 H177        3.5772  -12.6784  -40.8097 H         1 UNK         0.0600 
    178 H178        2.1104  -13.5924  -40.4952 H         1 UNK         0.0600 
    179 H179        3.8508  -12.3866  -43.3761 H         1 UNK         0.3000 
    180 H180        3.3074  -10.2138  -46.1290 H         1 UNK         0.0600 
    181 H181        5.3181  -10.0030  -43.8298 H         1 UNK         0.0600 
    182 H182        4.2616   -8.7232  -44.4049 H         1 UNK         0.0600 
    183 H183        5.5284   -9.3435  -45.4518 H         1 UNK         0.0600 
    184 H184        4.3083  -12.0130  -46.7893 H         1 UNK         0.3000 
    185 H185        6.9369  -13.3728  -46.4123 H         1 UNK         0.0600 
    186 H186        6.9936  -14.9163  -44.5187 H         1 UNK         0.0600 
    187 H187        5.3933  -15.5298  -44.8941 H         1 UNK         0.0600 
    188 H188        6.7390  -15.8421  -45.9888 H         1 UNK         0.0600 
    189 H189        5.6759  -13.7097  -48.1726 H         1 UNK         0.3000 
    190 H190       -1.7060  -20.7555  -47.3670 H         1 UNK         0.3000 
    191 H191       -2.8526  -22.1149  -49.5690 H         1 UNK         0.0600 
    192 H192       -4.2184  -20.7664  -47.1848 H         1 UNK         0.0600 
    193 H193       -5.0074  -21.2217  -48.6915 H         1 UNK         0.0600 
    194 H194       -3.7559  -19.9904  -48.6987 H         1 UNK         0.0600 
    195 H195       -2.9635  -22.8846  -46.0679 H         1 UNK         0.3000 
    196 H196       -4.5972  -25.1922  -46.2269 H         1 UNK         0.0600 
    197 H197       -3.6514  -25.7096  -43.9845 H         1 UNK         0.0600 
    198 H198       -4.1099  -24.0175  -44.1055 H         1 UNK         0.0600 
    199 H199       -2.4130  -24.4804  -44.2045 H         1 UNK         0.0600 
    200 H200       -1.0153  -24.8654  -46.4005 H         1 UNK         0.3000 
    201 H201       -0.4131  -27.6156  -46.7364 H         1 UNK         0.0600 
    202 H202        1.2845  -25.9305  -46.1011 H         1 UNK         0.0600 
    203 H203        1.1273  -25.1342  -47.6649 H         1 UNK         0.0600 
    204 H204        1.7831  -26.7632  -47.5656 H         1 UNK         0.0600 
    205 H205       -1.2507  -25.0958  -49.1096 H         1 UNK         0.3000 
    206 H206       -1.0386  -26.7993  -51.4480 H         1 UNK         0.0600 
    207 H207       -0.6849  -24.3305  -51.5322 H         1 UNK         0.0600 
    208 H208       -1.9907  -24.8226  -52.5991 H         1 UNK         0.0600 
    209 H209       -2.3593  -24.0667  -51.0541 H         1 UNK         0.0600 
    210 H210       -2.4860  -28.2150  -49.6456 H         1 UNK         0.3000 
    211 H211       -4.2595  -29.4927  -49.3136 H         1 UNK         0.0600 
    212 H212       -4.9401  -28.8748  -52.2368 H         1 UNK         0.0600 
    213 H213       -5.4448  -30.2927  -51.3263 H         1 UNK         0.0600 
    214 H214       -3.7475  -30.0588  -51.7029 H         1 UNK         0.0600 
    215 H215       -4.6784  -26.6075  -48.7431 H         1 UNK         0.3000 
    216 H216       -6.1869  -25.1822  -47.9816 H         1 UNK         0.0600 
    217 H217       -8.3014  -25.9526  -47.0344 H         1 UNK         0.0600 
    218 H218       -7.0503  -27.1266  -46.6643 H         1 UNK         0.0600 
    219 H219       -8.2258  -27.4579  -47.9369 H         1 UNK         0.0600 
    220 H220       -5.8156  -25.5288  -50.8787 H         1 UNK         0.3000 
    221 H221       -8.3466  -24.7915  -52.1434 H         1 UNK         0.0600 
    222 H222       -5.4793  -24.7412  -53.2369 H         1 UNK         0.0600 
    223 H223       -6.5282  -26.1557  -53.2801 H         1 UNK         0.0600 
    224 H224       -6.9639  -24.7157  -54.1808 H         1 UNK         0.0600 
    225 H225       -8.0940  -22.8052  -53.7138 H         1 UNK         0.3000 
    226 H226       -7.9583  -20.3886  -52.2083 H         1 UNK         0.0600 
    227 H227       -9.4391  -20.6870  -54.1794 H         1 UNK         0.0600 
    228 H228       -8.3577  -19.3282  -54.4369 H         1 UNK         0.0600 
    229 H229       -8.0393  -20.8616  -55.2390 H         1 UNK         0.0600 
    230 H230       -5.5574  -22.1360  -54.0025 H         1 UNK         0.3000 
    231 H231       -3.3774  -22.0416  -54.2326 H         1 UNK         0.0600 
    232 H232       -3.5642  -21.9435  -51.7540 H         1 UNK         0.0600 
    233 H233       -3.4513  -20.1851  -51.8003 H         1 UNK         0.0600 
    234 H234       -2.0896  -21.1712  -52.3164 H         1 UNK         0.0600 
    235 H235       -4.9891  -19.4293  -55.1945 H         1 UNK         0.3000 
    236 H236       -4.6664  -17.6382  -56.4539 H         1 UNK         0.0600 
    237 H237       -2.7983  -17.5806  -58.0631 H         1 UNK         0.0600 
    238 H238       -1.9199  -18.8030  -57.1552 H         1 UNK         0.0600 
    239 H239       -3.4364  -19.2127  -57.9555 H         1 UNK         0.0600 
    240 H240       -4.3224  -17.2383  -53.7793 H         1 UNK         0.3000 
    241 H241       -2.0515  -15.9053  -52.9168 H         1 UNK         0.0600 
    242 H242       -2.0169  -12.4894  -53.8986 H         1 UNK         0.3800 
    243 H243       -1.2275  -13.7519  -53.0004 H         1 UNK         0.3800 
    244 H244       -3.5194  -14.8707  -51.1627 H         1 UNK         0.0800 
    245 H245       -4.9348  -15.3393  -52.0580 H         1 UNK         0.0800 
    246 H246       -2.9139  -17.6920  -48.8681 H         1 UNK         0.0800 
    247 H247       -2.6960  -16.0212  -49.3102 H         1 UNK         0.0800 
@<TRIPOS>BOND
     1    1    2 1    
     2    1  127 1    
     3    1  128 1    
     4    1  129 1    
     5    2    3 2    
     6    2    4 am   BACKBONE|DICT|INTERRES
     7    4    5 1    
     8    4  130 1    
     9    5    6 1    
    10    5   65 1    
    11    5  131 1    
    12    6    7 1    
    13    6  132 1    
    14    6  133 1    
    15    7    8 1    
    16    8    9 1    
    17    8  134 1    
    18    8  135 1    
    19    9   10 ar   
    20    9   14 ar   
    21   10   11 ar   
    22   10  136 1    
    23   11   12 ar   
    24   11  126 1    
    25   12   13 ar   
    26   12  137 1    
    27   13   14 ar   
    28   13   15 1    
    29   14  138 1    
    30   15   16 1    
    31   15  139 1    
    32   15  140 1    
    33   16   17 1    
    34   17   18 1    
    35   17  141 1    
    36   17  142 1    
    37   18   19 1    
    38   18   67 1    
    39   18  143 1    
    40   19   20 am   BACKBONE|DICT|INTERRES
    41   19  144 1    
    42   20   21 2    
    43   20   22 1    
    44   22   23 1    
    45   22   24 1    
    46   22  145 1    
    47   23  146 1    
    48   23  147 1    
    49   23  148 1    
    50   24   25 am   BACKBONE|DICT|INTERRES
    51   24  149 1    
    52   25   26 2    
    53   25   27 1    
    54   27   28 1    
    55   27   29 1    
    56   27  150 1    
    57   28  151 1    
    58   28  152 1    
    59   28  153 1    
    60   29   30 am   BACKBONE|DICT|INTERRES
    61   29  154 1    
    62   30   31 2    
    63   30   32 1    
    64   32   33 1    
    65   32   34 1    
    66   32  155 1    
    67   33  156 1    
    68   33  157 1    
    69   33  158 1    
    70   34   35 am   BACKBONE|DICT|INTERRES
    71   34  159 1    
    72   35   36 2    
    73   35   37 1    
    74   37   38 1    
    75   37   39 1    
    76   37  160 1    
    77   38  161 1    
    78   38  162 1    
    79   38  163 1    
    80   39   40 am   BACKBONE|DICT|INTERRES
    81   39  164 1    
    82   40   41 2    
    83   40   42 1    
    84   42   43 1    
    85   42   44 1    
    86   42  165 1    
    87   43  166 1    
    88   43  167 1    
    89   43  168 1    
    90   44   45 am   BACKBONE|DICT|INTERRES
    91   44  169 1    
    92   45   46 2    
    93   45   47 1    
    94   47   48 1    
    95   47   49 1    
    96   47  170 1    
    97   48  171 1    
    98   48  172 1    
    99   48  173 1    
   100   49   50 am   BACKBONE|DICT|INTERRES
   101   49  174 1    
   102   50   51 2    
   103   50   52 1    
   104   52   53 1    
   105   52   54 1    
   106   52  175 1    
   107   53  176 1    
   108   53  177 1    
   109   53  178 1    
   110   54   55 am   BACKBONE|DICT|INTERRES
   111   54  179 1    
   112   55   56 2    
   113   55   57 1    
   114   57   58 1    
   115   57   59 1    
   116   57  180 1    
   117   58  181 1    
   118   58  182 1    
   119   58  183 1    
   120   59   60 am   BACKBONE|DICT|INTERRES
   121   59  184 1    
   122   60   61 2    
   123   60   62 1    
   124   62   63 1    
   125   62   64 1    
   126   62  185 1    
   127   63  186 1    
   128   63  187 1    
   129   63  188 1    
   130   64   65 am   BACKBONE|DICT|INTERRES
   131   64  189 1    
   132   65   66 2    
   133   67   68 2    
   134   67   69 am   BACKBONE|DICT|INTERRES
   135   69   70 1    
   136   69  190 1    
   137   70   71 1    
   138   70   72 1    
   139   70  191 1    
   140   71  192 1    
   141   71  193 1    
   142   71  194 1    
   143   72   73 2    
   144   72   74 am   BACKBONE|DICT|INTERRES
   145   74   75 1    
   146   74  195 1    
   147   75   76 1    
   148   75   77 1    
   149   75  196 1    
   150   76  197 1    
   151   76  198 1    
   152   76  199 1    
   153   77   78 2    
   154   77   79 am   BACKBONE|DICT|INTERRES
   155   79   80 1    
   156   79  200 1    
   157   80   81 1    
   158   80   82 1    
   159   80  201 1    
   160   81  202 1    
   161   81  203 1    
   162   81  204 1    
   163   82   83 2    
   164   82   84 am   BACKBONE|DICT|INTERRES
   165   84   85 1    
   166   84  205 1    
   167   85   86 1    
   168   85   87 1    
   169   85  206 1    
   170   86  207 1    
   171   86  208 1    
   172   86  209 1    
   173   87   88 2    
   174   87   89 am   BACKBONE|DICT|INTERRES
   175   89   90 1    
   176   89  210 1    
   177   90   91 1    
   178   90   92 1    
   179   90  211 1    
   180   91  212 1    
   181   91  213 1    
   182   91  214 1    
   183   92   93 2    
   184   92   94 am   BACKBONE|DICT|INTERRES
   185   94   95 1    
   186   94  215 1    
   187   95   96 1    
   188   95   97 1    
   189   95  216 1    
   190   96  217 1    
   191   96  218 1    
   192   96  219 1    
   193   97   98 2    
   194   97   99 am   BACKBONE|DICT|INTERRES
   195   99  100 1    
   196   99  220 1    
   197  100  101 1    
   198  100  102 1    
   199  100  221 1    
   200  101  222 1    
   201  101  223 1    
   202  101  224 1    
   203  102  103 2    
   204  102  104 am   BACKBONE|DICT|INTERRES
   205  104  105 1    
   206  104  225 1    
   207  105  106 1    
   208  105  107 1    
   209  105  226 1    
   210  106  227 1    
   211  106  228 1    
   212  106  229 1    
   213  107  108 2    
   214  107  109 am   BACKBONE|DICT|INTERRES
   215  109  110 1    
   216  109  230 1    
   217  110  111 1    
   218  110  112 1    
   219  110  231 1    
   220  111  232 1    
   221  111  233 1    
   222  111  234 1    
   223  112  113 2    
   224  112  114 am   BACKBONE|DICT|INTERRES
   225  114  115 1    
   226  114  235 1    
   227  115  116 1    
   228  115  117 1    
   229  115  236 1    
   230  116  237 1    
   231  116  238 1    
   232  116  239 1    
   233  117  118 2    
   234  117  119 am   BACKBONE|DICT|INTERRES
   235  119  120 1    
   236  119  240 1    
   237  120  121 1    
   238  120  124 1    
   239  120  241 1    
   240  121  122 am   BACKBONE|DICT|INTERRES
   241  121  123 2    
   242  122  242 1    
   243  122  243 1    
   244  124  125 1    
   245  124  244 1    
   246  124  245 1    
   247  125  126 1    
   248  126  246 1    
   249  126  247 1    
@<TRIPOS>SUBSTRUCTURE
     1 UNK         1 GROUP             0       ****    0 ROOT    
