@<TRIPOS>MOLECULE
3R540
247   249    1
SMALL
USER_CHARGES


@<TRIPOS>ATOM
      1 CA          5.4591   -9.0862  -47.8079 C.3       0 UNK        -0.1800 
      2 C           4.4476  -10.0952  -47.2827 C.2       0 UNK         0.5000 
      3 O           3.7289   -9.7998  -46.3280 O.2       0 UNK        -0.5000 
      4 N           4.3933  -11.2832  -47.9001 N.am      1 UNK        -0.5000 
      5 CA          3.4656  -12.3691  -47.5573 C.3       1 UNK         0.1400 
      6 C6          3.8937  -13.6990  -48.2302 C.3       23 UNK        -0.0398 
      7 S7          3.2355  -15.1697  -47.3770 S.3       23 UNK        -0.2404 
      8 C8          4.3167  -16.4910  -48.0287 C.3       23 UNK        -0.0205 
      9 C9          3.6832  -17.3626  -49.1139 C.ar      23 UNK        -0.0193 
     10 C10         2.7356  -16.8633  -50.0163 C.ar      23 UNK        -0.1150 
     11 C11         2.1811  -17.6764  -51.0100 C.ar      23 UNK        -0.0193 
     12 C12         2.5900  -19.0156  -51.0924 C.ar      23 UNK        -0.1150 
     13 C13         3.5490  -19.5283  -50.2126 C.ar      23 UNK        -0.0193 
     14 C14         4.0878  -18.6959  -49.2283 C.ar      23 UNK        -0.1150 
     15 C15         4.0382  -20.9670  -50.3543 C.3       23 UNK        -0.0205 
     16 S16         3.6249  -22.0144  -48.9189 S.3       23 UNK        -0.2404 
     17 C17         1.8062  -21.9692  -48.9751 C.3       23 UNK        -0.0398 
     18 CA          1.1122  -23.1548  -48.2644 C.3       11 UNK         0.1400 
     19 N           1.5618  -23.3450  -46.8821 N.am      11 UNK        -0.5000 
     20 C           1.2857  -24.4341  -46.1495 C.2       10 UNK         0.5000 
     21 O           0.6357  -25.3911  -46.5707 O.2       10 UNK        -0.5000 
     22 CA          1.7726  -24.4443  -44.6884 C.3       10 UNK         0.1400 
     23 CB          3.1914  -25.0250  -44.6003 C.3       10 UNK        -0.1800 
     24 N           1.7515  -23.1281  -44.0500 N.am      10 UNK        -0.5000 
     25 C           0.6708  -22.3493  -43.9045 C.2       9 UNK         0.5000 
     26 O          -0.4535  -22.6645  -44.2949 O.2       9 UNK        -0.5000 
     27 CA          0.8808  -20.9744  -43.2425 C.3       9 UNK         0.1400 
     28 CB          2.1542  -20.8898  -42.3734 C.3       9 UNK        -0.1800 
     29 N           0.8703  -19.8716  -44.2058 N.am      9 UNK        -0.5000 
     30 C           1.6084  -19.7380  -45.3194 C.2       8 UNK         0.5000 
     31 O           2.3182  -20.6275  -45.7903 O.2       8 UNK        -0.5000 
     32 CA          1.5788  -18.3611  -46.0079 C.3       8 UNK         0.1400 
     33 CB          0.5050  -18.2977  -47.1016 C.3       8 UNK        -0.1800 
     34 N           1.3657  -17.2568  -45.0745 N.am      8 UNK        -0.5000 
     35 C           2.2541  -16.8292  -44.1668 C.2       7 UNK         0.5000 
     36 O           3.3633  -17.3360  -43.9959 O.2       7 UNK        -0.5000 
     37 CA          1.8201  -15.6391  -43.2956 C.3       7 UNK         0.1400 
     38 CB          1.9674  -14.3137  -44.0602 C.3       7 UNK        -0.1800 
     39 N           0.4350  -15.7893  -42.8527 N.am      7 UNK        -0.5000 
     40 C           0.0631  -16.4177  -41.7293 C.2       6 UNK         0.5000 
     41 O           0.8565  -16.9031  -40.9223 O.2       6 UNK        -0.5000 
     42 CA         -1.4504  -16.5235  -41.4524 C.3       6 UNK         0.1400 
     43 CB         -1.9186  -15.3511  -40.5769 C.3       6 UNK        -0.1800 
     44 N          -2.2633  -16.5627  -42.6691 N.am      6 UNK        -0.5000 
     45 C          -2.2866  -17.5874  -43.5315 C.2       5 UNK         0.5000 
     46 O          -1.6427  -18.6243  -43.3782 O.2       5 UNK        -0.5000 
     47 CA         -3.1293  -17.4016  -44.8072 C.3       5 UNK         0.1400 
     48 CB         -4.5613  -17.9163  -44.5999 C.3       5 UNK        -0.1800 
     49 N          -3.1673  -16.0260  -45.3146 N.am      5 UNK        -0.5000 
     50 C          -2.0865  -15.3342  -45.6977 C.2       4 UNK         0.5000 
     51 O          -0.9312  -15.7324  -45.5429 O.2       4 UNK        -0.5000 
     52 CA         -2.3219  -13.9650  -46.3497 C.3       4 UNK         0.1400 
     53 CB         -1.8863  -12.8333  -45.4068 C.3       4 UNK        -0.1800 
     54 N          -1.5647  -13.8728  -47.5949 N.am      4 UNK        -0.5000 
     55 C          -1.8752  -14.5332  -48.7210 C.2       3 UNK         0.5000 
     56 O          -2.8737  -15.2468  -48.8285 O.2       3 UNK        -0.5000 
     57 CA         -0.9097  -14.3849  -49.9194 C.3       3 UNK         0.1400 
     58 CB         -1.6186  -14.5213  -51.2817 C.3       3 UNK        -0.1800 
     59 N          -0.0962  -13.1660  -49.8753 N.am      3 UNK        -0.5000 
     60 C          -0.5207  -11.8928  -49.8660 C.2       2 UNK         0.5000 
     61 O          -1.6936  -11.5610  -50.0434 O.2       2 UNK        -0.5000 
     62 CA          0.5462  -10.8076  -49.5863 C.3       2 UNK         0.1400 
     63 CB         -0.0029   -9.6839  -48.6831 C.3       2 UNK        -0.1800 
     64 N           1.8157  -11.3153  -49.0394 N.am      2 UNK        -0.5000 
     65 C           2.0037  -12.0071  -47.9018 C.2       1 UNK         0.5000 
     66 O           1.0895  -12.3657  -47.1584 O.2       1 UNK        -0.5000 
     67 C          -0.4185  -22.9788  -48.3304 C.2       11 UNK         0.5000 
     68 O          -1.0586  -23.5296  -49.2251 O.2       11 UNK        -0.5000 
     69 N          -0.9788  -22.2330  -47.3666 N.am      12 UNK        -0.5000 
     70 CA         -2.4177  -22.0224  -47.2224 C.3       12 UNK         0.1400 
     71 CB         -2.6819  -20.8210  -46.3084 C.3       12 UNK        -0.1800 
     72 C          -3.1357  -23.2819  -46.7196 C.2       12 UNK         0.5000 
     73 O          -4.2105  -23.6014  -47.2234 O.2       12 UNK        -0.5000 
     74 N          -2.5136  -24.0081  -45.7805 N.am      13 UNK        -0.5000 
     75 CA         -2.9926  -25.2963  -45.2747 C.3       13 UNK         0.1400 
     76 CB         -2.0917  -25.7710  -44.1257 C.3       13 UNK        -0.1800 
     77 C          -3.0861  -26.3647  -46.3805 C.2       13 UNK         0.5000 
     78 O          -4.1026  -27.0534  -46.4736 O.2       13 UNK        -0.5000 
     79 N          -2.0604  -26.4322  -47.2426 N.am      14 UNK        -0.5000 
     80 CA         -2.0227  -27.2871  -48.4331 C.3       14 UNK         0.1400 
     81 CB         -0.6182  -27.2308  -49.0522 C.3       14 UNK        -0.1800 
     82 C          -3.0916  -26.9243  -49.4849 C.2       14 UNK         0.5000 
     83 O          -3.5538  -27.8065  -50.2086 O.2       14 UNK        -0.5000 
     84 N          -3.4878  -25.6457  -49.5262 N.am      15 UNK        -0.5000 
     85 CA         -4.5540  -25.1102  -50.3736 C.3       15 UNK         0.1400 
     86 CB         -4.1804  -23.6768  -50.7857 C.3       15 UNK        -0.1800 
     87 C          -5.9429  -25.1606  -49.6986 C.2       15 UNK         0.5000 
     88 O          -6.8805  -24.5577  -50.2203 O.2       15 UNK        -0.5000 
     89 N          -6.0610  -25.8611  -48.5594 N.am      16 UNK        -0.5000 
     90 CA         -7.2774  -26.0686  -47.7655 C.3       16 UNK         0.1400 
     91 CB         -8.3176  -26.8919  -48.5545 C.3       16 UNK        -0.1800 
     92 C          -7.8509  -24.7615  -47.1773 C.2       16 UNK         0.5000 
     93 O          -9.0644  -24.5493  -47.1975 O.2       16 UNK        -0.5000 
     94 N          -6.9505  -23.9166  -46.6566 N.am      17 UNK        -0.5000 
     95 CA         -7.1872  -22.6233  -46.0044 C.3       17 UNK         0.1400 
     96 CB         -8.1520  -22.7478  -44.8063 C.3       17 UNK        -0.1800 
     97 C          -7.5699  -21.4873  -46.9747 C.2       17 UNK         0.5000 
     98 O          -8.0206  -20.4313  -46.5266 O.2       17 UNK        -0.5000 
     99 N          -7.3417  -21.6940  -48.2781 N.am      18 UNK        -0.5000 
    100 CA        -7.3611  -20.6455  -49.2977 C.3       18 UNK         0.1400 
    101 CB        -7.5573  -21.3012  -50.6742 C.3       18 UNK        -0.1800 
    102 C         -6.0554  -19.8249  -49.2596 C.2       18 UNK         0.5000 
    103 O         -5.1240  -20.1703  -48.5276 O.2       18 UNK        -0.5000 
    104 N         -5.9789  -18.7762  -50.0897 N.am      19 UNK        -0.5000 
    105 CA        -4.8275  -17.8759  -50.2507 C.3       19 UNK         0.1400 
    106 CB        -5.3090  -16.5955  -50.9571 C.3       19 UNK        -0.1800 
    107 C         -3.6222  -18.5292  -50.9721 C.2       19 UNK         0.5000 
    108 O         -3.0657  -17.9531  -51.9089 O.2       19 UNK        -0.5000 
    109 N         -3.2672  -19.7502  -50.5477 N.am      20 UNK        -0.5000 
    110 CA        -2.1412  -20.5846  -50.9847 C.3       20 UNK         0.1400 
    111 CB        -0.8239  -19.9458  -50.5176 C.3       20 UNK        -0.1800 
    112 C         -2.1249  -20.9484  -52.4860 C.2       20 UNK         0.5000 
    113 O         -1.1015  -21.4134  -52.9885 O.2       20 UNK        -0.5000 
    114 N         -3.2557  -20.7221  -53.1722 N.am      21 UNK        -0.5000 
    115 CA        -3.4514  -20.7950  -54.6246 C.3       21 UNK         0.1400 
    116 CB        -3.3038  -22.2459  -55.1286 C.3       21 UNK        -0.1800 
    117 C         -2.5797  -19.7894  -55.4155 C.2       21 UNK         0.5000 
    118 O         -2.3548  -19.9863  -56.6114 O.2       21 UNK        -0.5000 
    119 N         -2.1093  -18.7298  -54.7441 N.am      22 UNK        -0.5000 
    120 CA        -1.3008  -17.6521  -55.3276 C.3       22 UNK         0.1400 
    121 C         -2.1652  -16.6479  -56.1391 C.2       22 UNK         0.5000 
    122 N         -1.5948  -16.0155  -57.1557 N.am      22 UNK        -0.7600 
    123 O         -3.3334  -16.4076  -55.8407 O.2       22 UNK        -0.5000 
    124 C124       -0.4750  -16.9169  -54.2423 C.3       23 UNK        -0.0398 
    125 S125        0.7831  -17.9944  -53.4753 S.3       23 UNK        -0.2404 
    126 C126        1.1424  -17.0565  -51.9509 C.3       23 UNK        -0.0205 
    127 H127        4.9488   -8.1822  -48.1402 H         1 UNK         0.0600 
    128 H128        6.0299   -9.4826  -48.6481 H         1 UNK         0.0600 
    129 H129        6.1605   -8.8129  -47.0196 H         1 UNK         0.0600 
    130 H130        5.0226  -11.4635  -48.6697 H         1 UNK         0.3000 
    131 H131        3.5201  -12.5013  -46.4742 H         1 UNK         0.0600 
    132 H132        3.6158  -13.7296  -49.2851 H         1 UNK         0.0800 
    133 H133        4.9816  -13.7759  -48.2057 H         1 UNK         0.0800 
    134 H134        4.6035  -17.1173  -47.1825 H         1 UNK         0.0800 
    135 H135        5.2445  -16.0694  -48.4160 H         1 UNK         0.0800 
    136 H136        2.4240  -15.8316  -49.9521 H         1 UNK         0.1150 
    137 H137        2.1757  -19.6659  -51.8484 H         1 UNK         0.1150 
    138 H138        4.8314  -19.0923  -48.5508 H         1 UNK         0.1150 
    139 H139        3.6360  -21.4265  -51.2585 H         1 UNK         0.0800 
    140 H140        5.1219  -20.9577  -50.4774 H         1 UNK         0.0800 
    141 H141        1.5103  -21.9585  -50.0243 H         1 UNK         0.0800 
    142 H142        1.4902  -21.0188  -48.5477 H         1 UNK         0.0800 
    143 H143        1.3597  -24.0635  -48.8177 H         1 UNK         0.0600 
    144 H144        2.0723  -22.5748  -46.4611 H         1 UNK         0.3000 
    145 H145        1.1038  -25.0935  -44.1212 H         1 UNK         0.0600 
    146 H146        3.5152  -25.1220  -43.5639 H         1 UNK         0.0600 
    147 H147        3.2348  -26.0191  -45.0476 H         1 UNK         0.0600 
    148 H148        3.9154  -24.3979  -45.1224 H         1 UNK         0.0600 
    149 H149        2.6403  -22.7669  -43.7363 H         1 UNK         0.3000 
    150 H150        0.0230  -20.8194  -42.5863 H         1 UNK         0.0600 
    151 H151        2.1845  -21.6930  -41.6359 H         1 UNK         0.0600 
    152 H152        2.1821  -19.9487  -41.8233 H         1 UNK         0.0600 
    153 H153        3.0661  -20.9446  -42.9691 H         1 UNK         0.0600 
    154 H154        0.2393  -19.1153  -43.9632 H         1 UNK         0.3000 
    155 H155        2.5506  -18.2179  -46.4813 H         1 UNK         0.0600 
    156 H156       -0.4946  -18.4380  -46.6927 H         1 UNK         0.0600 
    157 H157        0.5242  -17.3352  -47.6140 H         1 UNK         0.0600 
    158 H158        0.6731  -19.0626  -47.8555 H         1 UNK         0.0600 
    159 H159        0.4969  -16.7370  -45.1851 H         1 UNK         0.3000 
    160 H160        2.4809  -15.5970  -42.4270 H         1 UNK         0.0600 
    161 H161        1.3481  -14.2904  -44.9578 H         1 UNK         0.0600 
    162 H162        3.0005  -14.1587  -44.3731 H         1 UNK         0.0600 
    163 H163        1.6850  -13.4645  -43.4381 H         1 UNK         0.0600 
    164 H164       -0.2783  -15.4820  -43.5010 H         1 UNK         0.3000 
    165 H165       -1.6199  -17.4506  -40.9005 H         1 UNK         0.0600 
    166 H166       -2.9702  -15.4541  -40.3086 H         1 UNK         0.0600 
    167 H167       -1.3502  -15.3069  -39.6469 H         1 UNK         0.0600 
    168 H168       -1.7924  -14.3940  -41.0846 H         1 UNK         0.0600 
    169 H169       -2.8177  -15.7453  -42.8769 H         1 UNK         0.3000 
    170 H170       -2.6638  -18.0079  -45.5835 H         1 UNK         0.0600 
    171 H171       -4.5580  -18.9435  -44.2324 H         1 UNK         0.0600 
    172 H172       -5.1067  -17.3096  -43.8761 H         1 UNK         0.0600 
    173 H173       -5.1212  -17.9121  -45.5356 H         1 UNK         0.0600 
    174 H174       -4.0830  -15.6285  -45.4665 H         1 UNK         0.3000 
    175 H175       -3.3836  -13.8436  -46.5742 H         1 UNK         0.0600 
    176 H176       -0.8290  -12.9078  -45.1484 H         1 UNK         0.0600 
    177 H177       -2.0483  -11.8566  -45.8633 H         1 UNK         0.0600 
    178 H178       -2.4549  -12.8580  -44.4765 H         1 UNK         0.0600 
    179 H179       -0.6968  -13.3487  -47.5535 H         1 UNK         0.3000 
    180 H180       -0.2063  -15.2125  -49.8265 H         1 UNK         0.0600 
    181 H181       -2.4102  -13.7817  -51.4031 H         1 UNK         0.0600 
    182 H182       -2.0748  -15.5055  -51.3850 H         1 UNK         0.0600 
    183 H183       -0.9166  -14.4014  -52.1066 H         1 UNK         0.0600 
    184 H184        0.8884  -13.3104  -49.7091 H         1 UNK         0.3000 
    185 H185        0.7863  -10.3669  -50.5548 H         1 UNK         0.0600 
    186 H186       -0.8580   -9.1887  -49.1446 H         1 UNK         0.0600 
    187 H187       -0.3301  -10.0675  -47.7160 H         1 UNK         0.0600 
    188 H188        0.7527   -8.9194  -48.5014 H         1 UNK         0.0600 
    189 H189        2.6377  -11.0759  -49.5761 H         1 UNK         0.3000 
    190 H190       -0.3937  -21.8845  -46.6206 H         1 UNK         0.3000 
    191 H191       -2.8334  -21.7856  -48.2024 H         1 UNK         0.0600 
    192 H192       -2.2049  -20.9267  -45.3338 H         1 UNK         0.0600 
    193 H193       -3.7511  -20.6839  -46.1407 H         1 UNK         0.0600 
    194 H194       -2.3107  -19.9102  -46.7740 H         1 UNK         0.0600 
    195 H195       -1.6612  -23.6390  -45.3668 H         1 UNK         0.3000 
    196 H196       -3.9972  -25.1398  -44.8762 H         1 UNK         0.0600 
    197 H197       -2.4803  -26.6877  -43.6807 H         1 UNK         0.0600 
    198 H198       -2.0323  -25.0233  -43.3344 H         1 UNK         0.0600 
    199 H199       -1.0786  -25.9785  -44.4682 H         1 UNK         0.0600 
    200 H200       -1.2367  -25.8633  -47.0701 H         1 UNK         0.3000 
    201 H201       -2.2134  -28.3133  -48.1125 H         1 UNK         0.0600 
    202 H202        0.1383  -27.5700  -48.3443 H         1 UNK         0.0600 
    203 H203       -0.3562  -26.2186  -49.3620 H         1 UNK         0.0600 
    204 H204       -0.5511  -27.8723  -49.9317 H         1 UNK         0.0600 
    205 H205       -3.0480  -24.9865  -48.8977 H         1 UNK         0.3000 
    206 H206       -4.6212  -25.7085  -51.2843 H         1 UNK         0.0600 
    207 H207       -3.1805  -23.6448  -51.2183 H         1 UNK         0.0600 
    208 H208       -4.8664  -23.2938  -51.5413 H         1 UNK         0.0600 
    209 H209       -4.2062  -22.9936  -49.9364 H         1 UNK         0.0600 
    210 H210       -5.2241  -26.2841  -48.1766 H         1 UNK         0.3000 
    211 H211       -6.9736  -26.6708  -46.9081 H         1 UNK         0.0600 
    212 H212       -8.7186  -26.3364  -49.4027 H         1 UNK         0.0600 
    213 H213       -9.1597  -27.1680  -47.9189 H         1 UNK         0.0600 
    214 H214       -7.8825  -27.8163  -48.9341 H         1 UNK         0.0600 
    215 H215       -5.9655  -24.1338  -46.7914 H         1 UNK         0.3000 
    216 H216       -6.2174  -22.3319  -45.5984 H         1 UNK         0.0600 
    217 H217       -8.1608  -21.8305  -44.2165 H         1 UNK         0.0600 
    218 H218       -7.8525  -23.5566  -44.1399 H         1 UNK         0.0600 
    219 H219       -9.1772  -22.9350  -45.1259 H         1 UNK         0.0600 
    220 H220       -6.9560  -22.5852  -48.5567 H         1 UNK         0.3000 
    221 H221       -8.1990  -19.9721  -49.1064 H         1 UNK         0.0600 
    222 H222       -6.6975  -21.9081  -50.9560 H         1 UNK         0.0600 
    223 H223       -8.4362  -21.9466  -50.6823 H         1 UNK         0.0600 
    224 H224       -7.7004  -20.5537  -51.4549 H         1 UNK         0.0600 
    225 H225       -6.7729  -18.5748  -50.6801 H         1 UNK         0.3000 
    226 H226       -4.4772  -17.5927  -49.2559 H         1 UNK         0.0600 
    227 H227       -6.1174  -16.1189  -50.4025 H         1 UNK         0.0600 
    228 H228       -4.5041  -15.8643  -51.0380 H         1 UNK         0.0600 
    229 H229       -5.6672  -16.8028  -51.9661 H         1 UNK         0.0600 
    230 H230       -3.8174  -20.1200  -49.7746 H         1 UNK         0.3000 
    231 H231       -2.2444  -21.5341  -50.4645 H         1 UNK         0.0600 
    232 H232        0.0392  -20.5139  -50.8565 H         1 UNK         0.0600 
    233 H233       -0.7839  -19.8977  -49.4309 H         1 UNK         0.0600 
    234 H234       -0.7144  -18.9349  -50.9018 H         1 UNK         0.0600 
    235 H235       -4.0263  -20.3272  -52.6530 H         1 UNK         0.3000 
    236 H236       -4.4844  -20.4925  -54.8012 H         1 UNK         0.0600 
    237 H237       -3.6157  -22.3316  -56.1701 H         1 UNK         0.0600 
    238 H238       -2.2724  -22.5938  -55.0688 H         1 UNK         0.0600 
    239 H239       -3.9232  -22.9300  -54.5485 H         1 UNK         0.0600 
    240 H240       -2.3729  -18.6071  -53.7725 H         1 UNK         0.3000 
    241 H241       -0.5967  -18.1084  -56.0266 H         1 UNK         0.0600 
    242 H242       -2.1384  -15.3515  -57.6855 H         1 UNK         0.3800 
    243 H243       -0.6376  -16.1912  -57.4207 H         1 UNK         0.3800 
    244 H244        0.0451  -16.0559  -54.6659 H         1 UNK         0.0800 
    245 H245       -1.1388  -16.5283  -53.4689 H         1 UNK         0.0800 
    246 H246        0.2134  -16.9235  -51.3982 H         1 UNK         0.0800 
    247 H247        1.4758  -16.0589  -52.2412 H         1 UNK         0.0800 
@<TRIPOS>BOND
     1    1    2 1    
     2    1  127 1    
     3    1  128 1    
     4    1  129 1    
     5    2    3 2    
     6    2    4 am   BACKBONE|DICT|INTERRES
     7    4    5 1    
     8    4  130 1    
     9    5    6 1    
    10    5   65 1    
    11    5  131 1    
    12    6    7 1    
    13    6  132 1    
    14    6  133 1    
    15    7    8 1    
    16    8    9 1    
    17    8  134 1    
    18    8  135 1    
    19    9   10 ar   
    20    9   14 ar   
    21   10   11 ar   
    22   10  136 1    
    23   11   12 ar   
    24   11  126 1    
    25   12   13 ar   
    26   12  137 1    
    27   13   14 ar   
    28   13   15 1    
    29   14  138 1    
    30   15   16 1    
    31   15  139 1    
    32   15  140 1    
    33   16   17 1    
    34   17   18 1    
    35   17  141 1    
    36   17  142 1    
    37   18   19 1    
    38   18   67 1    
    39   18  143 1    
    40   19   20 am   BACKBONE|DICT|INTERRES
    41   19  144 1    
    42   20   21 2    
    43   20   22 1    
    44   22   23 1    
    45   22   24 1    
    46   22  145 1    
    47   23  146 1    
    48   23  147 1    
    49   23  148 1    
    50   24   25 am   BACKBONE|DICT|INTERRES
    51   24  149 1    
    52   25   26 2    
    53   25   27 1    
    54   27   28 1    
    55   27   29 1    
    56   27  150 1    
    57   28  151 1    
    58   28  152 1    
    59   28  153 1    
    60   29   30 am   BACKBONE|DICT|INTERRES
    61   29  154 1    
    62   30   31 2    
    63   30   32 1    
    64   32   33 1    
    65   32   34 1    
    66   32  155 1    
    67   33  156 1    
    68   33  157 1    
    69   33  158 1    
    70   34   35 am   BACKBONE|DICT|INTERRES
    71   34  159 1    
    72   35   36 2    
    73   35   37 1    
    74   37   38 1    
    75   37   39 1    
    76   37  160 1    
    77   38  161 1    
    78   38  162 1    
    79   38  163 1    
    80   39   40 am   BACKBONE|DICT|INTERRES
    81   39  164 1    
    82   40   41 2    
    83   40   42 1    
    84   42   43 1    
    85   42   44 1    
    86   42  165 1    
    87   43  166 1    
    88   43  167 1    
    89   43  168 1    
    90   44   45 am   BACKBONE|DICT|INTERRES
    91   44  169 1    
    92   45   46 2    
    93   45   47 1    
    94   47   48 1    
    95   47   49 1    
    96   47  170 1    
    97   48  171 1    
    98   48  172 1    
    99   48  173 1    
   100   49   50 am   BACKBONE|DICT|INTERRES
   101   49  174 1    
   102   50   51 2    
   103   50   52 1    
   104   52   53 1    
   105   52   54 1    
   106   52  175 1    
   107   53  176 1    
   108   53  177 1    
   109   53  178 1    
   110   54   55 am   BACKBONE|DICT|INTERRES
   111   54  179 1    
   112   55   56 2    
   113   55   57 1    
   114   57   58 1    
   115   57   59 1    
   116   57  180 1    
   117   58  181 1    
   118   58  182 1    
   119   58  183 1    
   120   59   60 am   BACKBONE|DICT|INTERRES
   121   59  184 1    
   122   60   61 2    
   123   60   62 1    
   124   62   63 1    
   125   62   64 1    
   126   62  185 1    
   127   63  186 1    
   128   63  187 1    
   129   63  188 1    
   130   64   65 am   BACKBONE|DICT|INTERRES
   131   64  189 1    
   132   65   66 2    
   133   67   68 2    
   134   67   69 am   BACKBONE|DICT|INTERRES
   135   69   70 1    
   136   69  190 1    
   137   70   71 1    
   138   70   72 1    
   139   70  191 1    
   140   71  192 1    
   141   71  193 1    
   142   71  194 1    
   143   72   73 2    
   144   72   74 am   BACKBONE|DICT|INTERRES
   145   74   75 1    
   146   74  195 1    
   147   75   76 1    
   148   75   77 1    
   149   75  196 1    
   150   76  197 1    
   151   76  198 1    
   152   76  199 1    
   153   77   78 2    
   154   77   79 am   BACKBONE|DICT|INTERRES
   155   79   80 1    
   156   79  200 1    
   157   80   81 1    
   158   80   82 1    
   159   80  201 1    
   160   81  202 1    
   161   81  203 1    
   162   81  204 1    
   163   82   83 2    
   164   82   84 am   BACKBONE|DICT|INTERRES
   165   84   85 1    
   166   84  205 1    
   167   85   86 1    
   168   85   87 1    
   169   85  206 1    
   170   86  207 1    
   171   86  208 1    
   172   86  209 1    
   173   87   88 2    
   174   87   89 am   BACKBONE|DICT|INTERRES
   175   89   90 1    
   176   89  210 1    
   177   90   91 1    
   178   90   92 1    
   179   90  211 1    
   180   91  212 1    
   181   91  213 1    
   182   91  214 1    
   183   92   93 2    
   184   92   94 am   BACKBONE|DICT|INTERRES
   185   94   95 1    
   186   94  215 1    
   187   95   96 1    
   188   95   97 1    
   189   95  216 1    
   190   96  217 1    
   191   96  218 1    
   192   96  219 1    
   193   97   98 2    
   194   97   99 am   BACKBONE|DICT|INTERRES
   195   99  100 1    
   196   99  220 1    
   197  100  101 1    
   198  100  102 1    
   199  100  221 1    
   200  101  222 1    
   201  101  223 1    
   202  101  224 1    
   203  102  103 2    
   204  102  104 am   BACKBONE|DICT|INTERRES
   205  104  105 1    
   206  104  225 1    
   207  105  106 1    
   208  105  107 1    
   209  105  226 1    
   210  106  227 1    
   211  106  228 1    
   212  106  229 1    
   213  107  108 2    
   214  107  109 am   BACKBONE|DICT|INTERRES
   215  109  110 1    
   216  109  230 1    
   217  110  111 1    
   218  110  112 1    
   219  110  231 1    
   220  111  232 1    
   221  111  233 1    
   222  111  234 1    
   223  112  113 2    
   224  112  114 am   BACKBONE|DICT|INTERRES
   225  114  115 1    
   226  114  235 1    
   227  115  116 1    
   228  115  117 1    
   229  115  236 1    
   230  116  237 1    
   231  116  238 1    
   232  116  239 1    
   233  117  118 2    
   234  117  119 am   BACKBONE|DICT|INTERRES
   235  119  120 1    
   236  119  240 1    
   237  120  121 1    
   238  120  124 1    
   239  120  241 1    
   240  121  122 am   BACKBONE|DICT|INTERRES
   241  121  123 2    
   242  122  242 1    
   243  122  243 1    
   244  124  125 1    
   245  124  244 1    
   246  124  245 1    
   247  125  126 1    
   248  126  246 1    
   249  126  247 1    
@<TRIPOS>SUBSTRUCTURE
     1 UNK         1 GROUP             0       ****    0 ROOT    
