@<TRIPOS>MOLECULE
3R540
247   249    1
SMALL
USER_CHARGES


@<TRIPOS>ATOM
      1 CA          0.3262  -10.8955  -46.3450 C.3       0 UNK        -0.1800 
      2 C           0.5722  -12.3666  -46.0428 C.2       0 UNK         0.5000 
      3 O           1.6961  -12.8409  -46.1945 O.2       0 UNK        -0.5000 
      4 N          -0.4732  -13.0878  -45.6186 N.am      1 UNK        -0.5000 
      5 CA         -0.4118  -14.5108  -45.2558 C.3       1 UNK         0.1400 
      6 C6         -1.8087  -15.1787  -45.2728 C.3       23 UNK        -0.0398 
      7 S7         -2.6358  -15.0366  -46.8936 S.3       23 UNK        -0.2404 
      8 C8         -2.1169  -16.6003  -47.6539 C.3       23 UNK        -0.0205 
      9 C9         -2.6190  -16.7385  -49.0823 C.ar      23 UNK        -0.0193 
     10 C10        -1.7333  -16.6048  -50.1539 C.ar      23 UNK        -0.1150 
     11 C11        -2.1699  -16.8018  -51.4665 C.ar      23 UNK        -0.0193 
     12 C12        -3.5051  -17.1442  -51.7037 C.ar      23 UNK        -0.1150 
     13 C13        -4.4065  -17.2676  -50.6401 C.ar      23 UNK        -0.0193 
     14 C14        -3.9582  -17.0477  -49.3337 C.ar      23 UNK        -0.1150 
     15 C15        -5.8659  -17.6153  -50.9063 C.3       23 UNK        -0.0205 
     16 S16        -6.2224  -19.3854  -50.6441 S.3       23 UNK        -0.2404 
     17 C17        -6.4330  -19.4797  -48.8348 C.3       23 UNK        -0.0398 
     18 CA         -5.1763  -20.0006  -48.0891 C.3       11 UNK         0.1400 
     19 N          -5.0877  -19.4120  -46.7471 N.am      11 UNK        -0.5000 
     20 C          -4.0765  -19.5539  -45.8799 C.2       10 UNK         0.5000 
     21 O          -3.0680  -20.2269  -46.1147 O.2       10 UNK        -0.5000 
     22 CA         -4.2223  -18.7890  -44.5451 C.3       10 UNK         0.1400 
     23 CB         -5.6810  -18.7188  -44.0406 C.3       10 UNK        -0.1800 
     24 N          -3.3474  -19.2970  -43.4875 N.am      10 UNK        -0.5000 
     25 C          -3.3307  -20.5222  -42.9459 C.2       9 UNK         0.5000 
     26 O          -4.0889  -21.4359  -43.2772 O.2       9 UNK        -0.5000 
     27 CA         -2.2455  -20.7520  -41.8711 C.3       9 UNK         0.1400 
     28 CB         -2.3528  -22.1280  -41.1900 C.3       9 UNK        -0.1800 
     29 N          -0.9045  -20.5972  -42.4414 N.am      9 UNK        -0.5000 
     30 C          -0.3153  -19.4245  -42.7039 C.2       8 UNK         0.5000 
     31 O          -0.8110  -18.3344  -42.4060 O.2       8 UNK        -0.5000 
     32 CA          0.9949  -19.4795  -43.5007 C.3       8 UNK         0.1400 
     33 CB          0.7014  -19.3153  -45.0006 C.3       8 UNK        -0.1800 
     34 N           1.8809  -18.4006  -43.0798 N.am      8 UNK        -0.5000 
     35 C           2.8908  -18.5326  -42.2129 C.2       7 UNK         0.5000 
     36 O           3.1938  -19.6018  -41.6792 O.2       7 UNK        -0.5000 
     37 CA          3.6959  -17.2518  -41.9004 C.3       7 UNK         0.1400 
     38 CB          5.0361  -17.5403  -41.1896 C.3       7 UNK        -0.1800 
     39 N           3.9059  -16.3999  -43.0793 N.am      7 UNK        -0.5000 
     40 C           4.5540  -16.7344  -44.2067 C.2       6 UNK         0.5000 
     41 O           5.1013  -17.8223  -44.3896 O.2       6 UNK        -0.5000 
     42 CA          4.6212  -15.6774  -45.3183 C.3       6 UNK         0.1400 
     43 CB          3.4209  -15.7986  -46.2703 C.3       6 UNK        -0.1800 
     44 N           4.7142  -14.3189  -44.7808 N.am      6 UNK        -0.5000 
     45 C           5.4013  -13.3256  -45.3549 C.2       5 UNK         0.5000 
     46 O           5.9687  -13.4217  -46.4448 O.2       5 UNK        -0.5000 
     47 CA          5.5173  -12.0098  -44.5602 C.3       5 UNK         0.1400 
     48 CB          4.2739  -11.1305  -44.7652 C.3       5 UNK        -0.1800 
     49 N           5.7510  -12.1883  -43.1230 N.am      5 UNK        -0.5000 
     50 C           6.7888  -12.8331  -42.5668 C.2       4 UNK         0.5000 
     51 O           7.6570  -13.4138  -43.2184 O.2       4 UNK        -0.5000 
     52 CA          6.9049  -12.8056  -41.0258 C.3       4 UNK         0.1400 
     53 CB          8.2598  -12.2158  -40.5994 C.3       4 UNK        -0.1800 
     54 N           5.8474  -12.0162  -40.3839 N.am      4 UNK        -0.5000 
     55 C           4.6365  -12.4197  -39.9775 C.2       3 UNK         0.5000 
     56 O           3.8414  -11.6245  -39.4752 O.2       3 UNK        -0.5000 
     57 CA          4.2223  -13.9025  -40.1084 C.3       3 UNK         0.1400 
     58 CB          4.5358  -14.6695  -38.8148 C.3       3 UNK        -0.1800 
     59 N           2.7906  -13.9999  -40.3844 N.am      3 UNK        -0.5000 
     60 C           2.2555  -13.7817  -41.5897 C.2       2 UNK         0.5000 
     61 O           2.9359  -13.6429  -42.6098 O.2       2 UNK        -0.5000 
     62 CA          0.7174  -13.7135  -41.6467 C.3       2 UNK         0.1400 
     63 CB          0.2084  -12.4447  -40.9426 C.3       2 UNK        -0.1800 
     64 N           0.1833  -13.7215  -43.0078 N.am      2 UNK        -0.5000 
     65 C           0.2618  -14.7323  -43.8840 C.2       1 UNK         0.5000 
     66 O           0.8209  -15.8036  -43.6477 O.2       1 UNK        -0.5000 
     67 C          -5.1178  -21.5419  -48.0751 C.2       11 UNK         0.5000 
     68 O          -4.5993  -22.1418  -49.0187 O.2       11 UNK        -0.5000 
     69 N          -5.6112  -22.1503  -46.9862 N.am      12 UNK        -0.5000 
     70 CA         -5.5679  -23.5869  -46.7123 C.3       12 UNK         0.1400 
     71 CB         -6.2873  -23.8670  -45.3850 C.3       12 UNK        -0.1800 
     72 C          -4.1399  -24.1621  -46.6856 C.2       12 UNK         0.5000 
     73 O          -3.9348  -25.2815  -47.1538 O.2       12 UNK        -0.5000 
     74 N          -3.1843  -23.3798  -46.1688 N.am      13 UNK        -0.5000 
     75 CA         -1.7679  -23.7312  -46.1398 C.3       13 UNK         0.1400 
     76 CB         -1.1415  -23.1916  -44.8475 C.3       13 UNK        -0.1800 
     77 C          -1.0240  -23.1780  -47.3635 C.2       13 UNK         0.5000 
     78 O          -0.2324  -23.9024  -47.9667 O.2       13 UNK        -0.5000 
     79 N          -1.2705  -21.9026  -47.6940 N.am      14 UNK        -0.5000 
     80 CA         -0.5152  -21.1609  -48.7047 C.3       14 UNK         0.1400 
     81 CB         -0.8356  -19.6677  -48.5723 C.3       14 UNK        -0.1800 
     82 C          -0.7660  -21.6202  -50.1508 C.2       14 UNK         0.5000 
     83 O           0.1654  -21.6000  -50.9564 O.2       14 UNK        -0.5000 
     84 N          -2.0117  -21.9996  -50.4585 N.am      15 UNK        -0.5000 
     85 CA         -2.4692  -22.2786  -51.8191 C.3       15 UNK         0.1400 
     86 CB         -3.2807  -21.0691  -52.3075 C.3       15 UNK        -0.1800 
     87 C          -3.2904  -23.5731  -51.9133 C.2       15 UNK         0.5000 
     88 O          -3.9317  -23.7942  -52.9420 O.2       15 UNK        -0.5000 
     89 N          -3.2840  -24.3909  -50.8500 N.am      16 UNK        -0.5000 
     90 CA         -4.0508  -25.6338  -50.6976 C.3       16 UNK         0.1400 
     91 CB         -3.5396  -26.7104  -51.6790 C.3       16 UNK        -0.1800 
     92 C          -5.5748  -25.4024  -50.7988 C.2       16 UNK         0.5000 
     93 O          -6.2773  -26.1812  -51.4421 O.2       16 UNK        -0.5000 
     94 N          -6.0476  -24.2992  -50.1991 N.am      17 UNK        -0.5000 
     95 CA         -7.4165  -23.7706  -50.2695 C.3       17 UNK         0.1400 
     96 CB         -8.4345  -24.7419  -49.6357 C.3       17 UNK        -0.1800 
     97 C          -7.7832  -23.3386  -51.7039 C.2       17 UNK         0.5000 
     98 O          -8.8871  -23.6065  -52.1792 O.2       17 UNK        -0.5000 
     99 N          -6.8083  -22.6980  -52.3640 N.am      18 UNK        -0.5000 
    100 CA        -6.7958  -22.2110  -53.7463 C.3       18 UNK         0.1400 
    101 CB        -7.9507  -21.2250  -54.0133 C.3       18 UNK        -0.1800 
    102 C         -6.7070  -23.3165  -54.8193 C.2       18 UNK         0.5000 
    103 O         -6.6827  -22.9864  -56.0054 O.2       18 UNK        -0.5000 
    104 N         -6.6034  -24.5932  -54.4196 N.am      19 UNK        -0.5000 
    105 CA        -6.4766  -25.7375  -55.3273 C.3       19 UNK         0.1400 
    106 CB        -6.6924  -27.0427  -54.5487 C.3       19 UNK        -0.1800 
    107 C         -5.1315  -25.7770  -56.0779 C.2       19 UNK         0.5000 
    108 O         -5.0871  -26.2713  -57.2050 O.2       19 UNK        -0.5000 
    109 N         -4.0711  -25.2369  -55.4607 N.am      20 UNK        -0.5000 
    110 CA        -2.7466  -25.0818  -56.0683 C.3       20 UNK         0.1400 
    111 CB        -1.6730  -25.3121  -54.9912 C.3       20 UNK        -0.1800 
    112 C         -2.5696  -23.6997  -56.7299 C.2       20 UNK         0.5000 
    113 O         -1.4860  -23.4125  -57.2418 O.2       20 UNK        -0.5000 
    114 N         -3.6083  -22.8487  -56.6705 N.am      21 UNK        -0.5000 
    115 CA        -3.6947  -21.4868  -57.2182 C.3       21 UNK         0.1400 
    116 CB        -3.7076  -21.5354  -58.7595 C.3       21 UNK        -0.1800 
    117 C         -2.6287  -20.5085  -56.6730 C.2       21 UNK         0.5000 
    118 O         -2.3655  -19.4798  -57.2975 O.2       21 UNK        -0.5000 
    119 N         -2.0314  -20.8514  -55.5232 N.am      22 UNK        -0.5000 
    120 CA        -0.8769  -20.1762  -54.9093 C.3       22 UNK         0.1400 
    121 C          0.4510  -20.3409  -55.7179 C.2       22 UNK         0.5000 
    122 N          0.5684  -21.3292  -56.5995 N.am      22 UNK        -0.7600 
    123 O          1.4006  -19.5838  -55.5384 O.2       22 UNK        -0.5000 
    124 C124       -1.1997  -18.7087  -54.5040 C.3       23 UNK        -0.0398 
    125 S125       -0.3128  -18.1676  -53.0045 S.3       23 UNK        -0.2404 
    126 C126       -1.1934  -16.6230  -52.6189 C.3       23 UNK        -0.0205 
    127 H127       -0.7089  -10.6097  -46.1571 H         1 UNK         0.0600 
    128 H128        0.5537  -10.6848  -47.3899 H         1 UNK         0.0600 
    129 H129        0.9701  -10.2737  -45.7228 H         1 UNK         0.0600 
    130 H130       -1.3836  -12.6551  -45.5522 H         1 UNK         0.3000 
    131 H131        0.2040  -15.0210  -45.9990 H         1 UNK         0.0600 
    132 H132       -2.4589  -14.7224  -44.5243 H         1 UNK         0.0800 
    133 H133       -1.7337  -16.2340  -45.0018 H         1 UNK         0.0800 
    134 H134       -1.0280  -16.6664  -47.6273 H         1 UNK         0.0800 
    135 H135       -2.4875  -17.4349  -47.0602 H         1 UNK         0.0800 
    136 H136       -0.6973  -16.3592  -49.9671 H         1 UNK         0.1150 
    137 H137       -3.8445  -17.3048  -52.7171 H         1 UNK         0.1150 
    138 H138       -4.6466  -17.1328  -48.5060 H         1 UNK         0.1150 
    139 H139       -6.5188  -17.0007  -50.2851 H         1 UNK         0.0800 
    140 H140       -6.1201  -17.3669  -51.9377 H         1 UNK         0.0800 
    141 H141       -7.3076  -20.0958  -48.6172 H         1 UNK         0.0800 
    142 H142       -6.6997  -18.4828  -48.4826 H         1 UNK         0.0800 
    143 H143       -4.2867  -19.6705  -48.6269 H         1 UNK         0.0600 
    144 H144       -5.8740  -18.8468  -46.4612 H         1 UNK         0.3000 
    145 H145       -3.8891  -17.7696  -44.7438 H         1 UNK         0.0600 
    146 H146       -6.3125  -18.1364  -44.7121 H         1 UNK         0.0600 
    147 H147       -6.1250  -19.7102  -43.9422 H         1 UNK         0.0600 
    148 H148       -5.7340  -18.2356  -43.0648 H         1 UNK         0.0600 
    149 H149       -2.6236  -18.6590  -43.1715 H         1 UNK         0.3000 
    150 H150       -2.3918  -19.9952  -41.0973 H         1 UNK         0.0600 
    151 H151       -3.3297  -22.2540  -40.7216 H         1 UNK         0.0600 
    152 H152       -1.6025  -22.2391  -40.4071 H         1 UNK         0.0600 
    153 H153       -2.2227  -22.9463  -41.8967 H         1 UNK         0.0600 
    154 H154       -0.4485  -21.4487  -42.7339 H         1 UNK         0.3000 
    155 H155        1.4723  -20.4493  -43.3451 H         1 UNK         0.0600 
    156 H156        0.2133  -18.3630  -45.2141 H         1 UNK         0.0600 
    157 H157        0.0450  -20.1085  -45.3602 H         1 UNK         0.0600 
    158 H158        1.6181  -19.3594  -45.5889 H         1 UNK         0.0600 
    159 H159        1.6150  -17.4658  -43.3841 H         1 UNK         0.3000 
    160 H160        3.0774  -16.6777  -41.2112 H         1 UNK         0.0600 
    161 H161        5.5963  -16.6249  -41.0040 H         1 UNK         0.0600 
    162 H162        5.6713  -18.2039  -41.7769 H         1 UNK         0.0600 
    163 H163        4.8696  -18.0198  -40.2244 H         1 UNK         0.0600 
    164 H164        3.4321  -15.5039  -43.0504 H         1 UNK         0.3000 
    165 H165        5.5278  -15.8943  -45.8877 H         1 UNK         0.0600 
    166 H166        3.5149  -15.1160  -47.1150 H         1 UNK         0.0600 
    167 H167        3.3368  -16.8091  -46.6721 H         1 UNK         0.0600 
    168 H168        2.4882  -15.5686  -45.7598 H         1 UNK         0.0600 
    169 H169        4.2331  -14.1224  -43.9081 H         1 UNK         0.3000 
    170 H170        6.3777  -11.4690  -44.9595 H         1 UNK         0.0600 
    171 H171        4.0697  -10.9823  -45.8265 H         1 UNK         0.0600 
    172 H172        3.3849  -11.5815  -44.3232 H         1 UNK         0.0600 
    173 H173        4.4076  -10.1451  -44.3191 H         1 UNK         0.0600 
    174 H174        5.0800  -11.7516  -42.5087 H         1 UNK         0.3000 
    175 H175        6.8807  -13.8365  -40.6709 H         1 UNK         0.0600 
    176 H176        8.3810  -11.1897  -40.9490 H         1 UNK         0.0600 
    177 H177        8.3655  -12.2151  -39.5142 H         1 UNK         0.0600 
    178 H178        9.0890  -12.7995  -41.0015 H         1 UNK         0.0600 
    179 H179        6.0709  -11.0388  -40.2647 H         1 UNK         0.3000 
    180 H180        4.7531  -14.3760  -40.9338 H         1 UNK         0.0600 
    181 H181        4.0304  -14.2305  -37.9536 H         1 UNK         0.0600 
    182 H182        5.6060  -14.6621  -38.6053 H         1 UNK         0.0600 
    183 H183        4.2264  -15.7121  -38.8871 H         1 UNK         0.0600 
    184 H184        2.1841  -14.0624  -39.5795 H         1 UNK         0.3000 
    185 H185        0.3237  -14.5897  -41.1273 H         1 UNK         0.0600 
    186 H186        0.5810  -11.5412  -41.4273 H         1 UNK         0.0600 
    187 H187       -0.8810  -12.4017  -40.9446 H         1 UNK         0.0600 
    188 H188        0.5275  -12.4106  -39.9002 H         1 UNK         0.0600 
    189 H189       -0.2522  -12.8668  -43.3196 H         1 UNK         0.3000 
    190 H190       -5.9964  -21.5716  -46.2544 H         1 UNK         0.3000 
    191 H191       -6.1164  -24.0976  -47.5032 H         1 UNK         0.0600 
    192 H192       -5.8063  -23.3546  -44.5506 H         1 UNK         0.0600 
    193 H193       -6.2882  -24.9341  -45.1586 H         1 UNK         0.0600 
    194 H194       -7.3276  -23.5435  -45.4238 H         1 UNK         0.0600 
    195 H195       -3.4344  -22.4610  -45.8249 H         1 UNK         0.3000 
    196 H196       -1.6497  -24.8170  -46.1374 H         1 UNK         0.0600 
    197 H197       -1.5860  -23.6711  -43.9769 H         1 UNK         0.0600 
    198 H198       -1.2875  -22.1158  -44.7554 H         1 UNK         0.0600 
    199 H199       -0.0688  -23.3872  -44.8160 H         1 UNK         0.0600 
    200 H200       -1.9315  -21.3654  -47.1390 H         1 UNK         0.3000 
    201 H201        0.5480  -21.2962  -48.4951 H         1 UNK         0.0600 
    202 H202       -0.5971  -19.2945  -47.5778 H         1 UNK         0.0600 
    203 H203       -1.8915  -19.4737  -48.7591 H         1 UNK         0.0600 
    204 H204       -0.2614  -19.0785  -49.2885 H         1 UNK         0.0600 
    205 H205       -2.7309  -21.9856  -49.7422 H         1 UNK         0.3000 
    206 H206       -1.6200  -22.4201  -52.4894 H         1 UNK         0.0600 
    207 H207       -2.6992  -20.1492  -52.2488 H         1 UNK         0.0600 
    208 H208       -3.6031  -21.1882  -53.3403 H         1 UNK         0.0600 
    209 H209       -4.1730  -20.9354  -51.7012 H         1 UNK         0.0600 
    210 H210       -2.7224  -24.1207  -50.0554 H         1 UNK         0.3000 
    211 H211       -3.8615  -25.9970  -49.6878 H         1 UNK         0.0600 
    212 H212       -3.7484  -26.4494  -52.7164 H         1 UNK         0.0600 
    213 H213       -4.0140  -27.6728  -51.4844 H         1 UNK         0.0600 
    214 H214       -2.4637  -26.8539  -51.5809 H         1 UNK         0.0600 
    215 H215       -5.3755  -23.6874  -49.7426 H         1 UNK         0.3000 
    216 H216       -7.4236  -22.8589  -49.6708 H         1 UNK         0.0600 
    217 H217       -9.4185  -24.2777  -49.5622 H         1 UNK         0.0600 
    218 H218       -8.1355  -25.0273  -48.6275 H         1 UNK         0.0600 
    219 H219       -8.5503  -25.6537  -50.2220 H         1 UNK         0.0600 
    220 H220       -5.9317  -22.5845  -51.8762 H         1 UNK         0.3000 
    221 H221       -5.8699  -21.6443  -53.8415 H         1 UNK         0.0600 
    222 H222       -8.9197  -21.7240  -54.0232 H         1 UNK         0.0600 
    223 H223       -7.9820  -20.4407  -53.2568 H         1 UNK         0.0600 
    224 H224       -7.8297  -20.7358  -54.9804 H         1 UNK         0.0600 
    225 H225       -6.5916  -24.7948  -53.4288 H         1 UNK         0.3000 
    226 H226       -7.2691  -25.6570  -56.0743 H         1 UNK         0.0600 
    227 H227       -7.6322  -27.0260  -53.9962 H         1 UNK         0.0600 
    228 H228       -6.7268  -27.8973  -55.2254 H         1 UNK         0.0600 
    229 H229       -5.8865  -27.2245  -53.8376 H         1 UNK         0.0600 
    230 H230       -4.1893  -24.8315  -54.5348 H         1 UNK         0.3000 
    231 H231       -2.6046  -25.8344  -56.8463 H         1 UNK         0.0600 
    232 H232       -1.8169  -26.2675  -54.4865 H         1 UNK         0.0600 
    233 H233       -1.6804  -24.5279  -54.2354 H         1 UNK         0.0600 
    234 H234       -0.6757  -25.3270  -55.4324 H         1 UNK         0.0600 
    235 H235       -4.4612  -23.1889  -56.2451 H         1 UNK         0.3000 
    236 H236       -4.6576  -21.0909  -56.8924 H         1 UNK         0.0600 
    237 H237       -2.7497  -21.8672  -59.1611 H         1 UNK         0.0600 
    238 H238       -4.4782  -22.2144  -59.1249 H         1 UNK         0.0600 
    239 H239       -3.9176  -20.5528  -59.1834 H         1 UNK         0.0600 
    240 H240       -2.3047  -21.7271  -55.1048 H         1 UNK         0.3000 
    241 H241       -0.6991  -20.7346  -53.9901 H         1 UNK         0.0600 
    242 H242        1.4308  -21.4304  -57.1105 H         1 UNK         0.3800 
    243 H243       -0.1933  -21.9767  -56.7763 H         1 UNK         0.3800 
    244 H244       -2.2658  -18.6090  -54.2957 H         1 UNK         0.0800 
    245 H245       -0.9884  -18.0190  -55.3228 H         1 UNK         0.0800 
    246 H246       -1.7120  -16.2467  -53.5020 H         1 UNK         0.0800 
    247 H247       -0.4575  -15.8606  -52.3592 H         1 UNK         0.0800 
@<TRIPOS>BOND
     1    1    2 1    
     2    1  127 1    
     3    1  128 1    
     4    1  129 1    
     5    2    3 2    
     6    2    4 am   BACKBONE|DICT|INTERRES
     7    4    5 1    
     8    4  130 1    
     9    5    6 1    
    10    5   65 1    
    11    5  131 1    
    12    6    7 1    
    13    6  132 1    
    14    6  133 1    
    15    7    8 1    
    16    8    9 1    
    17    8  134 1    
    18    8  135 1    
    19    9   10 ar   
    20    9   14 ar   
    21   10   11 ar   
    22   10  136 1    
    23   11   12 ar   
    24   11  126 1    
    25   12   13 ar   
    26   12  137 1    
    27   13   14 ar   
    28   13   15 1    
    29   14  138 1    
    30   15   16 1    
    31   15  139 1    
    32   15  140 1    
    33   16   17 1    
    34   17   18 1    
    35   17  141 1    
    36   17  142 1    
    37   18   19 1    
    38   18   67 1    
    39   18  143 1    
    40   19   20 am   BACKBONE|DICT|INTERRES
    41   19  144 1    
    42   20   21 2    
    43   20   22 1    
    44   22   23 1    
    45   22   24 1    
    46   22  145 1    
    47   23  146 1    
    48   23  147 1    
    49   23  148 1    
    50   24   25 am   BACKBONE|DICT|INTERRES
    51   24  149 1    
    52   25   26 2    
    53   25   27 1    
    54   27   28 1    
    55   27   29 1    
    56   27  150 1    
    57   28  151 1    
    58   28  152 1    
    59   28  153 1    
    60   29   30 am   BACKBONE|DICT|INTERRES
    61   29  154 1    
    62   30   31 2    
    63   30   32 1    
    64   32   33 1    
    65   32   34 1    
    66   32  155 1    
    67   33  156 1    
    68   33  157 1    
    69   33  158 1    
    70   34   35 am   BACKBONE|DICT|INTERRES
    71   34  159 1    
    72   35   36 2    
    73   35   37 1    
    74   37   38 1    
    75   37   39 1    
    76   37  160 1    
    77   38  161 1    
    78   38  162 1    
    79   38  163 1    
    80   39   40 am   BACKBONE|DICT|INTERRES
    81   39  164 1    
    82   40   41 2    
    83   40   42 1    
    84   42   43 1    
    85   42   44 1    
    86   42  165 1    
    87   43  166 1    
    88   43  167 1    
    89   43  168 1    
    90   44   45 am   BACKBONE|DICT|INTERRES
    91   44  169 1    
    92   45   46 2    
    93   45   47 1    
    94   47   48 1    
    95   47   49 1    
    96   47  170 1    
    97   48  171 1    
    98   48  172 1    
    99   48  173 1    
   100   49   50 am   BACKBONE|DICT|INTERRES
   101   49  174 1    
   102   50   51 2    
   103   50   52 1    
   104   52   53 1    
   105   52   54 1    
   106   52  175 1    
   107   53  176 1    
   108   53  177 1    
   109   53  178 1    
   110   54   55 am   BACKBONE|DICT|INTERRES
   111   54  179 1    
   112   55   56 2    
   113   55   57 1    
   114   57   58 1    
   115   57   59 1    
   116   57  180 1    
   117   58  181 1    
   118   58  182 1    
   119   58  183 1    
   120   59   60 am   BACKBONE|DICT|INTERRES
   121   59  184 1    
   122   60   61 2    
   123   60   62 1    
   124   62   63 1    
   125   62   64 1    
   126   62  185 1    
   127   63  186 1    
   128   63  187 1    
   129   63  188 1    
   130   64   65 am   BACKBONE|DICT|INTERRES
   131   64  189 1    
   132   65   66 2    
   133   67   68 2    
   134   67   69 am   BACKBONE|DICT|INTERRES
   135   69   70 1    
   136   69  190 1    
   137   70   71 1    
   138   70   72 1    
   139   70  191 1    
   140   71  192 1    
   141   71  193 1    
   142   71  194 1    
   143   72   73 2    
   144   72   74 am   BACKBONE|DICT|INTERRES
   145   74   75 1    
   146   74  195 1    
   147   75   76 1    
   148   75   77 1    
   149   75  196 1    
   150   76  197 1    
   151   76  198 1    
   152   76  199 1    
   153   77   78 2    
   154   77   79 am   BACKBONE|DICT|INTERRES
   155   79   80 1    
   156   79  200 1    
   157   80   81 1    
   158   80   82 1    
   159   80  201 1    
   160   81  202 1    
   161   81  203 1    
   162   81  204 1    
   163   82   83 2    
   164   82   84 am   BACKBONE|DICT|INTERRES
   165   84   85 1    
   166   84  205 1    
   167   85   86 1    
   168   85   87 1    
   169   85  206 1    
   170   86  207 1    
   171   86  208 1    
   172   86  209 1    
   173   87   88 2    
   174   87   89 am   BACKBONE|DICT|INTERRES
   175   89   90 1    
   176   89  210 1    
   177   90   91 1    
   178   90   92 1    
   179   90  211 1    
   180   91  212 1    
   181   91  213 1    
   182   91  214 1    
   183   92   93 2    
   184   92   94 am   BACKBONE|DICT|INTERRES
   185   94   95 1    
   186   94  215 1    
   187   95   96 1    
   188   95   97 1    
   189   95  216 1    
   190   96  217 1    
   191   96  218 1    
   192   96  219 1    
   193   97   98 2    
   194   97   99 am   BACKBONE|DICT|INTERRES
   195   99  100 1    
   196   99  220 1    
   197  100  101 1    
   198  100  102 1    
   199  100  221 1    
   200  101  222 1    
   201  101  223 1    
   202  101  224 1    
   203  102  103 2    
   204  102  104 am   BACKBONE|DICT|INTERRES
   205  104  105 1    
   206  104  225 1    
   207  105  106 1    
   208  105  107 1    
   209  105  226 1    
   210  106  227 1    
   211  106  228 1    
   212  106  229 1    
   213  107  108 2    
   214  107  109 am   BACKBONE|DICT|INTERRES
   215  109  110 1    
   216  109  230 1    
   217  110  111 1    
   218  110  112 1    
   219  110  231 1    
   220  111  232 1    
   221  111  233 1    
   222  111  234 1    
   223  112  113 2    
   224  112  114 am   BACKBONE|DICT|INTERRES
   225  114  115 1    
   226  114  235 1    
   227  115  116 1    
   228  115  117 1    
   229  115  236 1    
   230  116  237 1    
   231  116  238 1    
   232  116  239 1    
   233  117  118 2    
   234  117  119 am   BACKBONE|DICT|INTERRES
   235  119  120 1    
   236  119  240 1    
   237  120  121 1    
   238  120  124 1    
   239  120  241 1    
   240  121  122 am   BACKBONE|DICT|INTERRES
   241  121  123 2    
   242  122  242 1    
   243  122  243 1    
   244  124  125 1    
   245  124  244 1    
   246  124  245 1    
   247  125  126 1    
   248  126  246 1    
   249  126  247 1    
@<TRIPOS>SUBSTRUCTURE
     1 UNK         1 GROUP             0       ****    0 ROOT    
