@<TRIPOS>MOLECULE
3R540
247   249    1
SMALL
USER_CHARGES


@<TRIPOS>ATOM
      1 CA          3.6121  -10.2699  -49.9362 C.3       0 UNK        -0.1800 
      2 C           3.5365  -11.6545  -49.3087 C.2       0 UNK         0.5000 
      3 O           2.5942  -11.9371  -48.5711 O.2       0 UNK        -0.5000 
      4 N           4.5241  -12.5121  -49.6033 N.am      1 UNK        -0.5000 
      5 CA          4.6571  -13.8898  -49.1006 C.3       1 UNK         0.1400 
      6 C6          3.5034  -14.8398  -49.5365 C.3       23 UNK        -0.0398 
      7 S7          3.2406  -14.8290  -51.3443 S.3       23 UNK        -0.2404 
      8 C8          4.1022  -16.3444  -51.8656 C.3       23 UNK        -0.0205 
      9 C9          3.2222  -17.5779  -51.7295 C.ar      23 UNK        -0.0193 
     10 C10         2.1538  -17.7696  -52.6105 C.ar      23 UNK        -0.1150 
     11 C11         1.3527  -18.9103  -52.5184 C.ar      23 UNK        -0.0193 
     12 C12         1.6430  -19.8776  -51.5535 C.ar      23 UNK        -0.1150 
     13 C13         2.6975  -19.6917  -50.6549 C.ar      23 UNK        -0.0193 
     14 C14         3.4833  -18.5377  -50.7466 C.ar      23 UNK        -0.1150 
     15 C15         2.9942  -20.7377  -49.5904 C.3       23 UNK        -0.0205 
     16 S16         1.9858  -20.4796  -48.0964 S.3       23 UNK        -0.2404 
     17 C17         0.3993  -21.2667  -48.5517 C.3       23 UNK        -0.0398 
     18 CA         -0.0081  -22.3672  -47.5454 C.3       11 UNK         0.1400 
     19 N          -0.2026  -21.8551  -46.1872 N.am      11 UNK        -0.5000 
     20 C          -0.2186  -22.6308  -45.0962 C.2       10 UNK         0.5000 
     21 O          -0.0895  -23.8545  -45.1313 O.2       10 UNK        -0.5000 
     22 CA         -0.4542  -21.9355  -43.7467 C.3       10 UNK         0.1400 
     23 CB          0.8326  -21.2561  -43.2556 C.3       10 UNK        -0.1800 
     24 N          -1.5443  -20.9600  -43.7706 N.am      10 UNK        -0.5000 
     25 C          -2.8310  -21.2504  -44.0072 C.2       9 UNK         0.5000 
     26 O          -3.2276  -22.3668  -44.3402 O.2       9 UNK        -0.5000 
     27 CA         -3.8414  -20.1033  -43.8479 C.3       9 UNK         0.1400 
     28 CB         -4.0409  -19.7492  -42.3658 C.3       9 UNK        -0.1800 
     29 N          -3.4036  -18.9159  -44.5752 N.am      9 UNK        -0.5000 
     30 C          -3.7403  -18.6397  -45.8422 C.2       8 UNK         0.5000 
     31 O          -4.5247  -19.3177  -46.5048 O.2       8 UNK        -0.5000 
     32 CA         -3.0811  -17.4062  -46.4930 C.3       8 UNK         0.1400 
     33 CB         -3.9741  -16.1692  -46.3109 C.3       8 UNK        -0.1800 
     34 N          -1.7392  -17.1031  -45.9890 N.am      8 UNK        -0.5000 
     35 C          -0.6971  -17.9464  -46.0083 C.2       7 UNK         0.5000 
     36 O          -0.7476  -19.0842  -46.4704 O.2       7 UNK        -0.5000 
     37 CA          0.5956  -17.4709  -45.3248 C.3       7 UNK         0.1400 
     38 CB          1.4197  -16.5894  -46.2733 C.3       7 UNK        -0.1800 
     39 N           0.3540  -16.7561  -44.0695 N.am      7 UNK        -0.5000 
     40 C          -0.2958  -17.2497  -43.0045 C.2       6 UNK         0.5000 
     41 O          -0.7885  -18.3763  -42.9613 O.2       6 UNK        -0.5000 
     42 CA         -0.4684  -16.3080  -41.8043 C.3       6 UNK         0.1400 
     43 CB          0.8319  -16.1985  -40.9936 C.3       6 UNK        -0.1800 
     44 N          -0.8956  -14.9830  -42.2467 N.am      6 UNK        -0.5000 
     45 C          -2.1581  -14.6752  -42.5745 C.2       5 UNK         0.5000 
     46 O          -3.1047  -15.4538  -42.4563 O.2       5 UNK        -0.5000 
     47 CA         -2.4071  -13.2663  -43.1450 C.3       5 UNK         0.1400 
     48 CB         -2.7415  -12.2798  -42.0162 C.3       5 UNK        -0.1800 
     49 N          -1.2787  -12.7448  -43.9183 N.am      5 UNK        -0.5000 
     50 C          -0.8648  -13.2446  -45.0909 C.2       4 UNK         0.5000 
     51 O          -1.3845  -14.2125  -45.6455 O.2       4 UNK        -0.5000 
     52 CA          0.3614  -12.5670  -45.7301 C.3       4 UNK         0.1400 
     53 CB         -0.0720  -11.2898  -46.4668 C.3       4 UNK        -0.1800 
     54 N           1.4345  -12.2350  -44.7864 N.am      4 UNK        -0.5000 
     55 C           2.0138  -13.0768  -43.9201 C.2       3 UNK         0.5000 
     56 O           1.6486  -14.2395  -43.7413 O.2       3 UNK        -0.5000 
     57 CA          3.2271  -12.5333  -43.1454 C.3       3 UNK         0.1400 
     58 CB          3.3396  -13.1530  -41.7417 C.3       3 UNK        -0.1800 
     59 N           4.4520  -12.8169  -43.8881 N.am      3 UNK        -0.5000 
     60 C           4.8586  -12.1511  -44.9757 C.2       2 UNK         0.5000 
     61 O           4.2965  -11.1395  -45.4008 O.2       2 UNK        -0.5000 
     62 CA          6.1003  -12.6833  -45.7212 C.3       2 UNK         0.1400 
     63 CB          6.8041  -13.8788  -45.0378 C.3       2 UNK        -0.1800 
     64 N           5.7763  -12.9840  -47.1188 N.am      2 UNK        -0.5000 
     65 C           4.9109  -13.9047  -47.5749 C.2       1 UNK         0.5000 
     66 O           4.3290  -14.7171  -46.8555 O.2       1 UNK        -0.5000 
     67 C          -1.2479  -23.1369  -48.0371 C.2       11 UNK         0.5000 
     68 O          -1.0949  -24.0850  -48.8070 O.2       11 UNK        -0.5000 
     69 N          -2.4435  -22.7471  -47.5700 N.am      12 UNK        -0.5000 
     70 CA         -3.6944  -23.4543  -47.8414 C.3       12 UNK         0.1400 
     71 CB         -4.8957  -22.5678  -47.4851 C.3       12 UNK        -0.1800 
     72 C          -3.7520  -24.8099  -47.1168 C.2       12 UNK         0.5000 
     73 O          -4.1277  -25.8081  -47.7304 O.2       12 UNK        -0.5000 
     74 N          -3.3228  -24.8354  -45.8466 N.am      13 UNK        -0.5000 
     75 CA         -3.1903  -26.0466  -45.0330 C.3       13 UNK         0.1400 
     76 CB         -2.8713  -25.6554  -43.5822 C.3       13 UNK        -0.1800 
     77 C          -2.1329  -27.0245  -45.5820 C.2       13 UNK         0.5000 
     78 O          -2.3535  -28.2357  -45.5576 O.2       13 UNK        -0.5000 
     79 N          -1.0230  -26.4808  -46.1005 N.am      14 UNK        -0.5000 
     80 CA          0.0444  -27.2281  -46.7709 C.3       14 UNK         0.1400 
     81 CB          1.3024  -26.3469  -46.8270 C.3       14 UNK        -0.1800 
     82 C          -0.3276  -27.7086  -48.1900 C.2       14 UNK         0.5000 
     83 O           0.4016  -28.5267  -48.7517 O.2       14 UNK        -0.5000 
     84 N          -1.4257  -27.1783  -48.7503 N.am      15 UNK        -0.5000 
     85 CA         -1.9344  -27.3901  -50.1109 C.3       15 UNK         0.1400 
     86 CB         -2.3358  -28.8626  -50.3358 C.3       15 UNK        -0.1800 
     87 C          -0.9984  -26.8421  -51.2118 C.2       15 UNK         0.5000 
     88 O          -1.0518  -27.3008  -52.3542 O.2       15 UNK        -0.5000 
     89 N          -0.1768  -25.8463  -50.8556 N.am      16 UNK        -0.5000 
     90 CA          0.6389  -25.0530  -51.7763 C.3       16 UNK         0.1400 
     91 CB          1.8287  -24.4676  -51.0001 C.3       16 UNK        -0.1800 
     92 C          -0.1875  -23.9290  -52.4316 C.2       16 UNK         0.5000 
     93 O           0.1461  -23.4793  -53.5278 O.2       16 UNK        -0.5000 
     94 N          -1.2557  -23.5139  -51.7456 N.am      17 UNK        -0.5000 
     95 CA         -2.2858  -22.5909  -52.1975 C.3       17 UNK         0.1400 
     96 CB         -2.2361  -21.3523  -51.2890 C.3       17 UNK        -0.1800 
     97 C          -3.6525  -23.2781  -52.0554 C.2       17 UNK         0.5000 
     98 O          -3.7641  -24.2803  -51.3436 O.2       17 UNK        -0.5000 
     99 N          -4.6830  -22.6979  -52.6793 N.am      18 UNK        -0.5000 
    100 CA        -6.0749  -22.9415  -52.3056 C.3       18 UNK         0.1400 
    101 CB        -6.9753  -22.7554  -53.5377 C.3       18 UNK        -0.1800 
    102 C         -6.4763  -21.9577  -51.1915 C.2       18 UNK         0.5000 
    103 O         -5.8208  -20.9269  -51.0073 O.2       18 UNK        -0.5000 
    104 N         -7.5896  -22.2552  -50.5086 N.am      19 UNK        -0.5000 
    105 CA        -8.1765  -21.4364  -49.4374 C.3       19 UNK         0.1400 
    106 CB        -9.3581  -22.2011  -48.8217 C.3       19 UNK        -0.1800 
    107 C         -8.6116  -20.0188  -49.8725 C.2       19 UNK         0.5000 
    108 O         -8.8289  -19.1609  -49.0167 O.2       19 UNK        -0.5000 
    109 N         -8.7031  -19.7914  -51.1900 N.am      20 UNK        -0.5000 
    110 CA        -8.9032  -18.4888  -51.8224 C.3       20 UNK         0.1400 
    111 CB        -9.2240  -18.7130  -53.3081 C.3       20 UNK        -0.1800 
    112 C         -7.7100  -17.5201  -51.6582 C.2       20 UNK         0.5000 
    113 O         -7.9080  -16.3183  -51.8382 O.2       20 UNK        -0.5000 
    114 N         -6.5203  -18.0432  -51.3091 N.am      21 UNK        -0.5000 
    115 CA        -5.2808  -17.3163  -51.0055 C.3       21 UNK         0.1400 
    116 CB        -5.4539  -16.4903  -49.7131 C.3       21 UNK        -0.1800 
    117 C         -4.7818  -16.4625  -52.1995 C.2       21 UNK         0.5000 
    118 O         -4.8852  -15.2368  -52.1490 O.2       21 UNK        -0.5000 
    119 N         -4.2598  -17.0533  -53.2845 N.am      22 UNK        -0.5000 
    120 CA        -3.9919  -18.4856  -53.5151 C.3       22 UNK         0.1400 
    121 C         -5.0162  -19.1795  -54.4515 C.2       22 UNK         0.5000 
    122 N         -6.0052  -18.4822  -54.9951 N.am      22 UNK        -0.7600 
    123 O         -4.9143  -20.3832  -54.6696 O.2       22 UNK        -0.5000 
    124 C124       -2.5466  -18.7132  -54.0320 C.3       23 UNK        -0.0398 
    125 S125       -1.2834  -18.1849  -52.8300 S.3       23 UNK        -0.2404 
    126 C126        0.1675  -19.0907  -53.4516 C.3       23 UNK        -0.0205 
    127 H127        3.6525   -9.5083  -49.1575 H         1 UNK         0.0600 
    128 H128        2.7287  -10.0874  -50.5480 H         1 UNK         0.0600 
    129 H129        4.4931  -10.1576  -50.5686 H         1 UNK         0.0600 
    130 H130        5.2555  -12.2131  -50.2329 H         1 UNK         0.3000 
    131 H131        5.5730  -14.2798  -49.5473 H         1 UNK         0.0600 
    132 H132        3.7028  -15.8619  -49.2104 H         1 UNK         0.0800 
    133 H133        2.5665  -14.5534  -49.0565 H         1 UNK         0.0800 
    134 H134        4.3947  -16.2356  -52.9109 H         1 UNK         0.0800 
    135 H135        5.0302  -16.4569  -51.3027 H         1 UNK         0.0800 
    136 H136        1.9385  -17.0226  -53.3618 H         1 UNK         0.1150 
    137 H137        1.0399  -20.7709  -51.4996 H         1 UNK         0.1150 
    138 H138        4.3036  -18.3924  -50.0578 H         1 UNK         0.1150 
    139 H139        2.8383  -21.7420  -49.9854 H         1 UNK         0.0800 
    140 H140        4.0471  -20.6879  -49.3091 H         1 UNK         0.0800 
    141 H141        0.4850  -21.6982  -49.5482 H         1 UNK         0.0800 
    142 H142       -0.3684  -20.4952  -48.6243 H         1 UNK         0.0800 
    143 H143        0.8113  -23.0880  -47.5107 H         1 UNK         0.0600 
    144 H144       -0.3438  -20.8501  -46.1043 H         1 UNK         0.3000 
    145 H145       -0.7238  -22.7081  -43.0237 H         1 UNK         0.0600 
    146 H146        0.6988  -20.8302  -42.2610 H         1 UNK         0.0600 
    147 H147        1.6545  -21.9708  -43.1964 H         1 UNK         0.0600 
    148 H148        1.1429  -20.4527  -43.9238 H         1 UNK         0.0600 
    149 H149       -1.2978  -20.0082  -43.5051 H         1 UNK         0.3000 
    150 H150       -4.8021  -20.4460  -44.2386 H         1 UNK         0.0600 
    151 H151       -4.8011  -18.9770  -42.2467 H         1 UNK         0.0600 
    152 H152       -3.1222  -19.3844  -41.9051 H         1 UNK         0.0600 
    153 H153       -4.3700  -20.6203  -41.7979 H         1 UNK         0.0600 
    154 H154       -2.7148  -18.3326  -44.1181 H         1 UNK         0.3000 
    155 H155       -2.9921  -17.6122  -47.5615 H         1 UNK         0.0600 
    156 H156       -4.9959  -16.3670  -46.6366 H         1 UNK         0.0600 
    157 H157       -4.0176  -15.8576  -45.2664 H         1 UNK         0.0600 
    158 H158       -3.6047  -15.3273  -46.8965 H         1 UNK         0.0600 
    159 H159       -1.5944  -16.1627  -45.6322 H         1 UNK         0.3000 
    160 H160        1.1889  -18.3555  -45.0882 H         1 UNK         0.0600 
    161 H161        2.3621  -16.2925  -45.8130 H         1 UNK         0.0600 
    162 H162        0.8831  -15.6821  -46.5498 H         1 UNK         0.0600 
    163 H163        1.6607  -17.1232  -47.1938 H         1 UNK         0.0600 
    164 H164        0.7454  -15.8188  -44.0031 H         1 UNK         0.3000 
    165 H165       -1.2348  -16.7298  -41.1502 H         1 UNK         0.0600 
    166 H166        0.7090  -15.5341  -40.1383 H         1 UNK         0.0600 
    167 H167        1.1302  -17.1742  -40.6081 H         1 UNK         0.0600 
    168 H168        1.6578  -15.8207  -41.5956 H         1 UNK         0.0600 
    169 H169       -0.1630  -14.3158  -42.4483 H         1 UNK         0.3000 
    170 H170       -3.2706  -13.3296  -43.8108 H         1 UNK         0.0600 
    171 H171       -1.9041  -12.1555  -41.3284 H         1 UNK         0.0600 
    172 H172       -2.9996  -11.2979  -42.4135 H         1 UNK         0.0600 
    173 H173       -3.5958  -12.6279  -41.4339 H         1 UNK         0.0600 
    174 H174       -0.7849  -11.9540  -43.5313 H         1 UNK         0.3000 
    175 H175        0.7812  -13.2582  -46.4633 H         1 UNK         0.0600 
    176 H176        0.7686  -10.8209  -46.9776 H         1 UNK         0.0600 
    177 H177       -0.4977  -10.5539  -45.7837 H         1 UNK         0.0600 
    178 H178       -0.8260  -11.5127  -47.2228 H         1 UNK         0.0600 
    179 H179        1.8546  -11.3230  -44.9034 H         1 UNK         0.3000 
    180 H180        3.1132  -11.4535  -43.0276 H         1 UNK         0.0600 
    181 H181        3.5316  -14.2256  -41.7853 H         1 UNK         0.0600 
    182 H182        2.4198  -13.0060  -41.1741 H         1 UNK         0.0600 
    183 H183        4.1488  -12.6934  -41.1740 H         1 UNK         0.0600 
    184 H184        4.9446  -13.6600  -43.6320 H         1 UNK         0.3000 
    185 H185        6.8129  -11.8576  -45.7436 H         1 UNK         0.0600 
    186 H186        6.1575  -14.7524  -44.9521 H         1 UNK         0.0600 
    187 H187        7.6884  -14.1799  -45.5995 H         1 UNK         0.0600 
    188 H188        7.1400  -13.6144  -44.0343 H         1 UNK         0.0600 
    189 H189        6.1614  -12.3396  -47.7946 H         1 UNK         0.3000 
    190 H190       -2.4844  -21.9785  -46.9163 H         1 UNK         0.3000 
    191 H191       -3.7430  -23.6531  -48.9107 H         1 UNK         0.0600 
    192 H192       -4.8926  -21.6509  -48.0752 H         1 UNK         0.0600 
    193 H193       -5.8340  -23.0836  -47.6928 H         1 UNK         0.0600 
    194 H194       -4.9003  -22.2882  -46.4318 H         1 UNK         0.0600 
    195 H195       -3.0840  -23.9575  -45.3928 H         1 UNK         0.3000 
    196 H196       -4.1534  -26.5610  -45.0423 H         1 UNK         0.0600 
    197 H197       -2.7907  -26.5387  -42.9475 H         1 UNK         0.0600 
    198 H198       -3.6551  -25.0238  -43.1635 H         1 UNK         0.0600 
    199 H199       -1.9299  -25.1103  -43.5091 H         1 UNK         0.0600 
    200 H200       -0.8804  -25.4807  -45.9983 H         1 UNK         0.3000 
    201 H201        0.2735  -28.1132  -46.1742 H         1 UNK         0.0600 
    202 H202        1.6061  -26.0262  -45.8304 H         1 UNK         0.0600 
    203 H203        1.1392  -25.4553  -47.4324 H         1 UNK         0.0600 
    204 H204        2.1425  -26.8889  -47.2630 H         1 UNK         0.0600 
    205 H205       -1.9506  -26.5100  -48.2014 H         1 UNK         0.3000 
    206 H206       -2.8448  -26.7924  -50.1777 H         1 UNK         0.0600 
    207 H207       -2.9956  -29.2160  -49.5433 H         1 UNK         0.0600 
    208 H208       -2.8711  -28.9814  -51.2785 H         1 UNK         0.0600 
    209 H209       -1.4675  -29.5209  -50.3700 H         1 UNK         0.0600 
    210 H210       -0.2631  -25.4862  -49.9107 H         1 UNK         0.3000 
    211 H211        1.0246  -25.6968  -52.5694 H         1 UNK         0.0600 
    212 H212        1.4989  -23.8513  -50.1638 H         1 UNK         0.0600 
    213 H213        2.4509  -23.8459  -51.6453 H         1 UNK         0.0600 
    214 H214        2.4629  -25.2589  -50.5999 H         1 UNK         0.0600 
    215 H215       -1.4652  -23.9783  -50.8687 H         1 UNK         0.3000 
    216 H216       -2.1333  -22.3029  -53.2396 H         1 UNK         0.0600 
    217 H217       -2.9915  -20.6252  -51.5736 H         1 UNK         0.0600 
    218 H218       -1.2691  -20.8564  -51.3414 H         1 UNK         0.0600 
    219 H219       -2.4252  -21.6074  -50.2469 H         1 UNK         0.0600 
    220 H220       -4.5308  -21.8752  -53.2523 H         1 UNK         0.3000 
    221 H221       -6.1966  -23.9629  -51.9386 H         1 UNK         0.0600 
    222 H222       -7.0099  -21.7165  -53.8659 H         1 UNK         0.0600 
    223 H223       -6.6276  -23.3597  -54.3758 H         1 UNK         0.0600 
    224 H224       -7.9998  -23.0608  -53.3225 H         1 UNK         0.0600 
    225 H225       -8.0833  -23.1077  -50.7321 H         1 UNK         0.3000 
    226 H226       -7.4149  -21.3071  -48.6662 H         1 UNK         0.0600 
    227 H227       -9.0400  -23.1642  -48.4219 H         1 UNK         0.0600 
    228 H228       -9.8013  -21.6408  -47.9974 H         1 UNK         0.0600 
    229 H229      -10.1445  -22.3831  -49.5552 H         1 UNK         0.0600 
    230 H230       -8.5207  -20.5656  -51.8100 H         1 UNK         0.3000 
    231 H231       -9.7686  -18.0157  -51.3538 H         1 UNK         0.0600 
    232 H232       -8.4263  -19.2581  -53.8126 H         1 UNK         0.0600 
    233 H233       -9.3581  -17.7648  -53.8305 H         1 UNK         0.0600 
    234 H234      -10.1458  -19.2821  -53.4296 H         1 UNK         0.0600 
    235 H235       -6.4569  -19.0516  -51.2065 H         1 UNK         0.3000 
    236 H236       -4.5165  -18.0555  -50.7689 H         1 UNK         0.0600 
    237 H237       -5.7549  -17.1280  -48.8816 H         1 UNK         0.0600 
    238 H238       -4.5168  -16.0088  -49.4316 H         1 UNK         0.0600 
    239 H239       -6.2041  -15.7064  -49.8201 H         1 UNK         0.0600 
    240 H240       -3.9687  -16.4533  -54.0415 H         1 UNK         0.3000 
    241 H241       -4.0854  -19.0351  -52.5846 H         1 UNK         0.0600 
    242 H242       -6.6541  -18.9456  -55.6107 H         1 UNK         0.3800 
    243 H243       -6.0978  -17.4944  -54.8187 H         1 UNK         0.3800 
    244 H244       -2.3787  -19.7700  -54.2479 H         1 UNK         0.0800 
    245 H245       -2.3834  -18.1793  -54.9696 H         1 UNK         0.0800 
    246 H246        0.4207  -18.7327  -54.4507 H         1 UNK         0.0800 
    247 H247       -0.0729  -20.1507  -53.5521 H         1 UNK         0.0800 
@<TRIPOS>BOND
     1    1    2 1    
     2    1  127 1    
     3    1  128 1    
     4    1  129 1    
     5    2    3 2    
     6    2    4 am   BACKBONE|DICT|INTERRES
     7    4    5 1    
     8    4  130 1    
     9    5    6 1    
    10    5   65 1    
    11    5  131 1    
    12    6    7 1    
    13    6  132 1    
    14    6  133 1    
    15    7    8 1    
    16    8    9 1    
    17    8  134 1    
    18    8  135 1    
    19    9   10 ar   
    20    9   14 ar   
    21   10   11 ar   
    22   10  136 1    
    23   11   12 ar   
    24   11  126 1    
    25   12   13 ar   
    26   12  137 1    
    27   13   14 ar   
    28   13   15 1    
    29   14  138 1    
    30   15   16 1    
    31   15  139 1    
    32   15  140 1    
    33   16   17 1    
    34   17   18 1    
    35   17  141 1    
    36   17  142 1    
    37   18   19 1    
    38   18   67 1    
    39   18  143 1    
    40   19   20 am   BACKBONE|DICT|INTERRES
    41   19  144 1    
    42   20   21 2    
    43   20   22 1    
    44   22   23 1    
    45   22   24 1    
    46   22  145 1    
    47   23  146 1    
    48   23  147 1    
    49   23  148 1    
    50   24   25 am   BACKBONE|DICT|INTERRES
    51   24  149 1    
    52   25   26 2    
    53   25   27 1    
    54   27   28 1    
    55   27   29 1    
    56   27  150 1    
    57   28  151 1    
    58   28  152 1    
    59   28  153 1    
    60   29   30 am   BACKBONE|DICT|INTERRES
    61   29  154 1    
    62   30   31 2    
    63   30   32 1    
    64   32   33 1    
    65   32   34 1    
    66   32  155 1    
    67   33  156 1    
    68   33  157 1    
    69   33  158 1    
    70   34   35 am   BACKBONE|DICT|INTERRES
    71   34  159 1    
    72   35   36 2    
    73   35   37 1    
    74   37   38 1    
    75   37   39 1    
    76   37  160 1    
    77   38  161 1    
    78   38  162 1    
    79   38  163 1    
    80   39   40 am   BACKBONE|DICT|INTERRES
    81   39  164 1    
    82   40   41 2    
    83   40   42 1    
    84   42   43 1    
    85   42   44 1    
    86   42  165 1    
    87   43  166 1    
    88   43  167 1    
    89   43  168 1    
    90   44   45 am   BACKBONE|DICT|INTERRES
    91   44  169 1    
    92   45   46 2    
    93   45   47 1    
    94   47   48 1    
    95   47   49 1    
    96   47  170 1    
    97   48  171 1    
    98   48  172 1    
    99   48  173 1    
   100   49   50 am   BACKBONE|DICT|INTERRES
   101   49  174 1    
   102   50   51 2    
   103   50   52 1    
   104   52   53 1    
   105   52   54 1    
   106   52  175 1    
   107   53  176 1    
   108   53  177 1    
   109   53  178 1    
   110   54   55 am   BACKBONE|DICT|INTERRES
   111   54  179 1    
   112   55   56 2    
   113   55   57 1    
   114   57   58 1    
   115   57   59 1    
   116   57  180 1    
   117   58  181 1    
   118   58  182 1    
   119   58  183 1    
   120   59   60 am   BACKBONE|DICT|INTERRES
   121   59  184 1    
   122   60   61 2    
   123   60   62 1    
   124   62   63 1    
   125   62   64 1    
   126   62  185 1    
   127   63  186 1    
   128   63  187 1    
   129   63  188 1    
   130   64   65 am   BACKBONE|DICT|INTERRES
   131   64  189 1    
   132   65   66 2    
   133   67   68 2    
   134   67   69 am   BACKBONE|DICT|INTERRES
   135   69   70 1    
   136   69  190 1    
   137   70   71 1    
   138   70   72 1    
   139   70  191 1    
   140   71  192 1    
   141   71  193 1    
   142   71  194 1    
   143   72   73 2    
   144   72   74 am   BACKBONE|DICT|INTERRES
   145   74   75 1    
   146   74  195 1    
   147   75   76 1    
   148   75   77 1    
   149   75  196 1    
   150   76  197 1    
   151   76  198 1    
   152   76  199 1    
   153   77   78 2    
   154   77   79 am   BACKBONE|DICT|INTERRES
   155   79   80 1    
   156   79  200 1    
   157   80   81 1    
   158   80   82 1    
   159   80  201 1    
   160   81  202 1    
   161   81  203 1    
   162   81  204 1    
   163   82   83 2    
   164   82   84 am   BACKBONE|DICT|INTERRES
   165   84   85 1    
   166   84  205 1    
   167   85   86 1    
   168   85   87 1    
   169   85  206 1    
   170   86  207 1    
   171   86  208 1    
   172   86  209 1    
   173   87   88 2    
   174   87   89 am   BACKBONE|DICT|INTERRES
   175   89   90 1    
   176   89  210 1    
   177   90   91 1    
   178   90   92 1    
   179   90  211 1    
   180   91  212 1    
   181   91  213 1    
   182   91  214 1    
   183   92   93 2    
   184   92   94 am   BACKBONE|DICT|INTERRES
   185   94   95 1    
   186   94  215 1    
   187   95   96 1    
   188   95   97 1    
   189   95  216 1    
   190   96  217 1    
   191   96  218 1    
   192   96  219 1    
   193   97   98 2    
   194   97   99 am   BACKBONE|DICT|INTERRES
   195   99  100 1    
   196   99  220 1    
   197  100  101 1    
   198  100  102 1    
   199  100  221 1    
   200  101  222 1    
   201  101  223 1    
   202  101  224 1    
   203  102  103 2    
   204  102  104 am   BACKBONE|DICT|INTERRES
   205  104  105 1    
   206  104  225 1    
   207  105  106 1    
   208  105  107 1    
   209  105  226 1    
   210  106  227 1    
   211  106  228 1    
   212  106  229 1    
   213  107  108 2    
   214  107  109 am   BACKBONE|DICT|INTERRES
   215  109  110 1    
   216  109  230 1    
   217  110  111 1    
   218  110  112 1    
   219  110  231 1    
   220  111  232 1    
   221  111  233 1    
   222  111  234 1    
   223  112  113 2    
   224  112  114 am   BACKBONE|DICT|INTERRES
   225  114  115 1    
   226  114  235 1    
   227  115  116 1    
   228  115  117 1    
   229  115  236 1    
   230  116  237 1    
   231  116  238 1    
   232  116  239 1    
   233  117  118 2    
   234  117  119 am   BACKBONE|DICT|INTERRES
   235  119  120 1    
   236  119  240 1    
   237  120  121 1    
   238  120  124 1    
   239  120  241 1    
   240  121  122 am   BACKBONE|DICT|INTERRES
   241  121  123 2    
   242  122  242 1    
   243  122  243 1    
   244  124  125 1    
   245  124  244 1    
   246  124  245 1    
   247  125  126 1    
   248  126  246 1    
   249  126  247 1    
@<TRIPOS>SUBSTRUCTURE
     1 UNK         1 GROUP             0       ****    0 ROOT    
