@<TRIPOS>MOLECULE
3R540
247   249    1
SMALL
USER_CHARGES


@<TRIPOS>ATOM
      1 CA         -4.2003  -11.4638  -51.5485 C.3       0 UNK        -0.1800 
      2 C          -3.3415  -12.6412  -51.1083 C.2       0 UNK         0.5000 
      3 O          -2.3306  -12.9295  -51.7465 O.2       0 UNK        -0.5000 
      4 N          -3.7465  -13.3175  -50.0259 N.am      1 UNK        -0.5000 
      5 CA         -3.0402  -14.4430  -49.4078 C.3       1 UNK         0.1400 
      6 C6         -3.9802  -15.2176  -48.4434 C.3       23 UNK        -0.0398 
      7 S7         -3.6086  -16.9984  -48.3208 S.3       23 UNK        -0.2404 
      8 C8         -4.9993  -17.5282  -47.2562 C.3       23 UNK        -0.0205 
      9 C9         -5.4134  -18.9862  -47.4419 C.ar      23 UNK        -0.0193 
     10 C10        -5.5277  -19.5394  -48.7209 C.ar      23 UNK        -0.1150 
     11 C11        -5.9734  -20.8500  -48.9111 C.ar      23 UNK        -0.0193 
     12 C12        -6.3217  -21.6100  -47.7887 C.ar      23 UNK        -0.1150 
     13 C13        -6.2213  -21.0754  -46.5014 C.ar      23 UNK        -0.0193 
     14 C14        -5.7609  -19.7649  -46.3330 C.ar      23 UNK        -0.1150 
     15 C15        -6.6135  -21.9242  -45.2996 C.3       23 UNK        -0.0205 
     16 S16        -5.4631  -23.3144  -45.0391 S.3       23 UNK        -0.2404 
     17 C17        -3.9577  -22.4331  -44.5124 C.3       23 UNK        -0.0398 
     18 CA         -3.0197  -22.0773  -45.6922 C.3       11 UNK         0.1400 
     19 N          -2.2058  -20.9055  -45.3764 N.am      11 UNK        -0.5000 
     20 C          -1.4830  -20.2037  -46.2579 C.2       10 UNK         0.5000 
     21 O          -1.3963  -20.4739  -47.4540 O.2       10 UNK        -0.5000 
     22 CA         -0.6851  -19.0234  -45.6777 C.3       10 UNK         0.1400 
     23 CB         -1.6309  -17.8584  -45.3311 C.3       10 UNK        -0.1800 
     24 N           0.0742  -19.4098  -44.4852 N.am      10 UNK        -0.5000 
     25 C           0.9995  -20.3800  -44.4356 C.2       9 UNK         0.5000 
     26 O           1.3772  -21.0224  -45.4136 O.2       9 UNK        -0.5000 
     27 CA          1.5398  -20.7469  -43.0434 C.3       9 UNK         0.1400 
     28 CB          2.6973  -19.8226  -42.6353 C.3       9 UNK        -0.1800 
     29 N           0.4850  -20.7118  -42.0293 N.am      9 UNK        -0.5000 
     30 C          -0.5347  -21.5821  -41.9718 C.2       8 UNK         0.5000 
     31 O          -0.6652  -22.5357  -42.7392 O.2       8 UNK        -0.5000 
     32 CA         -1.6183  -21.3076  -40.9129 C.3       8 UNK         0.1400 
     33 CB         -1.1853  -21.8446  -39.5407 C.3       8 UNK        -0.1800 
     34 N          -1.9380  -19.8840  -40.7990 N.am      8 UNK        -0.5000 
     35 C          -2.5058  -19.1542  -41.7700 C.2       7 UNK         0.5000 
     36 O          -2.8834  -19.6256  -42.8416 O.2       7 UNK        -0.5000 
     37 CA         -2.6229  -17.6370  -41.5225 C.3       7 UNK         0.1400 
     38 CB         -3.9711  -17.3022  -40.8687 C.3       7 UNK        -0.1800 
     39 N          -1.5347  -17.0960  -40.7000 N.am      7 UNK        -0.5000 
     40 C          -0.2385  -17.1212  -41.0372 C.2       6 UNK         0.5000 
     41 O           0.1817  -17.5887  -42.0983 O.2       6 UNK        -0.5000 
     42 CA          0.7498  -16.6009  -39.9866 C.3       6 UNK         0.1400 
     43 CB          0.9086  -17.6494  -38.8647 C.3       6 UNK        -0.1800 
     44 N           2.0419  -16.3342  -40.6172 N.am      6 UNK        -0.5000 
     45 C           3.0713  -15.7078  -40.0317 C.2       5 UNK         0.5000 
     46 O           3.0128  -15.1935  -38.9139 O.2       5 UNK        -0.5000 
     47 CA          4.3928  -15.6530  -40.8143 C.3       5 UNK         0.1400 
     48 CB          5.0625  -17.0361  -40.8534 C.3       5 UNK        -0.1800 
     49 N           4.2030  -15.1722  -42.1786 N.am      5 UNK        -0.5000 
     50 C           4.1918  -13.8880  -42.5505 C.2       4 UNK         0.5000 
     51 O           4.3242  -12.9469  -41.7672 O.2       4 UNK        -0.5000 
     52 CA          4.0161  -13.6034  -44.0565 C.3       4 UNK         0.1400 
     53 CB          5.1382  -14.2449  -44.8976 C.3       4 UNK        -0.1800 
     54 N           2.6930  -13.9598  -44.5798 N.am      4 UNK        -0.5000 
     55 C           2.1079  -15.1655  -44.6212 C.2       3 UNK         0.5000 
     56 O           2.6259  -16.2105  -44.2242 O.2       3 UNK        -0.5000 
     57 CA          0.6923  -15.2023  -45.2144 C.3       3 UNK         0.1400 
     58 CB         -0.3385  -14.7030  -44.1891 C.3       3 UNK        -0.1800 
     59 N           0.5347  -14.4265  -46.4423 N.am      3 UNK        -0.5000 
     60 C           1.1535  -14.6622  -47.6047 C.2       2 UNK         0.5000 
     61 O           1.9818  -15.5573  -47.7774 O.2       2 UNK        -0.5000 
     62 CA          0.7140  -13.7672  -48.7789 C.3       2 UNK         0.1400 
     63 CB          1.7253  -13.7696  -49.9386 C.3       2 UNK        -0.1800 
     64 N          -0.5955  -14.1809  -49.2834 N.am      2 UNK        -0.5000 
     65 C          -1.7711  -13.9217  -48.6993 C.2       1 UNK         0.5000 
     66 O          -1.8813  -13.2615  -47.6626 O.2       1 UNK        -0.5000 
     67 C          -2.1750  -23.2816  -46.1552 C.2       11 UNK         0.5000 
     68 O          -2.5795  -23.9838  -47.0822 O.2       11 UNK        -0.5000 
     69 N          -1.0080  -23.4849  -45.5269 N.am      12 UNK        -0.5000 
     70 CA         -0.0373  -24.5110  -45.9085 C.3       12 UNK         0.1400 
     71 CB          1.0302  -24.6402  -44.8113 C.3       12 UNK        -0.1800 
     72 C           0.6140  -24.2307  -47.2763 C.2       12 UNK         0.5000 
     73 O           0.7927  -25.1598  -48.0647 O.2       12 UNK        -0.5000 
     74 N           0.9525  -22.9598  -47.5304 N.am      13 UNK        -0.5000 
     75 CA          1.5294  -22.4824  -48.7849 C.3       13 UNK         0.1400 
     76 CB          2.1139  -21.0808  -48.5631 C.3       13 UNK        -0.1800 
     77 C           0.5201  -22.4953  -49.9475 C.2       13 UNK         0.5000 
     78 O           0.8661  -22.9571  -51.0359 O.2       13 UNK        -0.5000 
     79 N          -0.7042  -22.0083  -49.6941 N.am      14 UNK        -0.5000 
     80 CA         -1.8597  -21.9752  -50.5951 C.3       14 UNK         0.1400 
     81 CB         -2.4108  -23.4036  -50.7940 C.3       14 UNK        -0.1800 
     82 C          -1.5461  -21.2394  -51.9141 C.2       14 UNK         0.5000 
     83 O          -1.5064  -20.0081  -51.9297 O.2       14 UNK        -0.5000 
     84 N          -1.2652  -21.9947  -52.9843 N.am      15 UNK        -0.5000 
     85 CA         -0.8275  -21.4730  -54.2793 C.3       15 UNK         0.1400 
     86 CB         -0.7603  -22.6233  -55.2939 C.3       15 UNK        -0.1800 
     87 C           0.5186  -20.7246  -54.2058 C.2       15 UNK         0.5000 
     88 O           0.7100  -19.7519  -54.9355 O.2       15 UNK        -0.5000 
     89 N           1.4054  -21.1425  -53.2891 N.am      16 UNK        -0.5000 
     90 CA          2.6757  -20.4685  -53.0059 C.3       16 UNK         0.1400 
     91 CB          3.6331  -21.4428  -52.3025 C.3       16 UNK        -0.1800 
     92 C           2.5027  -19.1640  -52.1989 C.2       16 UNK         0.5000 
     93 O           3.4189  -18.3423  -52.1903 O.2       16 UNK        -0.5000 
     94 N           1.3285  -18.9692  -51.5784 N.am      17 UNK        -0.5000 
     95 CA          0.9011  -17.7078  -50.9669 C.3       17 UNK         0.1400 
     96 CB          0.0938  -17.9941  -49.6865 C.3       17 UNK        -0.1800 
     97 C           0.1058  -16.8315  -51.9585 C.2       17 UNK         0.5000 
     98 O          -0.5000  -15.8491  -51.5346 O.2       17 UNK        -0.5000 
     99 N           0.1142  -17.1941  -53.2517 N.am      18 UNK        -0.5000 
    100 CA        -0.5473  -16.5235  -54.3768 C.3       18 UNK         0.1400 
    101 CB        -0.0094  -15.0886  -54.5624 C.3       18 UNK        -0.1800 
    102 C         -2.0891  -16.5794  -54.3265 C.2       18 UNK         0.5000 
    103 O         -2.7477  -15.8041  -55.0229 O.2       18 UNK        -0.5000 
    104 N         -2.6392  -17.5058  -53.5329 N.am      19 UNK        -0.5000 
    105 CA        -4.0685  -17.7789  -53.4302 C.3       19 UNK         0.1400 
    106 CB        -4.4041  -18.0208  -51.9494 C.3       19 UNK        -0.1800 
    107 C         -4.4510  -18.9750  -54.3250 C.2       19 UNK         0.5000 
    108 O         -3.6962  -19.3489  -55.2269 O.2       19 UNK        -0.5000 
    109 N         -5.6313  -19.5523  -54.0697 N.am      20 UNK        -0.5000 
    110 CA        -6.1039  -20.7898  -54.6899 C.3       20 UNK         0.1400 
    111 CB        -7.5862  -20.9804  -54.3317 C.3       20 UNK        -0.1800 
    112 C         -5.2808  -22.0110  -54.2357 C.2       20 UNK         0.5000 
    113 O         -4.6416  -21.9735  -53.1821 O.2       20 UNK        -0.5000 
    114 N         -5.3427  -23.0948  -55.0168 N.am      21 UNK        -0.5000 
    115 CA        -4.6860  -24.3720  -54.7342 C.3       21 UNK         0.1400 
    116 CB        -4.5112  -25.1411  -56.0559 C.3       21 UNK        -0.1800 
    117 C         -5.4469  -25.1846  -53.6635 C.2       21 UNK         0.5000 
    118 O         -5.9818  -26.2551  -53.9573 O.2       21 UNK        -0.5000 
    119 N         -5.4944  -24.6440  -52.4407 N.am      22 UNK        -0.5000 
    120 CA        -6.1445  -25.2407  -51.2601 C.3       22 UNK         0.1400 
    121 C         -5.4636  -26.5301  -50.7093 C.2       22 UNK         0.5000 
    122 N         -4.2432  -26.8676  -51.1086 N.am      22 UNK        -0.7600 
    123 O         -6.0598  -27.2418  -49.9056 O.2       22 UNK        -0.5000 
    124 C124       -6.3350  -24.2116  -50.1147 C.3       23 UNK        -0.0398 
    125 S125       -7.2661  -22.7232  -50.6217 S.3       23 UNK        -0.2404 
    126 C126       -6.0388  -21.3993  -50.3373 C.3       23 UNK        -0.0205 
    127 H127       -4.5586  -11.6211  -52.5658 H         1 UNK         0.0600 
    128 H128       -3.6142  -10.5450  -51.5307 H         1 UNK         0.0600 
    129 H129       -5.0664  -11.3273  -50.9004 H         1 UNK         0.0600 
    130 H130       -4.5687  -12.9989  -49.5340 H         1 UNK         0.3000 
    131 H131       -2.7443  -15.1187  -50.2135 H         1 UNK         0.0600 
    132 H132       -3.9997  -14.7796  -47.4436 H         1 UNK         0.0800 
    133 H133       -5.0057  -15.1508  -48.8100 H         1 UNK         0.0800 
    134 H134       -4.7296  -17.3345  -46.2172 H         1 UNK         0.0800 
    135 H135       -5.8755  -16.9139  -47.4658 H         1 UNK         0.0800 
    136 H136       -5.2735  -18.9363  -49.5772 H         1 UNK         0.1150 
    137 H137       -6.6680  -22.6260  -47.8997 H         1 UNK         0.1150 
    138 H138       -5.6870  -19.3466  -45.3389 H         1 UNK         0.1150 
    139 H139       -6.6699  -21.3193  -44.3933 H         1 UNK         0.0800 
    140 H140       -7.6156  -22.3238  -45.4611 H         1 UNK         0.0800 
    141 H141       -3.4373  -23.0273  -43.7590 H         1 UNK         0.0800 
    142 H142       -4.2768  -21.5273  -43.9962 H         1 UNK         0.0800 
    143 H143       -3.6288  -21.7884  -46.5495 H         1 UNK         0.0600 
    144 H144       -2.2491  -20.5700  -44.4185 H         1 UNK         0.3000 
    145 H145        0.0348  -18.6836  -46.4250 H         1 UNK         0.0600 
    146 H146       -1.2842  -17.2996  -44.4650 H         1 UNK         0.0600 
    147 H147       -2.6454  -18.1884  -45.1054 H         1 UNK         0.0600 
    148 H148       -1.6973  -17.1605  -46.1645 H         1 UNK         0.0600 
    149 H149       -0.1265  -18.9041  -43.6294 H         1 UNK         0.3000 
    150 H150        1.9260  -21.7672  -43.0914 H         1 UNK         0.0600 
    151 H151        3.5322  -19.9219  -43.3298 H         1 UNK         0.0600 
    152 H152        3.0701  -20.0683  -41.6409 H         1 UNK         0.0600 
    153 H153        2.4036  -18.7736  -42.6359 H         1 UNK         0.0600 
    154 H154        0.4844  -19.9180  -41.4066 H         1 UNK         0.3000 
    155 H155       -2.5240  -21.8361  -41.2181 H         1 UNK         0.0600 
    156 H156       -0.9531  -22.9091  -39.5945 H         1 UNK         0.0600 
    157 H157       -1.9780  -21.7232  -38.8022 H         1 UNK         0.0600 
    158 H158       -0.2972  -21.3329  -39.1675 H         1 UNK         0.0600 
    159 H159       -1.6680  -19.4209  -39.9444 H         1 UNK         0.3000 
    160 H160       -2.5862  -17.1403  -42.4934 H         1 UNK         0.0600 
    161 H161       -4.0606  -17.7479  -39.8772 H         1 UNK         0.0600 
    162 H162       -4.8003  -17.6741  -41.4723 H         1 UNK         0.0600 
    163 H163       -4.1034  -16.2249  -40.7668 H         1 UNK         0.0600 
    164 H164       -1.8014  -16.7014  -39.8093 H         1 UNK         0.3000 
    165 H165        0.3572  -15.6693  -39.5743 H         1 UNK         0.0600 
    166 H166        1.5519  -17.2881  -38.0628 H         1 UNK         0.0600 
    167 H167       -0.0514  -17.8944  -38.4090 H         1 UNK         0.0600 
    168 H168        1.3394  -18.5775  -39.2428 H         1 UNK         0.0600 
    169 H169        2.1284  -16.6919  -41.5610 H         1 UNK         0.3000 
    170 H170        5.0665  -14.9741  -40.2866 H         1 UNK         0.0600 
    171 H171        4.4649  -17.7614  -41.4059 H         1 UNK         0.0600 
    172 H172        6.0432  -16.9835  -41.3264 H         1 UNK         0.0600 
    173 H173        5.2082  -17.4288  -39.8462 H         1 UNK         0.0600 
    174 H174        3.9721  -15.8598  -42.8897 H         1 UNK         0.3000 
    175 H175        4.1021  -12.5226  -44.1800 H         1 UNK         0.0600 
    176 H176        5.1090  -15.3342  -44.8663 H         1 UNK         0.0600 
    177 H177        5.0649  -13.9421  -45.9422 H         1 UNK         0.0600 
    178 H178        6.1198  -13.9347  -44.5375 H         1 UNK         0.0600 
    179 H179        2.1513  -13.1808  -44.9264 H         1 UNK         0.3000 
    180 H180        0.4883  -16.2434  -45.4585 H         1 UNK         0.0600 
    181 H181       -1.3570  -14.8375  -44.5541 H         1 UNK         0.0600 
    182 H182       -0.2039  -13.6445  -43.9641 H         1 UNK         0.0600 
    183 H183       -0.2553  -15.2456  -43.2494 H         1 UNK         0.0600 
    184 H184       -0.1950  -13.7230  -46.4415 H         1 UNK         0.3000 
    185 H185        0.6417  -12.7416  -48.4108 H         1 UNK         0.0600 
    186 H186        2.7060  -13.4332  -49.6004 H         1 UNK         0.0600 
    187 H187        1.8502  -14.7626  -50.3685 H         1 UNK         0.0600 
    188 H188        1.4079  -13.0995  -50.7378 H         1 UNK         0.0600 
    189 H189       -0.5917  -14.7235  -50.1474 H         1 UNK         0.3000 
    190 H190       -0.7685  -22.9027  -44.7311 H         1 UNK         0.3000 
    191 H191       -0.5653  -25.4642  -45.9799 H         1 UNK         0.0600 
    192 H192        0.5810  -24.9015  -43.8530 H         1 UNK         0.0600 
    193 H193        1.5856  -23.7117  -44.6778 H         1 UNK         0.0600 
    194 H194        1.7503  -25.4213  -45.0575 H         1 UNK         0.0600 
    195 H195        0.8271  -22.2647  -46.7999 H         1 UNK         0.3000 
    196 H196        2.3508  -23.1479  -49.0588 H         1 UNK         0.0600 
    197 H197        2.9698  -21.1177  -47.8892 H         1 UNK         0.0600 
    198 H198        1.3765  -20.4154  -48.1172 H         1 UNK         0.0600 
    199 H199        2.4516  -20.6271  -49.4934 H         1 UNK         0.0600 
    200 H200       -0.8695  -21.5776  -48.7852 H         1 UNK         0.3000 
    201 H201       -2.6283  -21.3875  -50.0908 H         1 UNK         0.0600 
    202 H202       -2.7600  -23.8181  -49.8484 H         1 UNK         0.0600 
    203 H203       -1.6628  -24.0887  -51.1934 H         1 UNK         0.0600 
    204 H204       -3.2579  -23.4037  -51.4758 H         1 UNK         0.0600 
    205 H205       -1.2699  -22.9976  -52.8752 H         1 UNK         0.3000 
    206 H206       -1.5786  -20.7600  -54.6212 H         1 UNK         0.0600 
    207 H207       -0.0579  -23.3967  -54.9806 H         1 UNK         0.0600 
    208 H208       -1.7373  -23.0874  -55.4277 H         1 UNK         0.0600 
    209 H209       -0.4383  -22.2624  -56.2716 H         1 UNK         0.0600 
    210 H210        1.1632  -21.9255  -52.6875 H         1 UNK         0.3000 
    211 H211        3.1334  -20.1927  -53.9584 H         1 UNK         0.0600 
    212 H212        3.2422  -21.7844  -51.3461 H         1 UNK         0.0600 
    213 H213        4.5984  -20.9723  -52.1114 H         1 UNK         0.0600 
    214 H214        3.8186  -22.3228  -52.9184 H         1 UNK         0.0600 
    215 H215        0.6025  -19.6688  -51.6738 H         1 UNK         0.3000 
    216 H216        1.7775  -17.1282  -50.6720 H         1 UNK         0.0600 
    217 H217       -0.2868  -17.0763  -49.2381 H         1 UNK         0.0600 
    218 H218        0.7200  -18.4644  -48.9326 H         1 UNK         0.0600 
    219 H219       -0.7623  -18.6424  -49.8693 H         1 UNK         0.0600 
    220 H220        0.6108  -18.0391  -53.5021 H         1 UNK         0.3000 
    221 H221       -0.2633  -17.0921  -55.2633 H         1 UNK         0.0600 
    222 H222       -0.3374  -14.4254  -53.7611 H         1 UNK         0.0600 
    223 H223        1.0802  -15.0744  -54.5867 H         1 UNK         0.0600 
    224 H224       -0.3590  -14.6585  -55.5015 H         1 UNK         0.0600 
    225 H225       -2.0328  -18.1433  -53.0309 H         1 UNK         0.3000 
    226 H226       -4.6432  -16.9153  -53.7703 H         1 UNK         0.0600 
    227 H227       -4.0205  -17.2131  -51.3259 H         1 UNK         0.0600 
    228 H228       -5.4812  -18.0620  -51.7868 H         1 UNK         0.0600 
    229 H229       -3.9729  -18.9547  -51.5867 H         1 UNK         0.0600 
    230 H230       -6.1876  -19.1974  -53.3073 H         1 UNK         0.3000 
    231 H231       -6.0107  -20.6918  -55.7735 H         1 UNK         0.0600 
    232 H232       -7.9924  -21.8795  -54.7966 H         1 UNK         0.0600 
    233 H233       -8.1872  -20.1392  -54.6774 H         1 UNK         0.0600 
    234 H234       -7.7310  -21.0761  -53.2550 H         1 UNK         0.0600 
    235 H235       -5.9195  -23.0672  -55.8451 H         1 UNK         0.3000 
    236 H236       -3.6882  -24.1741  -54.3367 H         1 UNK         0.0600 
    237 H237       -3.9093  -24.5723  -56.7650 H         1 UNK         0.0600 
    238 H238       -4.0027  -26.0918  -55.8909 H         1 UNK         0.0600 
    239 H239       -5.4704  -25.3577  -56.5277 H         1 UNK         0.0600 
    240 H240       -5.1024  -23.7157  -52.3238 H         1 UNK         0.3000 
    241 H241       -7.1405  -25.5517  -51.5808 H         1 UNK         0.0600 
    242 H242       -3.7436  -26.3007  -51.7727 H         1 UNK         0.3800 
    243 H243       -3.8193  -27.7069  -50.7459 H         1 UNK         0.3800 
    244 H244       -5.3671  -23.9208  -49.7028 H         1 UNK         0.0800 
    245 H245       -6.8853  -24.6667  -49.2892 H         1 UNK         0.0800 
    246 H246       -5.0469  -21.7489  -50.6204 H         1 UNK         0.0800 
    247 H247       -6.2786  -20.5867  -51.0243 H         1 UNK         0.0800 
@<TRIPOS>BOND
     1    1    2 1    
     2    1  127 1    
     3    1  128 1    
     4    1  129 1    
     5    2    3 2    
     6    2    4 am   BACKBONE|DICT|INTERRES
     7    4    5 1    
     8    4  130 1    
     9    5    6 1    
    10    5   65 1    
    11    5  131 1    
    12    6    7 1    
    13    6  132 1    
    14    6  133 1    
    15    7    8 1    
    16    8    9 1    
    17    8  134 1    
    18    8  135 1    
    19    9   10 ar   
    20    9   14 ar   
    21   10   11 ar   
    22   10  136 1    
    23   11   12 ar   
    24   11  126 1    
    25   12   13 ar   
    26   12  137 1    
    27   13   14 ar   
    28   13   15 1    
    29   14  138 1    
    30   15   16 1    
    31   15  139 1    
    32   15  140 1    
    33   16   17 1    
    34   17   18 1    
    35   17  141 1    
    36   17  142 1    
    37   18   19 1    
    38   18   67 1    
    39   18  143 1    
    40   19   20 am   BACKBONE|DICT|INTERRES
    41   19  144 1    
    42   20   21 2    
    43   20   22 1    
    44   22   23 1    
    45   22   24 1    
    46   22  145 1    
    47   23  146 1    
    48   23  147 1    
    49   23  148 1    
    50   24   25 am   BACKBONE|DICT|INTERRES
    51   24  149 1    
    52   25   26 2    
    53   25   27 1    
    54   27   28 1    
    55   27   29 1    
    56   27  150 1    
    57   28  151 1    
    58   28  152 1    
    59   28  153 1    
    60   29   30 am   BACKBONE|DICT|INTERRES
    61   29  154 1    
    62   30   31 2    
    63   30   32 1    
    64   32   33 1    
    65   32   34 1    
    66   32  155 1    
    67   33  156 1    
    68   33  157 1    
    69   33  158 1    
    70   34   35 am   BACKBONE|DICT|INTERRES
    71   34  159 1    
    72   35   36 2    
    73   35   37 1    
    74   37   38 1    
    75   37   39 1    
    76   37  160 1    
    77   38  161 1    
    78   38  162 1    
    79   38  163 1    
    80   39   40 am   BACKBONE|DICT|INTERRES
    81   39  164 1    
    82   40   41 2    
    83   40   42 1    
    84   42   43 1    
    85   42   44 1    
    86   42  165 1    
    87   43  166 1    
    88   43  167 1    
    89   43  168 1    
    90   44   45 am   BACKBONE|DICT|INTERRES
    91   44  169 1    
    92   45   46 2    
    93   45   47 1    
    94   47   48 1    
    95   47   49 1    
    96   47  170 1    
    97   48  171 1    
    98   48  172 1    
    99   48  173 1    
   100   49   50 am   BACKBONE|DICT|INTERRES
   101   49  174 1    
   102   50   51 2    
   103   50   52 1    
   104   52   53 1    
   105   52   54 1    
   106   52  175 1    
   107   53  176 1    
   108   53  177 1    
   109   53  178 1    
   110   54   55 am   BACKBONE|DICT|INTERRES
   111   54  179 1    
   112   55   56 2    
   113   55   57 1    
   114   57   58 1    
   115   57   59 1    
   116   57  180 1    
   117   58  181 1    
   118   58  182 1    
   119   58  183 1    
   120   59   60 am   BACKBONE|DICT|INTERRES
   121   59  184 1    
   122   60   61 2    
   123   60   62 1    
   124   62   63 1    
   125   62   64 1    
   126   62  185 1    
   127   63  186 1    
   128   63  187 1    
   129   63  188 1    
   130   64   65 am   BACKBONE|DICT|INTERRES
   131   64  189 1    
   132   65   66 2    
   133   67   68 2    
   134   67   69 am   BACKBONE|DICT|INTERRES
   135   69   70 1    
   136   69  190 1    
   137   70   71 1    
   138   70   72 1    
   139   70  191 1    
   140   71  192 1    
   141   71  193 1    
   142   71  194 1    
   143   72   73 2    
   144   72   74 am   BACKBONE|DICT|INTERRES
   145   74   75 1    
   146   74  195 1    
   147   75   76 1    
   148   75   77 1    
   149   75  196 1    
   150   76  197 1    
   151   76  198 1    
   152   76  199 1    
   153   77   78 2    
   154   77   79 am   BACKBONE|DICT|INTERRES
   155   79   80 1    
   156   79  200 1    
   157   80   81 1    
   158   80   82 1    
   159   80  201 1    
   160   81  202 1    
   161   81  203 1    
   162   81  204 1    
   163   82   83 2    
   164   82   84 am   BACKBONE|DICT|INTERRES
   165   84   85 1    
   166   84  205 1    
   167   85   86 1    
   168   85   87 1    
   169   85  206 1    
   170   86  207 1    
   171   86  208 1    
   172   86  209 1    
   173   87   88 2    
   174   87   89 am   BACKBONE|DICT|INTERRES
   175   89   90 1    
   176   89  210 1    
   177   90   91 1    
   178   90   92 1    
   179   90  211 1    
   180   91  212 1    
   181   91  213 1    
   182   91  214 1    
   183   92   93 2    
   184   92   94 am   BACKBONE|DICT|INTERRES
   185   94   95 1    
   186   94  215 1    
   187   95   96 1    
   188   95   97 1    
   189   95  216 1    
   190   96  217 1    
   191   96  218 1    
   192   96  219 1    
   193   97   98 2    
   194   97   99 am   BACKBONE|DICT|INTERRES
   195   99  100 1    
   196   99  220 1    
   197  100  101 1    
   198  100  102 1    
   199  100  221 1    
   200  101  222 1    
   201  101  223 1    
   202  101  224 1    
   203  102  103 2    
   204  102  104 am   BACKBONE|DICT|INTERRES
   205  104  105 1    
   206  104  225 1    
   207  105  106 1    
   208  105  107 1    
   209  105  226 1    
   210  106  227 1    
   211  106  228 1    
   212  106  229 1    
   213  107  108 2    
   214  107  109 am   BACKBONE|DICT|INTERRES
   215  109  110 1    
   216  109  230 1    
   217  110  111 1    
   218  110  112 1    
   219  110  231 1    
   220  111  232 1    
   221  111  233 1    
   222  111  234 1    
   223  112  113 2    
   224  112  114 am   BACKBONE|DICT|INTERRES
   225  114  115 1    
   226  114  235 1    
   227  115  116 1    
   228  115  117 1    
   229  115  236 1    
   230  116  237 1    
   231  116  238 1    
   232  116  239 1    
   233  117  118 2    
   234  117  119 am   BACKBONE|DICT|INTERRES
   235  119  120 1    
   236  119  240 1    
   237  120  121 1    
   238  120  124 1    
   239  120  241 1    
   240  121  122 am   BACKBONE|DICT|INTERRES
   241  121  123 2    
   242  122  242 1    
   243  122  243 1    
   244  124  125 1    
   245  124  244 1    
   246  124  245 1    
   247  125  126 1    
   248  126  246 1    
   249  126  247 1    
@<TRIPOS>SUBSTRUCTURE
     1 UNK         1 GROUP             0       ****    0 ROOT    
