@<TRIPOS>MOLECULE
3R540
247   249    1
SMALL
USER_CHARGES


@<TRIPOS>ATOM
      1 CA         -1.5175  -15.6373  -49.5409 C.3       0 UNK        -0.1800 
      2 C          -0.8380  -14.3824  -50.0662 C.2       0 UNK         0.5000 
      3 O          -1.5005  -13.5134  -50.6319 O.2       0 UNK        -0.5000 
      4 N           0.4766  -14.2645  -49.8448 N.am      1 UNK        -0.5000 
      5 CA          1.3455  -13.1419  -50.2312 C.3       1 UNK         0.1400 
      6 C6          2.8374  -13.5686  -50.2434 C.3       23 UNK        -0.0398 
      7 S7          3.2180  -14.8619  -51.4702 S.3       23 UNK        -0.2404 
      8 C8          3.4074  -16.3627  -50.4455 C.3       23 UNK        -0.0205 
      9 C9          2.1369  -17.2035  -50.3587 C.ar      23 UNK        -0.0193 
     10 C10         1.4193  -17.5189  -51.5161 C.ar      23 UNK        -0.1150 
     11 C11         0.2981  -18.3468  -51.4587 C.ar      23 UNK        -0.0193 
     12 C12        -0.1049  -18.8685  -50.2270 C.ar      23 UNK        -0.1150 
     13 C13         0.5982  -18.5697  -49.0511 C.ar      23 UNK        -0.0193 
     14 C14         1.7180  -17.7321  -49.1325 C.ar      23 UNK        -0.1150 
     15 C15         0.2192  -19.1508  -47.6838 C.3       23 UNK        -0.0205 
     16 S16        -1.3494  -20.0879  -47.6194 S.3       23 UNK        -0.2404 
     17 C17        -1.3267  -20.7325  -45.9143 C.3       23 UNK        -0.0398 
     18 CA         -0.7419  -22.1640  -45.8028 C.3       11 UNK         0.1400 
     19 N          -0.2693  -22.4269  -44.4425 N.am      11 UNK        -0.5000 
     20 C           0.4257  -23.5018  -44.0496 C.2       10 UNK         0.5000 
     21 O           0.7874  -24.4015  -44.8064 O.2       10 UNK        -0.5000 
     22 CA          0.7178  -23.6088  -42.5438 C.3       10 UNK         0.1400 
     23 CB          1.9073  -22.7197  -42.1487 C.3       10 UNK        -0.1800 
     24 N          -0.4513  -23.2572  -41.7361 N.am      10 UNK        -0.5000 
     25 C          -1.5603  -24.0044  -41.6452 C.2       9 UNK         0.5000 
     26 O          -1.7073  -25.0801  -42.2226 O.2       9 UNK        -0.5000 
     27 CA         -2.7137  -23.4389  -40.7969 C.3       9 UNK         0.1400 
     28 CB         -2.4791  -23.7205  -39.3054 C.3       9 UNK        -0.1800 
     29 N          -2.9124  -22.0032  -40.9953 N.am      9 UNK        -0.5000 
     30 C          -3.3187  -21.4475  -42.1451 C.2       8 UNK         0.5000 
     31 O          -3.5846  -22.0875  -43.1614 O.2       8 UNK        -0.5000 
     32 CA         -3.3775  -19.9098  -42.1833 C.3       8 UNK         0.1400 
     33 CB         -4.6972  -19.4031  -41.5828 C.3       8 UNK        -0.1800 
     34 N          -2.2502  -19.2518  -41.5132 N.am      8 UNK        -0.5000 
     35 C          -0.9610  -19.4571  -41.8124 C.2       7 UNK         0.5000 
     36 O          -0.5712  -20.3143  -42.6082 O.2       7 UNK        -0.5000 
     37 CA          0.0739  -18.5734  -41.0913 C.3       7 UNK         0.1400 
     38 CB          0.5467  -19.2595  -39.8007 C.3       7 UNK        -0.1800 
     39 N           1.2370  -18.3085  -41.9421 N.am      7 UNK        -0.5000 
     40 C           1.1814  -17.6861  -43.1270 C.2       6 UNK         0.5000 
     41 O           0.1591  -17.1565  -43.5732 O.2       6 UNK        -0.5000 
     42 CA          2.4749  -17.7052  -43.9661 C.3       6 UNK         0.1400 
     43 CB          2.7377  -19.1204  -44.5107 C.3       6 UNK        -0.1800 
     44 N           2.3851  -16.7821  -45.0968 N.am      6 UNK        -0.5000 
     45 C           2.4417  -15.4495  -44.9936 C.2       5 UNK         0.5000 
     46 O           2.7387  -14.8505  -43.9562 O.2       5 UNK        -0.5000 
     47 CA          2.0358  -14.6674  -46.2571 C.3       5 UNK         0.1400 
     48 CB          0.5065  -14.5266  -46.3075 C.3       5 UNK        -0.1800 
     49 N           2.6401  -13.3369  -46.3122 N.am      5 UNK        -0.5000 
     50 C           3.9515  -13.1031  -46.4694 C.2       4 UNK         0.5000 
     51 O           4.7752  -14.0002  -46.6562 O.2       4 UNK        -0.5000 
     52 CA          4.4329  -11.6379  -46.4396 C.3       4 UNK         0.1400 
     53 CB          5.2806  -11.3055  -47.6800 C.3       4 UNK        -0.1800 
     54 N           3.3247  -10.6845  -46.3608 N.am      4 UNK        -0.5000 
     55 C           2.8777  -10.1144  -45.2332 C.2       3 UNK         0.5000 
     56 O           3.3705  -10.3233  -44.1242 O.2       3 UNK        -0.5000 
     57 CA          1.6802   -9.1473  -45.3500 C.3       3 UNK         0.1400 
     58 CB          2.1598   -7.6895  -45.2730 C.3       3 UNK        -0.1800 
     59 N           0.8924   -9.3185  -46.5730 N.am      3 UNK        -0.5000 
     60 C           0.1249  -10.3804  -46.8501 C.2       2 UNK         0.5000 
     61 O          -0.0128  -11.3319  -46.0810 O.2       2 UNK        -0.5000 
     62 CA         -0.5791  -10.4133  -48.2250 C.3       2 UNK         0.1400 
     63 CB         -0.4547   -9.1009  -49.0313 C.3       2 UNK        -0.1800 
     64 N          -0.1309  -11.5466  -49.0407 N.am      2 UNK        -0.5000 
     65 C           1.1284  -11.8685  -49.3689 C.2       1 UNK         0.5000 
     66 O           2.0998  -11.2004  -49.0090 O.2       1 UNK        -0.5000 
     67 C          -1.7268  -23.2540  -46.2874 C.2       11 UNK         0.5000 
     68 O          -1.6333  -23.6967  -47.4346 O.2       11 UNK        -0.5000 
     69 N          -2.6216  -23.7018  -45.3937 N.am      12 UNK        -0.5000 
     70 CA         -3.5404  -24.8155  -45.6240 C.3       12 UNK         0.1400 
     71 CB         -4.6218  -24.8359  -44.5342 C.3       12 UNK        -0.1800 
     72 C          -2.8208  -26.1725  -45.7085 C.2       12 UNK         0.5000 
     73 O          -3.1068  -26.9420  -46.6250 O.2       12 UNK        -0.5000 
     74 N          -1.8838  -26.4367  -44.7851 N.am      13 UNK        -0.5000 
     75 CA         -1.0824  -27.6660  -44.7390 C.3       13 UNK         0.1400 
     76 CB         -0.2507  -27.6977  -43.4484 C.3       13 UNK        -0.1800 
     77 C          -0.1752  -27.8488  -45.9700 C.2       13 UNK         0.5000 
     78 O          -0.0154  -28.9721  -46.4486 O.2       13 UNK        -0.5000 
     79 N           0.3654  -26.7367  -46.4842 N.am      14 UNK        -0.5000 
     80 CA          1.1298  -26.6714  -47.7307 C.3       14 UNK         0.1400 
     81 CB          1.8973  -25.3393  -47.7613 C.3       14 UNK        -0.1800 
     82 C           0.2577  -26.8070  -48.9969 C.2       14 UNK         0.5000 
     83 O           0.8099  -26.9672  -50.0857 O.2       14 UNK        -0.5000 
     84 N          -1.0720  -26.6984  -48.8413 N.am      15 UNK        -0.5000 
     85 CA         -2.1044  -26.6398  -49.8837 C.3       15 UNK         0.1400 
     86 CB         -2.1495  -27.9452  -50.7038 C.3       15 UNK        -0.1800 
     87 C          -2.0054  -25.3801  -50.7705 C.2       15 UNK         0.5000 
     88 O          -2.5836  -25.3442  -51.8572 O.2       15 UNK        -0.5000 
     89 N          -1.2964  -24.3549  -50.2826 N.am      16 UNK        -0.5000 
     90 CA         -1.0947  -23.0771  -50.9565 C.3       16 UNK         0.1400 
     91 CB          0.1582  -22.4046  -50.3791 C.3       16 UNK        -0.1800 
     92 C          -2.3316  -22.1729  -50.8328 C.2       16 UNK         0.5000 
     93 O          -2.6159  -21.4088  -51.7519 O.2       16 UNK        -0.5000 
     94 N          -3.0893  -22.3182  -49.7360 N.am      17 UNK        -0.5000 
     95 CA         -4.3378  -21.5927  -49.4732 C.3       17 UNK         0.1400 
     96 CB         -4.8042  -21.9023  -48.0425 C.3       17 UNK        -0.1800 
     97 C          -5.4693  -21.8950  -50.4802 C.2       17 UNK         0.5000 
     98 O          -6.4349  -21.1363  -50.5530 O.2       17 UNK        -0.5000 
     99 N          -5.3385  -22.9934  -51.2357 N.am      18 UNK        -0.5000 
    100 CA        -6.2599  -23.3918  -52.2972 C.3       18 UNK         0.1400 
    101 CB        -6.1561  -24.9134  -52.4875 C.3       18 UNK        -0.1800 
    102 C         -6.0032  -22.6637  -53.6329 C.2       18 UNK         0.5000 
    103 O         -6.8478  -22.7516  -54.5263 O.2       18 UNK        -0.5000 
    104 N         -4.8575  -21.9787  -53.7769 N.am      19 UNK        -0.5000 
    105 CA        -4.4231  -21.3202  -55.0116 C.3       19 UNK         0.1400 
    106 CB        -2.8904  -21.1804  -55.0014 C.3       19 UNK        -0.1800 
    107 C         -5.1422  -19.9765  -55.2554 C.2       19 UNK         0.5000 
    108 O         -4.5048  -18.9216  -55.2492 O.2       19 UNK        -0.5000 
    109 N         -6.4621  -20.0512  -55.4767 N.am      20 UNK        -0.5000 
    110 CA        -7.3771  -18.9743  -55.8681 C.3       20 UNK         0.1400 
    111 CB        -7.1575  -18.6165  -57.3548 C.3       20 UNK        -0.1800 
    112 C         -7.3047  -17.7577  -54.9226 C.2       20 UNK         0.5000 
    113 O         -7.8368  -17.8233  -53.8131 O.2       20 UNK        -0.5000 
    114 N         -6.6258  -16.6881  -55.3618 N.am      21 UNK        -0.5000 
    115 CA        -6.3963  -15.4426  -54.6247 C.3       21 UNK         0.1400 
    116 CB        -5.6448  -14.4595  -55.5354 C.3       21 UNK        -0.1800 
    117 C         -5.6471  -15.6198  -53.2880 C.2       21 UNK         0.5000 
    118 O         -5.8001  -14.7785  -52.4014 O.2       21 UNK        -0.5000 
    119 N         -4.8822  -16.7110  -53.1518 N.am      22 UNK        -0.5000 
    120 CA        -4.2649  -17.1376  -51.8867 C.3       22 UNK         0.1400 
    121 C         -5.2743  -17.6753  -50.8277 C.2       22 UNK         0.5000 
    122 N         -6.5298  -17.9468  -51.1654 N.am      22 UNK        -0.7600 
    123 O         -4.9085  -17.8434  -49.6684 O.2       22 UNK        -0.5000 
    124 C124       -3.1374  -18.1716  -52.1188 C.3       23 UNK        -0.0398 
    125 S125       -1.7669  -17.5236  -53.1339 S.3       23 UNK        -0.2404 
    126 C126       -0.4424  -18.7087  -52.7385 C.3       23 UNK        -0.0205 
    127 H127       -1.6190  -16.3668  -50.3411 H         1 UNK         0.0600 
    128 H128       -2.5123  -15.4044  -49.1611 H         1 UNK         0.0600 
    129 H129       -0.9475  -16.0940  -48.7324 H         1 UNK         0.0600 
    130 H130        0.9545  -15.0366  -49.4059 H         1 UNK         0.3000 
    131 H131        1.0786  -12.8565  -51.2508 H         1 UNK         0.0600 
    132 H132        3.4743  -12.7212  -50.5035 H         1 UNK         0.0800 
    133 H133        3.1570  -13.8864  -49.2511 H         1 UNK         0.0800 
    134 H134        4.1841  -16.9821  -50.8957 H         1 UNK         0.0800 
    135 H135        3.7754  -16.0972  -49.4535 H         1 UNK         0.0800 
    136 H136        1.7446  -17.1324  -52.4717 H         1 UNK         0.1150 
    137 H137       -0.9595  -19.5261  -50.2025 H         1 UNK         0.1150 
    138 H138        2.2871  -17.5173  -48.2400 H         1 UNK         0.1150 
    139 H139        1.0261  -19.8103  -47.3618 H         1 UNK         0.0800 
    140 H140        0.1610  -18.3394  -46.9569 H         1 UNK         0.0800 
    141 H141       -2.3380  -20.6913  -45.5060 H         1 UNK         0.0800 
    142 H142       -0.7421  -20.0385  -45.3084 H         1 UNK         0.0800 
    143 H143        0.1386  -22.2211  -46.4466 H         1 UNK         0.0600 
    144 H144       -0.4911  -21.7210  -43.7423 H         1 UNK         0.3000 
    145 H145        0.9840  -24.6453  -42.3269 H         1 UNK         0.0600 
    146 H146        2.1525  -22.8366  -41.0930 H         1 UNK         0.0600 
    147 H147        2.7974  -22.9852  -42.7204 H         1 UNK         0.0600 
    148 H148        1.7059  -21.6640  -42.3302 H         1 UNK         0.0600 
    149 H149       -0.4410  -22.3492  -41.2956 H         1 UNK         0.3000 
    150 H150       -3.6295  -23.9509  -41.1001 H         1 UNK         0.0600 
    151 H151       -1.5910  -23.2091  -38.9320 H         1 UNK         0.0600 
    152 H152       -2.3428  -24.7880  -39.1271 H         1 UNK         0.0600 
    153 H153       -3.3299  -23.3981  -38.7049 H         1 UNK         0.0600 
    154 H154       -2.7021  -21.3979  -40.2156 H         1 UNK         0.3000 
    155 H155       -3.3472  -19.6118  -43.2334 H         1 UNK         0.0600 
    156 H156       -4.7689  -19.6279  -40.5180 H         1 UNK         0.0600 
    157 H157       -5.5536  -19.8665  -42.0749 H         1 UNK         0.0600 
    158 H158       -4.7988  -18.3247  -41.7063 H         1 UNK         0.0600 
    159 H159       -2.4866  -18.5400  -40.8370 H         1 UNK         0.3000 
    160 H160       -0.3896  -17.6175  -40.8395 H         1 UNK         0.0600 
    161 H161        1.0290  -20.2163  -40.0063 H         1 UNK         0.0600 
    162 H162       -0.2909  -19.4519  -39.1290 H         1 UNK         0.0600 
    163 H163        1.2575  -18.6349  -39.2594 H         1 UNK         0.0600 
    164 H164        2.1038  -18.7397  -41.6579 H         1 UNK         0.3000 
    165 H165        3.3110  -17.4067  -43.3301 H         1 UNK         0.0600 
    166 H166        3.6158  -19.1412  -45.1565 H         1 UNK         0.0600 
    167 H167        2.9191  -19.8265  -43.6997 H         1 UNK         0.0600 
    168 H168        1.8891  -19.4972  -45.0823 H         1 UNK         0.0600 
    169 H169        2.0940  -17.1888  -45.9706 H         1 UNK         0.3000 
    170 H170        2.3664  -15.2217  -47.1375 H         1 UNK         0.0600 
    171 H171        0.1207  -14.0529  -45.4037 H         1 UNK         0.0600 
    172 H172        0.1836  -13.9238  -47.1539 H         1 UNK         0.0600 
    173 H173        0.0240  -15.5009  -46.3944 H         1 UNK         0.0600 
    174 H174        2.0254  -12.5537  -46.1352 H         1 UNK         0.3000 
    175 H175        5.0757  -11.5341  -45.5633 H         1 UNK         0.0600 
    176 H176        4.7194  -11.4446  -48.6038 H         1 UNK         0.0600 
    177 H177        5.6299  -10.2733  -47.6529 H         1 UNK         0.0600 
    178 H178        6.1639  -11.9429  -47.7352 H         1 UNK         0.0600 
    179 H179        2.8360  -10.5085  -47.2333 H         1 UNK         0.3000 
    180 H180        1.0255   -9.3365  -44.4967 H         1 UNK         0.0600 
    181 H181        2.8084   -7.4350  -46.1122 H         1 UNK         0.0600 
    182 H182        2.7236   -7.5106  -44.3565 H         1 UNK         0.0600 
    183 H183        1.3186   -6.9961  -45.2750 H         1 UNK         0.0600 
    184 H184        0.9753   -8.5915  -47.2687 H         1 UNK         0.3000 
    185 H185       -1.6379  -10.5774  -48.0200 H         1 UNK         0.0600 
    186 H186       -0.8458   -8.2520  -48.4690 H         1 UNK         0.0600 
    187 H187        0.5780   -8.8785  -49.3028 H         1 UNK         0.0600 
    188 H188       -1.0291   -9.1602  -49.9558 H         1 UNK         0.0600 
    189 H189       -0.8619  -12.1504  -49.4044 H         1 UNK         0.3000 
    190 H190       -2.6864  -23.2464  -44.4886 H         1 UNK         0.3000 
    191 H191       -4.0358  -24.6505  -46.5822 H         1 UNK         0.0600 
    192 H192       -5.2033  -23.9139  -44.5419 H         1 UNK         0.0600 
    193 H193       -5.3186  -25.6606  -44.6889 H         1 UNK         0.0600 
    194 H194       -4.1907  -24.9508  -43.5393 H         1 UNK         0.0600 
    195 H195       -1.7366  -25.7761  -44.0271 H         1 UNK         0.3000 
    196 H196       -1.7749  -28.5099  -44.7150 H         1 UNK         0.0600 
    197 H197        0.3512  -28.6056  -43.3921 H         1 UNK         0.0600 
    198 H198       -0.8908  -27.6790  -42.5664 H         1 UNK         0.0600 
    199 H199        0.4296  -26.8479  -43.3883 H         1 UNK         0.0600 
    200 H200        0.2515  -25.8627  -45.9777 H         1 UNK         0.3000 
    201 H201        1.8542  -27.4883  -47.7392 H         1 UNK         0.0600 
    202 H202        2.5064  -25.2548  -48.6621 H         1 UNK         0.0600 
    203 H203        2.5687  -25.2518  -46.9069 H         1 UNK         0.0600 
    204 H204        1.2190  -24.4850  -47.7416 H         1 UNK         0.0600 
    205 H205       -1.4252  -26.5938  -47.8977 H         1 UNK         0.3000 
    206 H206       -3.0552  -26.5540  -49.3564 H         1 UNK         0.0600 
    207 H207       -2.2154  -28.8168  -50.0526 H         1 UNK         0.0600 
    208 H208       -3.0212  -27.9644  -51.3589 H         1 UNK         0.0600 
    209 H209       -1.2676  -28.0612  -51.3340 H         1 UNK         0.0600 
    210 H210       -0.9424  -24.4277  -49.3367 H         1 UNK         0.3000 
    211 H211       -0.9209  -23.2645  -52.0183 H         1 UNK         0.0600 
    212 H212        0.0273  -22.1329  -49.3314 H         1 UNK         0.0600 
    213 H213        0.4016  -21.4989  -50.9335 H         1 UNK         0.0600 
    214 H214        1.0245  -23.0629  -50.4461 H         1 UNK         0.0600 
    215 H215       -2.7589  -22.9434  -49.0094 H         1 UNK         0.3000 
    216 H216       -4.1195  -20.5251  -49.5400 H         1 UNK         0.0600 
    217 H217       -5.7095  -21.3451  -47.7981 H         1 UNK         0.0600 
    218 H218       -4.0496  -21.6229  -47.3086 H         1 UNK         0.0600 
    219 H219       -5.0271  -22.9615  -47.9151 H         1 UNK         0.0600 
    220 H220       -4.5099  -23.5594  -51.1212 H         1 UNK         0.3000 
    221 H221       -7.2811  -23.1587  -51.9884 H         1 UNK         0.0600 
    222 H222       -5.1619  -25.2099  -52.8238 H         1 UNK         0.0600 
    223 H223       -6.3689  -25.4438  -51.5592 H         1 UNK         0.0600 
    224 H224       -6.8715  -25.2645  -53.2322 H         1 UNK         0.0600 
    225 H225       -4.2221  -21.9079  -52.9897 H         1 UNK         0.3000 
    226 H226       -4.6743  -21.9706  -55.8522 H         1 UNK         0.0600 
    227 H227       -2.5299  -20.7875  -55.9526 H         1 UNK         0.0600 
    228 H228       -2.5503  -20.5004  -54.2221 H         1 UNK         0.0600 
    229 H229       -2.4048  -22.1430  -54.8411 H         1 UNK         0.0600 
    230 H230       -6.8843  -20.9690  -55.3695 H         1 UNK         0.3000 
    231 H231       -8.3874  -19.3746  -55.7722 H         1 UNK         0.0600 
    232 H232       -6.1362  -18.2918  -57.5570 H         1 UNK         0.0600 
    233 H233       -7.8316  -17.8198  -57.6727 H         1 UNK         0.0600 
    234 H234       -7.3579  -19.4772  -57.9929 H         1 UNK         0.0600 
    235 H235       -6.1861  -16.7539  -56.2682 H         1 UNK         0.3000 
    236 H236       -7.3741  -15.0161  -54.3923 H         1 UNK         0.0600 
    237 H237       -6.2089  -14.2523  -56.4450 H         1 UNK         0.0600 
    238 H238       -5.4816  -13.5059  -55.0316 H         1 UNK         0.0600 
    239 H239       -4.6680  -14.8490  -55.8253 H         1 UNK         0.0600 
    240 H240       -4.7915  -17.3518  -53.9337 H         1 UNK         0.3000 
    241 H241       -3.8105  -16.2531  -51.4371 H         1 UNK         0.0600 
    242 H242       -6.8655  -17.8288  -52.1158 H         1 UNK         0.3800 
    243 H243       -7.1492  -18.3255  -50.4674 H         1 UNK         0.3800 
    244 H244       -3.5398  -19.0622  -52.6018 H         1 UNK         0.0800 
    245 H245       -2.7311  -18.5027  -51.1636 H         1 UNK         0.0800 
    246 H246        0.2605  -18.7305  -53.5724 H         1 UNK         0.0800 
    247 H247       -0.8501  -19.7169  -52.6690 H         1 UNK         0.0800 
@<TRIPOS>BOND
     1    1    2 1    
     2    1  127 1    
     3    1  128 1    
     4    1  129 1    
     5    2    3 2    
     6    2    4 am   BACKBONE|DICT|INTERRES
     7    4    5 1    
     8    4  130 1    
     9    5    6 1    
    10    5   65 1    
    11    5  131 1    
    12    6    7 1    
    13    6  132 1    
    14    6  133 1    
    15    7    8 1    
    16    8    9 1    
    17    8  134 1    
    18    8  135 1    
    19    9   10 ar   
    20    9   14 ar   
    21   10   11 ar   
    22   10  136 1    
    23   11   12 ar   
    24   11  126 1    
    25   12   13 ar   
    26   12  137 1    
    27   13   14 ar   
    28   13   15 1    
    29   14  138 1    
    30   15   16 1    
    31   15  139 1    
    32   15  140 1    
    33   16   17 1    
    34   17   18 1    
    35   17  141 1    
    36   17  142 1    
    37   18   19 1    
    38   18   67 1    
    39   18  143 1    
    40   19   20 am   BACKBONE|DICT|INTERRES
    41   19  144 1    
    42   20   21 2    
    43   20   22 1    
    44   22   23 1    
    45   22   24 1    
    46   22  145 1    
    47   23  146 1    
    48   23  147 1    
    49   23  148 1    
    50   24   25 am   BACKBONE|DICT|INTERRES
    51   24  149 1    
    52   25   26 2    
    53   25   27 1    
    54   27   28 1    
    55   27   29 1    
    56   27  150 1    
    57   28  151 1    
    58   28  152 1    
    59   28  153 1    
    60   29   30 am   BACKBONE|DICT|INTERRES
    61   29  154 1    
    62   30   31 2    
    63   30   32 1    
    64   32   33 1    
    65   32   34 1    
    66   32  155 1    
    67   33  156 1    
    68   33  157 1    
    69   33  158 1    
    70   34   35 am   BACKBONE|DICT|INTERRES
    71   34  159 1    
    72   35   36 2    
    73   35   37 1    
    74   37   38 1    
    75   37   39 1    
    76   37  160 1    
    77   38  161 1    
    78   38  162 1    
    79   38  163 1    
    80   39   40 am   BACKBONE|DICT|INTERRES
    81   39  164 1    
    82   40   41 2    
    83   40   42 1    
    84   42   43 1    
    85   42   44 1    
    86   42  165 1    
    87   43  166 1    
    88   43  167 1    
    89   43  168 1    
    90   44   45 am   BACKBONE|DICT|INTERRES
    91   44  169 1    
    92   45   46 2    
    93   45   47 1    
    94   47   48 1    
    95   47   49 1    
    96   47  170 1    
    97   48  171 1    
    98   48  172 1    
    99   48  173 1    
   100   49   50 am   BACKBONE|DICT|INTERRES
   101   49  174 1    
   102   50   51 2    
   103   50   52 1    
   104   52   53 1    
   105   52   54 1    
   106   52  175 1    
   107   53  176 1    
   108   53  177 1    
   109   53  178 1    
   110   54   55 am   BACKBONE|DICT|INTERRES
   111   54  179 1    
   112   55   56 2    
   113   55   57 1    
   114   57   58 1    
   115   57   59 1    
   116   57  180 1    
   117   58  181 1    
   118   58  182 1    
   119   58  183 1    
   120   59   60 am   BACKBONE|DICT|INTERRES
   121   59  184 1    
   122   60   61 2    
   123   60   62 1    
   124   62   63 1    
   125   62   64 1    
   126   62  185 1    
   127   63  186 1    
   128   63  187 1    
   129   63  188 1    
   130   64   65 am   BACKBONE|DICT|INTERRES
   131   64  189 1    
   132   65   66 2    
   133   67   68 2    
   134   67   69 am   BACKBONE|DICT|INTERRES
   135   69   70 1    
   136   69  190 1    
   137   70   71 1    
   138   70   72 1    
   139   70  191 1    
   140   71  192 1    
   141   71  193 1    
   142   71  194 1    
   143   72   73 2    
   144   72   74 am   BACKBONE|DICT|INTERRES
   145   74   75 1    
   146   74  195 1    
   147   75   76 1    
   148   75   77 1    
   149   75  196 1    
   150   76  197 1    
   151   76  198 1    
   152   76  199 1    
   153   77   78 2    
   154   77   79 am   BACKBONE|DICT|INTERRES
   155   79   80 1    
   156   79  200 1    
   157   80   81 1    
   158   80   82 1    
   159   80  201 1    
   160   81  202 1    
   161   81  203 1    
   162   81  204 1    
   163   82   83 2    
   164   82   84 am   BACKBONE|DICT|INTERRES
   165   84   85 1    
   166   84  205 1    
   167   85   86 1    
   168   85   87 1    
   169   85  206 1    
   170   86  207 1    
   171   86  208 1    
   172   86  209 1    
   173   87   88 2    
   174   87   89 am   BACKBONE|DICT|INTERRES
   175   89   90 1    
   176   89  210 1    
   177   90   91 1    
   178   90   92 1    
   179   90  211 1    
   180   91  212 1    
   181   91  213 1    
   182   91  214 1    
   183   92   93 2    
   184   92   94 am   BACKBONE|DICT|INTERRES
   185   94   95 1    
   186   94  215 1    
   187   95   96 1    
   188   95   97 1    
   189   95  216 1    
   190   96  217 1    
   191   96  218 1    
   192   96  219 1    
   193   97   98 2    
   194   97   99 am   BACKBONE|DICT|INTERRES
   195   99  100 1    
   196   99  220 1    
   197  100  101 1    
   198  100  102 1    
   199  100  221 1    
   200  101  222 1    
   201  101  223 1    
   202  101  224 1    
   203  102  103 2    
   204  102  104 am   BACKBONE|DICT|INTERRES
   205  104  105 1    
   206  104  225 1    
   207  105  106 1    
   208  105  107 1    
   209  105  226 1    
   210  106  227 1    
   211  106  228 1    
   212  106  229 1    
   213  107  108 2    
   214  107  109 am   BACKBONE|DICT|INTERRES
   215  109  110 1    
   216  109  230 1    
   217  110  111 1    
   218  110  112 1    
   219  110  231 1    
   220  111  232 1    
   221  111  233 1    
   222  111  234 1    
   223  112  113 2    
   224  112  114 am   BACKBONE|DICT|INTERRES
   225  114  115 1    
   226  114  235 1    
   227  115  116 1    
   228  115  117 1    
   229  115  236 1    
   230  116  237 1    
   231  116  238 1    
   232  116  239 1    
   233  117  118 2    
   234  117  119 am   BACKBONE|DICT|INTERRES
   235  119  120 1    
   236  119  240 1    
   237  120  121 1    
   238  120  124 1    
   239  120  241 1    
   240  121  122 am   BACKBONE|DICT|INTERRES
   241  121  123 2    
   242  122  242 1    
   243  122  243 1    
   244  124  125 1    
   245  124  244 1    
   246  124  245 1    
   247  125  126 1    
   248  126  246 1    
   249  126  247 1    
@<TRIPOS>SUBSTRUCTURE
     1 UNK         1 GROUP             0       ****    0 ROOT    
