@<TRIPOS>MOLECULE
3R540
247   249    1
SMALL
USER_CHARGES


@<TRIPOS>ATOM
      1 CA          2.8732  -13.1501  -42.1191 C.3       0 UNK        -0.1800 
      2 C           2.2691  -12.7742  -43.4651 C.2       0 UNK         0.5000 
      3 O           1.2525  -12.0819  -43.5034 O.2       0 UNK        -0.5000 
      4 N           2.8949  -13.2271  -44.5599 N.am      1 UNK        -0.5000 
      5 CA          2.5588  -12.8771  -45.9449 C.3       1 UNK         0.1400 
      6 C6          3.4181  -13.6796  -46.9543 C.3       23 UNK        -0.0398 
      7 S7          2.9253  -15.4351  -47.0416 S.3       23 UNK        -0.2404 
      8 C8          2.7313  -15.6528  -48.8400 C.3       23 UNK        -0.0205 
      9 C9          1.7081  -16.7251  -49.1685 C.ar      23 UNK        -0.0193 
     10 C10         0.3612  -16.3799  -49.2946 C.ar      23 UNK        -0.1150 
     11 C11        -0.5959  -17.3440  -49.6177 C.ar      23 UNK        -0.0193 
     12 C12        -0.1923  -18.6702  -49.8012 C.ar      23 UNK        -0.1150 
     13 C13         1.1549  -19.0287  -49.6894 C.ar      23 UNK        -0.0193 
     14 C14         2.1014  -18.0494  -49.3728 C.ar      23 UNK        -0.1150 
     15 C15         1.5982  -20.4631  -49.9424 C.3       23 UNK        -0.0205 
     16 S16         2.2851  -21.2468  -48.4495 S.3       23 UNK        -0.2404 
     17 C17         0.7958  -21.4748  -47.4224 C.3       23 UNK        -0.0398 
     18 CA          0.4790  -22.9704  -47.1871 C.3       11 UNK         0.1400 
     19 N           1.5677  -23.6654  -46.4956 N.am      11 UNK        -0.5000 
     20 C           1.6761  -24.9940  -46.3699 C.2       10 UNK         0.5000 
     21 O           0.8663  -25.7955  -46.8336 O.2       10 UNK        -0.5000 
     22 CA          2.8717  -25.5064  -45.5473 C.3       10 UNK         0.1400 
     23 CB          4.1487  -25.5276  -46.4005 C.3       10 UNK        -0.1800 
     24 N           3.1030  -24.7065  -44.3431 N.am      10 UNK        -0.5000 
     25 C           2.2541  -24.6434  -43.3080 C.2       9 UNK         0.5000 
     26 O           1.2007  -25.2763  -43.2476 O.2       9 UNK        -0.5000 
     27 CA          2.6197  -23.6755  -42.1688 C.3       9 UNK         0.1400 
     28 CB          3.5814  -24.3473  -41.1774 C.3       9 UNK        -0.1800 
     29 N           3.1968  -22.4065  -42.6240 N.am      9 UNK        -0.5000 
     30 C           2.5841  -21.5347  -43.4356 C.2       8 UNK         0.5000 
     31 O           1.5059  -21.7542  -43.9912 O.2       8 UNK        -0.5000 
     32 CA          3.3090  -20.2024  -43.6917 C.3       8 UNK         0.1400 
     33 CB          4.0609  -20.2415  -45.0295 C.3       8 UNK        -0.1800 
     34 N           2.3633  -19.0878  -43.7063 N.am      8 UNK        -0.5000 
     35 C           1.7163  -18.6285  -42.6264 C.2       7 UNK         0.5000 
     36 O           1.9194  -19.0384  -41.4824 O.2       7 UNK        -0.5000 
     37 CA          0.6761  -17.5167  -42.8538 C.3       7 UNK         0.1400 
     38 CB          1.3082  -16.1391  -42.6227 C.3       7 UNK        -0.1800 
     39 N           0.0810  -17.5379  -44.1892 N.am      7 UNK        -0.5000 
     40 C          -0.8243  -18.4261  -44.6123 C.2       6 UNK         0.5000 
     41 O          -1.2562  -19.3439  -43.9145 O.2       6 UNK        -0.5000 
     42 CA         -1.3633  -18.2112  -46.0414 C.3       6 UNK         0.1400 
     43 CB         -2.2551  -19.3756  -46.5166 C.3       6 UNK        -0.1800 
     44 N          -2.1217  -16.9620  -46.1552 N.am      6 UNK        -0.5000 
     45 C          -1.6028  -15.7276  -46.2069 C.2       5 UNK         0.5000 
     46 O          -0.3972  -15.4900  -46.1372 O.2       5 UNK        -0.5000 
     47 CA         -2.6095  -14.5773  -46.3714 C.3       5 UNK         0.1400 
     48 CB         -2.6700  -13.6785  -45.1200 C.3       5 UNK        -0.1800 
     49 N          -2.3588  -13.8345  -47.6123 N.am      5 UNK        -0.5000 
     50 C          -1.4412  -12.8911  -47.8724 C.2       4 UNK         0.5000 
     51 O          -0.7173  -12.3582  -47.0270 O.2       4 UNK        -0.5000 
     52 CA         -1.3404  -12.4566  -49.3513 C.3       4 UNK         0.1400 
     53 CB         -2.7198  -12.1419  -49.9606 C.3       4 UNK        -0.1800 
     54 N          -0.5005  -11.2704  -49.4852 N.am      4 UNK        -0.5000 
     55 C           0.8316  -11.2628  -49.6253 C.2       3 UNK         0.5000 
     56 O           1.5127  -12.2738  -49.7888 O.2       3 UNK        -0.5000 
     57 CA          1.5217   -9.8870  -49.5358 C.3       3 UNK         0.1400 
     58 CB          1.8361   -9.3581  -50.9433 C.3       3 UNK        -0.1800 
     59 N           0.6691   -8.9127  -48.8446 N.am      3 UNK        -0.5000 
     60 C           0.6165   -8.6398  -47.5318 C.2       2 UNK         0.5000 
     61 O          -0.2904   -7.9421  -47.0791 O.2       2 UNK        -0.5000 
     62 CA          1.7086   -9.1696  -46.5778 C.3       2 UNK         0.1400 
     63 CB          1.6276   -8.5396  -45.1710 C.3       2 UNK        -0.1800 
     64 N           1.6791  -10.6277  -46.4544 N.am      2 UNK        -0.5000 
     65 C           2.7591  -11.3626  -46.1611 C.2       1 UNK         0.5000 
     66 O           3.8927  -10.8905  -46.0407 O.2       1 UNK        -0.5000 
     67 C          -0.8537  -23.1396  -46.4342 C.2       11 UNK         0.5000 
     68 O          -1.8828  -23.3776  -47.0678 O.2       11 UNK        -0.5000 
     69 N          -0.8035  -23.0475  -45.0983 N.am      12 UNK        -0.5000 
     70 CA         -1.9332  -23.2801  -44.2018 C.3       12 UNK         0.1400 
     71 CB         -1.5416  -22.8909  -42.7684 C.3       12 UNK        -0.1800 
     72 C          -2.4363  -24.7338  -44.2614 C.2       12 UNK         0.5000 
     73 O          -3.6427  -24.9487  -44.3767 O.2       12 UNK        -0.5000 
     74 N          -1.5064  -25.7005  -44.2276 N.am      13 UNK        -0.5000 
     75 CA         -1.7867  -27.1350  -44.3365 C.3       13 UNK         0.1400 
     76 CB         -0.5080  -27.9337  -44.0427 C.3       13 UNK        -0.1800 
     77 C          -2.3722  -27.5355  -45.7033 C.2       13 UNK         0.5000 
     78 O          -3.2720  -28.3746  -45.7564 O.2       13 UNK        -0.5000 
     79 N          -1.8747  -26.9090  -46.7782 N.am      14 UNK        -0.5000 
     80 CA         -2.3755  -27.0717  -48.1446 C.3       14 UNK         0.1400 
     81 CB         -1.3247  -26.5260  -49.1250 C.3       14 UNK        -0.1800 
     82 C          -3.7326  -26.3821  -48.3917 C.2       14 UNK         0.5000 
     83 O          -4.3742  -26.6781  -49.4004 O.2       14 UNK        -0.5000 
     84 N          -4.1245  -25.4639  -47.4938 N.am      15 UNK        -0.5000 
     85 CA         -5.2700  -24.5536  -47.5878 C.3       15 UNK         0.1400 
     86 CB         -6.6040  -25.3254  -47.5305 C.3       15 UNK        -0.1800 
     87 C          -5.1544  -23.6268  -48.8146 C.2       15 UNK         0.5000 
     88 O          -6.1288  -23.4178  -49.5398 O.2       15 UNK        -0.5000 
     89 N          -3.9428  -23.0958  -49.0312 N.am      16 UNK        -0.5000 
     90 CA         -3.5447  -22.3367  -50.2169 C.3       16 UNK         0.1400 
     91 CB         -2.0573  -21.9847  -50.1082 C.3       16 UNK        -0.1800 
     92 C          -4.3794  -21.0705  -50.4723 C.2       16 UNK         0.5000 
     93 O          -4.6042  -20.7258  -51.6317 O.2       16 UNK        -0.5000 
     94 N          -4.8530  -20.4299  -49.3950 N.am      17 UNK        -0.5000 
     95 CA         -5.7359  -19.2639  -49.4481 C.3       17 UNK         0.1400 
     96 CB         -5.7839  -18.6020  -48.0629 C.3       17 UNK        -0.1800 
     97 C          -7.1554  -19.5971  -49.9462 C.2       17 UNK         0.5000 
     98 O          -7.7797  -18.7534  -50.5896 O.2       17 UNK        -0.5000 
     99 N          -7.6342  -20.8162  -49.6609 N.am      18 UNK        -0.5000 
    100 CA        -8.9222  -21.3248  -50.1356 C.3       18 UNK         0.1400 
    101 CB        -9.4376  -22.4035  -49.1700 C.3       18 UNK        -0.1800 
    102 C         -8.8084  -21.8794  -51.5657 C.2       18 UNK         0.5000 
    103 O         -9.7211  -21.6869  -52.3695 O.2       18 UNK        -0.5000 
    104 N         -7.6781  -22.5361  -51.8615 N.am      19 UNK        -0.5000 
    105 CA        -7.3431  -23.0851  -53.1770 C.3       19 UNK         0.1400 
    106 CB        -6.1732  -24.0677  -53.0133 C.3       19 UNK        -0.1800 
    107 C         -6.9901  -22.0108  -54.2268 C.2       19 UNK         0.5000 
    108 O         -7.0180  -22.3116  -55.4207 O.2       19 UNK        -0.5000 
    109 N         -6.6454  -20.7994  -53.7635 N.am      20 UNK        -0.5000 
    110 CA        -6.1298  -19.6583  -54.5281 C.3       20 UNK         0.1400 
    111 CB        -7.1760  -19.1337  -55.5333 C.3       20 UNK        -0.1800 
    112 C         -4.7595  -19.9682  -55.1677 C.2       20 UNK         0.5000 
    113 O         -4.5027  -19.6036  -56.3163 O.2       20 UNK        -0.5000 
    114 N         -3.9014  -20.6431  -54.3930 N.am      21 UNK        -0.5000 
    115 CA        -2.5599  -21.0844  -54.7809 C.3       21 UNK         0.1400 
    116 CB        -2.3037  -22.4621  -54.1470 C.3       21 UNK        -0.1800 
    117 C         -1.4627  -20.0713  -54.3891 C.2       21 UNK         0.5000 
    118 O         -0.2782  -20.3704  -54.5432 O.2       21 UNK        -0.5000 
    119 N         -1.8690  -18.9018  -53.8806 N.am      22 UNK        -0.5000 
    120 CA        -1.0062  -17.8137  -53.3881 C.3       22 UNK         0.1400 
    121 C         -0.1506  -17.0948  -54.4735 C.2       22 UNK         0.5000 
    122 N         -0.4227  -17.2676  -55.7613 N.am      22 UNK        -0.7600 
    123 O          0.7778  -16.3643  -54.1398 O.2       22 UNK        -0.5000 
    124 C124       -1.8226  -16.7716  -52.5784 C.3       23 UNK        -0.0398 
    125 S125       -2.8507  -17.5344  -51.2760 S.3       23 UNK        -0.2404 
    126 C126       -2.0594  -16.9389  -49.7501 C.3       23 UNK        -0.0205 
    127 H127        3.6217  -13.9370  -42.2164 H         1 UNK         0.0600 
    128 H128        2.0963  -13.5025  -41.4408 H         1 UNK         0.0600 
    129 H129        3.3486  -12.2795  -41.6675 H         1 UNK         0.0600 
    130 H130        3.7249  -13.7908  -44.4511 H         1 UNK         0.3000 
    131 H131        1.5093  -13.1245  -46.1062 H         1 UNK         0.0600 
    132 H132        3.3431  -13.2370  -47.9484 H         1 UNK         0.0800 
    133 H133        4.4759  -13.6274  -46.6909 H         1 UNK         0.0800 
    134 H134        2.4143  -14.7206  -49.3074 H         1 UNK         0.0800 
    135 H135        3.6988  -15.9001  -49.2790 H         1 UNK         0.0800 
    136 H136        0.0636  -15.3545  -49.1322 H         1 UNK         0.1150 
    137 H137       -0.9307  -19.4139  -50.0547 H         1 UNK         0.1150 
    138 H138        3.1443  -18.3202  -49.2859 H         1 UNK         0.1150 
    139 H139        2.3637  -20.4608  -50.7195 H         1 UNK         0.0800 
    140 H140        0.7773  -21.0694  -50.3272 H         1 UNK         0.0800 
    141 H141       -0.0438  -20.9747  -47.9028 H         1 UNK         0.0800 
    142 H142        0.9501  -20.9550  -46.4758 H         1 UNK         0.0800 
    143 H143        0.3546  -23.4438  -48.1635 H         1 UNK         0.0600 
    144 H144        2.2544  -23.0790  -46.0459 H         1 UNK         0.3000 
    145 H145        2.6497  -26.5301  -45.2385 H         1 UNK         0.0600 
    146 H146        4.0071  -26.1306  -47.2984 H         1 UNK         0.0600 
    147 H147        4.9841  -25.9592  -45.8489 H         1 UNK         0.0600 
    148 H148        4.4386  -24.5258  -46.7204 H         1 UNK         0.0600 
    149 H149        3.9442  -24.1497  -44.3132 H         1 UNK         0.3000 
    150 H150        1.6965  -23.4391  -41.6358 H         1 UNK         0.0600 
    151 H151        4.5447  -24.5706  -41.6377 H         1 UNK         0.0600 
    152 H152        3.1681  -25.2870  -40.8082 H         1 UNK         0.0600 
    153 H153        3.7622  -23.7117  -40.3104 H         1 UNK         0.0600 
    154 H154        4.0883  -22.1541  -42.2226 H         1 UNK         0.3000 
    155 H155        4.0324  -20.0305  -42.8918 H         1 UNK         0.0600 
    156 H156        3.3781  -20.3653  -45.8691 H         1 UNK         0.0600 
    157 H157        4.7719  -21.0681  -45.0580 H         1 UNK         0.0600 
    158 H158        4.6242  -19.3223  -45.1917 H         1 UNK         0.0600 
    159 H159        2.1152  -18.7104  -44.6081 H         1 UNK         0.3000 
    160 H160       -0.1207  -17.6544  -42.1198 H         1 UNK         0.0600 
    161 H161        0.5655  -15.3458  -42.7115 H         1 UNK         0.0600 
    162 H162        2.1015  -15.9390  -43.3440 H         1 UNK         0.0600 
    163 H163        1.7427  -16.0699  -41.6246 H         1 UNK         0.0600 
    164 H164        0.3131  -16.7704  -44.8142 H         1 UNK         0.3000 
    165 H165       -0.4982  -18.1616  -46.7066 H         1 UNK         0.0600 
    166 H166       -1.7650  -20.3356  -46.3623 H         1 UNK         0.0600 
    167 H167       -3.1998  -19.4080  -45.9727 H         1 UNK         0.0600 
    168 H168       -2.4791  -19.2981  -47.5798 H         1 UNK         0.0600 
    169 H169       -3.1257  -17.0630  -46.1626 H         1 UNK         0.3000 
    170 H170       -3.6030  -15.0114  -46.4956 H         1 UNK         0.0600 
    171 H171       -1.6874  -13.2973  -44.8391 H         1 UNK         0.0600 
    172 H172       -3.0503  -14.2373  -44.2644 H         1 UNK         0.0600 
    173 H173       -3.3319  -12.8265  -45.2744 H         1 UNK         0.0600 
    174 H174       -2.9170  -14.1465  -48.3931 H         1 UNK         0.3000 
    175 H175       -0.8949  -13.2792  -49.9141 H         1 UNK         0.0600 
    176 H176       -3.3471  -13.0318  -50.0190 H         1 UNK         0.0600 
    177 H177       -3.2574  -11.3946  -49.3754 H         1 UNK         0.0600 
    178 H178       -2.6213  -11.7602  -50.9771 H         1 UNK         0.0600 
    179 H179       -0.9554  -10.3904  -49.2955 H         1 UNK         0.3000 
    180 H180        2.4698  -10.0152  -49.0128 H         1 UNK         0.0600 
    181 H181        0.9310   -9.2228  -51.5367 H         1 UNK         0.0600 
    182 H182        2.4829  -10.0501  -51.4845 H         1 UNK         0.0600 
    183 H183        2.3538   -8.3998  -50.8973 H         1 UNK         0.0600 
    184 H184       -0.0184   -8.4652  -49.4326 H         1 UNK         0.3000 
    185 H185        2.6596   -8.8582  -47.0144 H         1 UNK         0.0600 
    186 H186        1.6337   -7.4502  -45.2253 H         1 UNK         0.0600 
    187 H187        0.7182   -8.8413  -44.6497 H         1 UNK         0.0600 
    188 H188        2.4766   -8.8342  -44.5540 H         1 UNK         0.0600 
    189 H189        0.7730  -11.0824  -46.5465 H         1 UNK         0.3000 
    190 H190        0.0754  -22.7807  -44.6609 H         1 UNK         0.3000 
    191 H191       -2.7490  -22.6275  -44.5200 H         1 UNK         0.0600 
    192 H192       -1.2244  -21.8492  -42.7163 H         1 UNK         0.0600 
    193 H193       -2.3852  -23.0097  -42.0877 H         1 UNK         0.0600 
    194 H194       -0.7249  -23.5058  -42.3908 H         1 UNK         0.0600 
    195 H195       -0.5341  -25.4421  -44.0826 H         1 UNK         0.3000 
    196 H196       -2.5266  -27.3876  -43.5742 H         1 UNK         0.0600 
    197 H197       -0.6909  -29.0067  -44.1126 H         1 UNK         0.0600 
    198 H198       -0.1405  -27.7321  -43.0365 H         1 UNK         0.0600 
    199 H199        0.2892  -27.6887  -44.7454 H         1 UNK         0.0600 
    200 H200       -1.0812  -26.2868  -46.6593 H         1 UNK         0.3000 
    201 H201       -2.5069  -28.1377  -48.3411 H         1 UNK         0.0600 
    202 H202       -1.6482  -26.6507  -50.1591 H         1 UNK         0.0600 
    203 H203       -0.3750  -27.0503  -49.0176 H         1 UNK         0.0600 
    204 H204       -1.1412  -25.4629  -48.9643 H         1 UNK         0.0600 
    205 H205       -3.5105  -25.2974  -46.7070 H         1 UNK         0.3000 
    206 H206       -5.2216  -23.9093  -46.7089 H         1 UNK         0.0600 
    207 H207       -6.6423  -25.9801  -46.6600 H         1 UNK         0.0600 
    208 H208       -7.4473  -24.6381  -47.4570 H         1 UNK         0.0600 
    209 H209       -6.7598  -25.9376  -48.4192 H         1 UNK         0.0600 
    210 H210       -3.2057  -23.2961  -48.3576 H         1 UNK         0.3000 
    211 H211       -3.6748  -22.9933  -51.0779 H         1 UNK         0.0600 
    212 H212       -1.7207  -21.4185  -50.9772 H         1 UNK         0.0600 
    213 H213       -1.4416  -22.8821  -50.0445 H         1 UNK         0.0600 
    214 H214       -1.8664  -21.3813  -49.2221 H         1 UNK         0.0600 
    215 H215       -4.6253  -20.7942  -48.4822 H         1 UNK         0.3000 
    216 H216       -5.3126  -18.5449  -50.1505 H         1 UNK         0.0600 
    217 H217       -4.7970  -18.2553  -47.7590 H         1 UNK         0.0600 
    218 H218       -6.1514  -19.2890  -47.2997 H         1 UNK         0.0600 
    219 H219       -6.4428  -17.7327  -48.0680 H         1 UNK         0.0600 
    220 H220       -7.0345  -21.4817  -49.1907 H         1 UNK         0.3000 
    221 H221       -9.6489  -20.5096  -50.1456 H         1 UNK         0.0600 
    222 H222       -8.7759  -23.2691  -49.1358 H         1 UNK         0.0600 
    223 H223       -9.5324  -22.0132  -48.1567 H         1 UNK         0.0600 
    224 H224      -10.4226  -22.7584  -49.4755 H         1 UNK         0.0600 
    225 H225       -7.0141  -22.7118  -51.1128 H         1 UNK         0.3000 
    226 H226       -8.2083  -23.6389  -53.5471 H         1 UNK         0.0600 
    227 H227       -6.4035  -24.8424  -52.2814 H         1 UNK         0.0600 
    228 H228       -5.9464  -24.5665  -53.9564 H         1 UNK         0.0600 
    229 H229       -5.2670  -23.5576  -52.6881 H         1 UNK         0.0600 
    230 H230       -6.5954  -20.6965  -52.7586 H         1 UNK         0.3000 
    231 H231       -5.9508  -18.8659  -53.7998 H         1 UNK         0.0600 
    232 H232       -7.3589  -19.8429  -56.3409 H         1 UNK         0.0600 
    233 H233       -6.8426  -18.2011  -55.9896 H         1 UNK         0.0600 
    234 H234       -8.1276  -18.9321  -55.0414 H         1 UNK         0.0600 
    235 H235       -4.1797  -20.8338  -53.4324 H         1 UNK         0.3000 
    236 H236       -2.5143  -21.2015  -55.8655 H         1 UNK         0.0600 
    237 H237       -2.3027  -22.4098  -53.0595 H         1 UNK         0.0600 
    238 H238       -3.0672  -23.1807  -54.4461 H         1 UNK         0.0600 
    239 H239       -1.3398  -22.8668  -54.4577 H         1 UNK         0.0600 
    240 H240       -2.8608  -18.7596  -53.7652 H         1 UNK         0.3000 
    241 H241       -0.2896  -18.2720  -52.7042 H         1 UNK         0.0600 
    242 H242       -1.1800  -17.8664  -56.0493 H         1 UNK         0.3800 
    243 H243        0.1391  -16.7996  -56.4552 H         1 UNK         0.3800 
    244 H244       -1.1590  -16.0312  -52.1282 H         1 UNK         0.0800 
    245 H245       -2.4879  -16.2160  -53.2414 H         1 UNK         0.0800 
    246 H246       -2.1635  -15.8546  -49.7147 H         1 UNK         0.0800 
    247 H247       -2.6154  -17.3313  -48.9003 H         1 UNK         0.0800 
@<TRIPOS>BOND
     1    1    2 1    
     2    1  127 1    
     3    1  128 1    
     4    1  129 1    
     5    2    3 2    
     6    2    4 am   BACKBONE|DICT|INTERRES
     7    4    5 1    
     8    4  130 1    
     9    5    6 1    
    10    5   65 1    
    11    5  131 1    
    12    6    7 1    
    13    6  132 1    
    14    6  133 1    
    15    7    8 1    
    16    8    9 1    
    17    8  134 1    
    18    8  135 1    
    19    9   10 ar   
    20    9   14 ar   
    21   10   11 ar   
    22   10  136 1    
    23   11   12 ar   
    24   11  126 1    
    25   12   13 ar   
    26   12  137 1    
    27   13   14 ar   
    28   13   15 1    
    29   14  138 1    
    30   15   16 1    
    31   15  139 1    
    32   15  140 1    
    33   16   17 1    
    34   17   18 1    
    35   17  141 1    
    36   17  142 1    
    37   18   19 1    
    38   18   67 1    
    39   18  143 1    
    40   19   20 am   BACKBONE|DICT|INTERRES
    41   19  144 1    
    42   20   21 2    
    43   20   22 1    
    44   22   23 1    
    45   22   24 1    
    46   22  145 1    
    47   23  146 1    
    48   23  147 1    
    49   23  148 1    
    50   24   25 am   BACKBONE|DICT|INTERRES
    51   24  149 1    
    52   25   26 2    
    53   25   27 1    
    54   27   28 1    
    55   27   29 1    
    56   27  150 1    
    57   28  151 1    
    58   28  152 1    
    59   28  153 1    
    60   29   30 am   BACKBONE|DICT|INTERRES
    61   29  154 1    
    62   30   31 2    
    63   30   32 1    
    64   32   33 1    
    65   32   34 1    
    66   32  155 1    
    67   33  156 1    
    68   33  157 1    
    69   33  158 1    
    70   34   35 am   BACKBONE|DICT|INTERRES
    71   34  159 1    
    72   35   36 2    
    73   35   37 1    
    74   37   38 1    
    75   37   39 1    
    76   37  160 1    
    77   38  161 1    
    78   38  162 1    
    79   38  163 1    
    80   39   40 am   BACKBONE|DICT|INTERRES
    81   39  164 1    
    82   40   41 2    
    83   40   42 1    
    84   42   43 1    
    85   42   44 1    
    86   42  165 1    
    87   43  166 1    
    88   43  167 1    
    89   43  168 1    
    90   44   45 am   BACKBONE|DICT|INTERRES
    91   44  169 1    
    92   45   46 2    
    93   45   47 1    
    94   47   48 1    
    95   47   49 1    
    96   47  170 1    
    97   48  171 1    
    98   48  172 1    
    99   48  173 1    
   100   49   50 am   BACKBONE|DICT|INTERRES
   101   49  174 1    
   102   50   51 2    
   103   50   52 1    
   104   52   53 1    
   105   52   54 1    
   106   52  175 1    
   107   53  176 1    
   108   53  177 1    
   109   53  178 1    
   110   54   55 am   BACKBONE|DICT|INTERRES
   111   54  179 1    
   112   55   56 2    
   113   55   57 1    
   114   57   58 1    
   115   57   59 1    
   116   57  180 1    
   117   58  181 1    
   118   58  182 1    
   119   58  183 1    
   120   59   60 am   BACKBONE|DICT|INTERRES
   121   59  184 1    
   122   60   61 2    
   123   60   62 1    
   124   62   63 1    
   125   62   64 1    
   126   62  185 1    
   127   63  186 1    
   128   63  187 1    
   129   63  188 1    
   130   64   65 am   BACKBONE|DICT|INTERRES
   131   64  189 1    
   132   65   66 2    
   133   67   68 2    
   134   67   69 am   BACKBONE|DICT|INTERRES
   135   69   70 1    
   136   69  190 1    
   137   70   71 1    
   138   70   72 1    
   139   70  191 1    
   140   71  192 1    
   141   71  193 1    
   142   71  194 1    
   143   72   73 2    
   144   72   74 am   BACKBONE|DICT|INTERRES
   145   74   75 1    
   146   74  195 1    
   147   75   76 1    
   148   75   77 1    
   149   75  196 1    
   150   76  197 1    
   151   76  198 1    
   152   76  199 1    
   153   77   78 2    
   154   77   79 am   BACKBONE|DICT|INTERRES
   155   79   80 1    
   156   79  200 1    
   157   80   81 1    
   158   80   82 1    
   159   80  201 1    
   160   81  202 1    
   161   81  203 1    
   162   81  204 1    
   163   82   83 2    
   164   82   84 am   BACKBONE|DICT|INTERRES
   165   84   85 1    
   166   84  205 1    
   167   85   86 1    
   168   85   87 1    
   169   85  206 1    
   170   86  207 1    
   171   86  208 1    
   172   86  209 1    
   173   87   88 2    
   174   87   89 am   BACKBONE|DICT|INTERRES
   175   89   90 1    
   176   89  210 1    
   177   90   91 1    
   178   90   92 1    
   179   90  211 1    
   180   91  212 1    
   181   91  213 1    
   182   91  214 1    
   183   92   93 2    
   184   92   94 am   BACKBONE|DICT|INTERRES
   185   94   95 1    
   186   94  215 1    
   187   95   96 1    
   188   95   97 1    
   189   95  216 1    
   190   96  217 1    
   191   96  218 1    
   192   96  219 1    
   193   97   98 2    
   194   97   99 am   BACKBONE|DICT|INTERRES
   195   99  100 1    
   196   99  220 1    
   197  100  101 1    
   198  100  102 1    
   199  100  221 1    
   200  101  222 1    
   201  101  223 1    
   202  101  224 1    
   203  102  103 2    
   204  102  104 am   BACKBONE|DICT|INTERRES
   205  104  105 1    
   206  104  225 1    
   207  105  106 1    
   208  105  107 1    
   209  105  226 1    
   210  106  227 1    
   211  106  228 1    
   212  106  229 1    
   213  107  108 2    
   214  107  109 am   BACKBONE|DICT|INTERRES
   215  109  110 1    
   216  109  230 1    
   217  110  111 1    
   218  110  112 1    
   219  110  231 1    
   220  111  232 1    
   221  111  233 1    
   222  111  234 1    
   223  112  113 2    
   224  112  114 am   BACKBONE|DICT|INTERRES
   225  114  115 1    
   226  114  235 1    
   227  115  116 1    
   228  115  117 1    
   229  115  236 1    
   230  116  237 1    
   231  116  238 1    
   232  116  239 1    
   233  117  118 2    
   234  117  119 am   BACKBONE|DICT|INTERRES
   235  119  120 1    
   236  119  240 1    
   237  120  121 1    
   238  120  124 1    
   239  120  241 1    
   240  121  122 am   BACKBONE|DICT|INTERRES
   241  121  123 2    
   242  122  242 1    
   243  122  243 1    
   244  124  125 1    
   245  124  244 1    
   246  124  245 1    
   247  125  126 1    
   248  126  246 1    
   249  126  247 1    
@<TRIPOS>SUBSTRUCTURE
     1 UNK         1 GROUP             0       ****    0 ROOT    
