@<TRIPOS>MOLECULE
3R540
247   249    1
SMALL
USER_CHARGES


@<TRIPOS>ATOM
      1 CA         -2.1505  -11.3213  -46.6773 C.3       0 UNK        -0.1800 
      2 C          -2.8545  -12.5014  -46.0094 C.2       0 UNK         0.5000 
      3 O          -4.0789  -12.4930  -45.9034 O.2       0 UNK        -0.5000 
      4 N          -2.1359  -13.5332  -45.5442 N.am      1 UNK        -0.5000 
      5 CA         -0.6726  -13.6756  -45.5756 C.3       1 UNK         0.1400 
      6 C6         -0.2271  -15.1535  -45.4857 C.3       23 UNK        -0.0398 
      7 S7         -0.8803  -16.1820  -46.8408 S.3       23 UNK        -0.2404 
      8 C8          0.5287  -16.1993  -47.9920 C.3       23 UNK        -0.0205 
      9 C9          0.3531  -17.2462  -49.0831 C.ar      23 UNK        -0.0193 
     10 C10        -0.6494  -17.1026  -50.0452 C.ar      23 UNK        -0.1150 
     11 C11        -0.8185  -18.0596  -51.0513 C.ar      23 UNK        -0.0193 
     12 C12         0.0467  -19.1581  -51.1054 C.ar      23 UNK        -0.1150 
     13 C13         1.0741  -19.2991  -50.1660 C.ar      23 UNK        -0.0193 
     14 C14         1.2127  -18.3455  -49.1519 C.ar      23 UNK        -0.1150 
     15 C15         2.0783  -20.4407  -50.2791 C.3       23 UNK        -0.0205 
     16 S16         1.4303  -22.0466  -49.7149 S.3       23 UNK        -0.2404 
     17 C17         1.1069  -21.7415  -47.9430 C.3       23 UNK        -0.0398 
     18 CA         -0.2001  -22.3882  -47.4237 C.3       11 UNK         0.1400 
     19 N          -0.3729  -22.1829  -45.9841 N.am      11 UNK        -0.5000 
     20 C          -1.2243  -22.8799  -45.2157 C.2       10 UNK         0.5000 
     21 O          -1.9144  -23.8076  -45.6358 O.2       10 UNK        -0.5000 
     22 CA         -1.3649  -22.4445  -43.7429 C.3       10 UNK         0.1400 
     23 CB         -0.3359  -23.1716  -42.8653 C.3       10 UNK        -0.1800 
     24 N          -1.2173  -21.0013  -43.5572 N.am      10 UNK        -0.5000 
     25 C          -2.0256  -20.0754  -44.0935 C.2       9 UNK         0.5000 
     26 O          -3.0510  -20.3503  -44.7155 O.2       9 UNK        -0.5000 
     27 CA         -1.5891  -18.6019  -43.9715 C.3       9 UNK         0.1400 
     28 CB         -2.3759  -17.8947  -42.8602 C.3       9 UNK        -0.1800 
     29 N          -0.1498  -18.4242  -43.7449 N.am      9 UNK        -0.5000 
     30 C           0.8143  -18.8228  -44.5915 C.2       8 UNK         0.5000 
     31 O           0.5771  -19.3717  -45.6666 O.2       8 UNK        -0.5000 
     32 CA          2.2823  -18.6434  -44.1581 C.3       8 UNK         0.1400 
     33 CB          3.0020  -17.6041  -45.0299 C.3       8 UNK        -0.1800 
     34 N           2.4333  -18.2881  -42.7463 N.am      8 UNK        -0.5000 
     35 C           2.2835  -19.1522  -41.7307 C.2       7 UNK         0.5000 
     36 O           1.9985  -20.3400  -41.8886 O.2       7 UNK        -0.5000 
     37 CA          2.4525  -18.5990  -40.3011 C.3       7 UNK         0.1400 
     38 CB          3.8792  -18.8568  -39.7937 C.3       7 UNK        -0.1800 
     39 N           2.1597  -17.1686  -40.1883 N.am      7 UNK        -0.5000 
     40 C           0.9539  -16.6142  -40.3773 C.2       6 UNK         0.5000 
     41 O          -0.0585  -17.2621  -40.6382 O.2       6 UNK        -0.5000 
     42 CA          0.8766  -15.0764  -40.3155 C.3       6 UNK         0.1400 
     43 CB          0.4595  -14.6052  -38.9152 C.3       6 UNK        -0.1800 
     44 N           2.1287  -14.4130  -40.6976 N.am      6 UNK        -0.5000 
     45 C           2.6553  -14.4606  -41.9274 C.2       5 UNK         0.5000 
     46 O           2.1458  -15.0850  -42.8591 O.2       5 UNK        -0.5000 
     47 CA          3.9825  -13.7289  -42.1483 C.3       5 UNK         0.1400 
     48 CB          5.1165  -14.7483  -42.3746 C.3       5 UNK        -0.1800 
     49 N           3.8322  -12.8458  -43.2995 N.am      5 UNK        -0.5000 
     50 C           4.6933  -11.8912  -43.6735 C.2       4 UNK         0.5000 
     51 O           5.7399  -11.6366  -43.0761 O.2       4 UNK        -0.5000 
     52 CA          4.3064  -11.0611  -44.9074 C.3       4 UNK         0.1400 
     53 CB          4.2626  -11.9323  -46.1748 C.3       4 UNK        -0.1800 
     54 N           3.0020  -10.4394  -44.6986 N.am      4 UNK        -0.5000 
     55 C           2.8030   -9.1679  -44.3255 C.2       3 UNK         0.5000 
     56 O           3.7077   -8.3421  -44.1962 O.2       3 UNK        -0.5000 
     57 CA          1.3471   -8.7385  -44.0416 C.3       3 UNK         0.1400 
     58 CB          0.7227   -8.1005  -45.2922 C.3       3 UNK        -0.1800 
     59 N           0.4912   -9.8399  -43.5967 N.am      3 UNK        -0.5000 
     60 C           0.6299  -10.5007  -42.4395 C.2       2 UNK         0.5000 
     61 O           1.4364  -10.1838  -41.5649 O.2       2 UNK        -0.5000 
     62 CA         -0.2540  -11.7470  -42.2311 C.3       2 UNK         0.1400 
     63 CB         -1.4619  -11.4105  -41.3447 C.3       2 UNK        -0.1800 
     64 N          -0.7311  -12.4084  -43.4535 N.am      2 UNK        -0.5000 
     65 C           0.0261  -12.8684  -44.4623 C.2       1 UNK         0.5000 
     66 O           1.2373  -12.6715  -44.5471 O.2       1 UNK        -0.5000 
     67 C          -1.4507  -21.9161  -48.1919 C.2       11 UNK         0.5000 
     68 O          -1.9294  -22.6447  -49.0607 O.2       11 UNK        -0.5000 
     69 N          -1.9911  -20.7460  -47.8213 N.am      12 UNK        -0.5000 
     70 CA         -3.2261  -20.2000  -48.3868 C.3       12 UNK         0.1400 
     71 CB         -3.4486  -18.7705  -47.8753 C.3       12 UNK        -0.1800 
     72 C          -4.4508  -21.0858  -48.0949 C.2       12 UNK         0.5000 
     73 O          -5.2451  -21.3392  -49.0005 O.2       12 UNK        -0.5000 
     74 N          -4.5500  -21.5881  -46.8551 N.am      13 UNK        -0.5000 
     75 CA         -5.5824  -22.5271  -46.4087 C.3       13 UNK         0.1400 
     76 CB         -5.4633  -22.7302  -44.8911 C.3       13 UNK        -0.1800 
     77 C          -5.5304  -23.8814  -47.1433 C.2       13 UNK         0.5000 
     78 O          -6.5800  -24.4471  -47.4502 O.2       13 UNK        -0.5000 
     79 N          -4.3145  -24.3568  -47.4438 N.am      14 UNK        -0.5000 
     80 CA         -4.0543  -25.5569  -48.2421 C.3       14 UNK         0.1400 
     81 CB         -2.6552  -26.0881  -47.8891 C.3       14 UNK        -0.1800 
     82 C          -4.1629  -25.3178  -49.7624 C.2       14 UNK         0.5000 
     83 O          -3.9920  -26.2679  -50.5292 O.2       14 UNK        -0.5000 
     84 N          -4.3850  -24.0627  -50.1836 N.am      15 UNK        -0.5000 
     85 CA         -4.4119  -23.5831  -51.5689 C.3       15 UNK         0.1400 
     86 CB         -5.6527  -24.1398  -52.3011 C.3       15 UNK        -0.1800 
     87 C          -3.0968  -23.8680  -52.3249 C.2       15 UNK         0.5000 
     88 O          -3.1317  -24.1812  -53.5150 O.2       15 UNK        -0.5000 
     89 N          -1.9641  -23.8182  -51.6094 N.am      16 UNK        -0.5000 
     90 CA         -0.6214  -24.2119  -52.0507 C.3       16 UNK         0.1400 
     91 CB         -0.0741  -23.2035  -53.0801 C.3       16 UNK        -0.1800 
     92 C          -0.5516  -25.6760  -52.5415 C.2       16 UNK         0.5000 
     93 O           0.1591  -25.9698  -53.5027 O.2       16 UNK        -0.5000 
     94 N          -1.3145  -26.5572  -51.8750 N.am      17 UNK        -0.5000 
     95 CA         -1.5817  -27.9544  -52.2319 C.3       17 UNK         0.1400 
     96 CB         -0.2928  -28.8040  -52.2302 C.3       17 UNK        -0.1800 
     97 C          -2.3950  -28.0561  -53.5392 C.2       17 UNK         0.5000 
     98 O          -2.0403  -28.8209  -54.4380 O.2       17 UNK        -0.5000 
     99 N          -3.4775  -27.2654  -53.6015 N.am      18 UNK        -0.5000 
    100 CA        -4.4231  -27.1236  -54.7153 C.3       18 UNK         0.1400 
    101 CB        -5.2448  -28.4168  -54.8969 C.3       18 UNK        -0.1800 
    102 C         -3.7575  -26.6344  -56.0208 C.2       18 UNK         0.5000 
    103 O         -4.0000  -27.1965  -57.0910 O.2       18 UNK        -0.5000 
    104 N         -2.9292  -25.5910  -55.9001 N.am      19 UNK        -0.5000 
    105 CA        -2.1967  -24.9569  -56.9976 C.3       19 UNK         0.1400 
    106 CB        -0.7002  -25.2706  -56.8457 C.3       19 UNK        -0.1800 
    107 C         -2.4204  -23.4342  -57.0626 C.2       19 UNK         0.5000 
    108 O         -2.2291  -22.8533  -58.1319 O.2       19 UNK        -0.5000 
    109 N         -2.8163  -22.8053  -55.9485 N.am      20 UNK        -0.5000 
    110 CA        -3.0397  -21.3679  -55.8309 C.3       20 UNK         0.1400 
    111 CB        -1.7088  -20.6408  -55.5554 C.3       20 UNK        -0.1800 
    112 C         -4.0804  -21.1289  -54.7304 C.2       20 UNK         0.5000 
    113 O         -3.7227  -20.8276  -53.5903 O.2       20 UNK        -0.5000 
    114 N         -5.3602  -21.3037  -55.0809 N.am      21 UNK        -0.5000 
    115 CA        -6.5189  -21.1052  -54.2059 C.3       21 UNK         0.1400 
    116 CB        -7.7222  -21.8590  -54.8000 C.3       21 UNK        -0.1800 
    117 C         -6.8112  -19.6111  -53.9551 C.2       21 UNK         0.5000 
    118 O         -7.8468  -19.0955  -54.3797 O.2       21 UNK        -0.5000 
    119 N         -5.8699  -18.9403  -53.2853 N.am      22 UNK        -0.5000 
    120 CA        -5.9256  -17.5195  -52.9157 C.3       22 UNK         0.1400 
    121 C         -6.8921  -17.1734  -51.7432 C.2       22 UNK         0.5000 
    122 N         -7.4155  -18.1417  -51.0005 N.am      22 UNK        -0.7600 
    123 O         -7.1857  -16.0029  -51.5153 O.2       22 UNK        -0.5000 
    124 C124       -4.5043  -16.9444  -52.6898 C.3       23 UNK        -0.0398 
    125 S125       -3.5648  -17.7859  -51.3657 S.3       23 UNK        -0.2404 
    126 C126       -1.9024  -17.8691  -52.1042 C.3       23 UNK        -0.0205 
    127 H127       -1.4436  -10.8453  -45.9994 H         1 UNK         0.0600 
    128 H128       -2.8767  -10.5661  -46.9789 H         1 UNK         0.0600 
    129 H129       -1.6194  -11.6439  -47.5728 H         1 UNK         0.0600 
    130 H130       -2.6317  -14.3162  -45.1429 H         1 UNK         0.3000 
    131 H131       -0.3018  -13.2863  -46.5253 H         1 UNK         0.0600 
    132 H132        0.8610  -15.2227  -45.4864 H         1 UNK         0.0800 
    133 H133       -0.5509  -15.5941  -44.5412 H         1 UNK         0.0800 
    134 H134        0.6357  -15.2136  -48.4467 H         1 UNK         0.0800 
    135 H135        1.4482  -16.3875  -47.4369 H         1 UNK         0.0800 
    136 H136       -1.3086  -16.2468  -50.0039 H         1 UNK         0.1150 
    137 H137       -0.0617  -19.8911  -51.8921 H         1 UNK         0.1150 
    138 H138        2.0033  -18.4511  -48.4226 H         1 UNK         0.1150 
    139 H139        2.3866  -20.5394  -51.3208 H         1 UNK         0.0800 
    140 H140        2.9858  -20.2094  -49.7190 H         1 UNK         0.0800 
    141 H141        1.0915  -20.6705  -47.7574 H         1 UNK         0.0800 
    142 H142        1.9570  -22.1283  -47.3798 H         1 UNK         0.0800 
    143 H143       -0.1130  -23.4645  -47.5891 H         1 UNK         0.0600 
    144 H144        0.1023  -21.3795  -45.5892 H         1 UNK         0.3000 
    145 H145       -2.3643  -22.7263  -43.4060 H         1 UNK         0.0600 
    146 H146       -0.4774  -22.9322  -41.8112 H         1 UNK         0.0600 
    147 H147       -0.4292  -24.2535  -42.9683 H         1 UNK         0.0600 
    148 H148        0.6860  -22.9014  -43.1352 H         1 UNK         0.0600 
    149 H149       -0.3952  -20.6898  -43.0590 H         1 UNK         0.3000 
    150 H150       -1.8366  -18.1210  -44.9181 H         1 UNK         0.0600 
    151 H151       -2.1046  -16.8412  -42.7900 H         1 UNK         0.0600 
    152 H152       -2.1965  -18.3544  -41.8878 H         1 UNK         0.0600 
    153 H153       -3.4486  -17.9424  -43.0517 H         1 UNK         0.0600 
    154 H154        0.1192  -18.0073  -42.8633 H         1 UNK         0.3000 
    155 H155        2.7760  -19.6036  -44.3219 H         1 UNK         0.0600 
    156 H156        2.5692  -16.6121  -44.9202 H         1 UNK         0.0600 
    157 H157        2.9454  -17.8734  -46.0851 H         1 UNK         0.0600 
    158 H158        4.0584  -17.5364  -44.7699 H         1 UNK         0.0600 
    159 H159        2.6104  -17.3125  -42.5445 H         1 UNK         0.3000 
    160 H160        1.7555  -19.1383  -39.6562 H         1 UNK         0.0600 
    161 H161        4.6210  -18.3231  -40.3894 H         1 UNK         0.0600 
    162 H162        4.1242  -19.9188  -39.8388 H         1 UNK         0.0600 
    163 H163        3.9920  -18.5431  -38.7557 H         1 UNK         0.0600 
    164 H164        2.9371  -16.5612  -39.9762 H         1 UNK         0.3000 
    165 H165        0.1020  -14.7689  -41.0212 H         1 UNK         0.0600 
    166 H166        0.3120  -13.5252  -38.8907 H         1 UNK         0.0600 
    167 H167       -0.4813  -15.0668  -38.6120 H         1 UNK         0.0600 
    168 H168        1.2081  -14.8608  -38.1643 H         1 UNK         0.0600 
    169 H169        2.6034  -13.8919  -39.9740 H         1 UNK         0.3000 
    170 H170        4.2102  -13.1227  -41.2692 H         1 UNK         0.0600 
    171 H171        5.1837  -15.4505  -41.5427 H         1 UNK         0.0600 
    172 H172        4.9562  -15.3301  -43.2834 H         1 UNK         0.0600 
    173 H173        6.0865  -14.2589  -42.4590 H         1 UNK         0.0600 
    174 H174        2.9670  -12.9708  -43.8219 H         1 UNK         0.3000 
    175 H175        5.0728  -10.2974  -45.0551 H         1 UNK         0.0600 
    176 H176        3.5025  -12.7118  -46.1126 H         1 UNK         0.0600 
    177 H177        4.0468  -11.3284  -47.0562 H         1 UNK         0.0600 
    178 H178        5.2223  -12.4224  -46.3434 H         1 UNK         0.0600 
    179 H179        2.2070  -11.0711  -44.7228 H         1 UNK         0.3000 
    180 H180        1.3727   -7.9877  -43.2491 H         1 UNK         0.0600 
    181 H181        0.6531   -8.8128  -46.1155 H         1 UNK         0.0600 
    182 H182        1.3192   -7.2556  -45.6388 H         1 UNK         0.0600 
    183 H183       -0.2800   -7.7256  -45.0859 H         1 UNK         0.0600 
    184 H184       -0.2048  -10.1655  -44.2492 H         1 UNK         0.3000 
    185 H185        0.3604  -12.4706  -41.6968 H         1 UNK         0.0600 
    186 H186       -1.1461  -10.9404  -40.4122 H         1 UNK         0.0600 
    187 H187       -2.1466  -10.7238  -41.8439 H         1 UNK         0.0600 
    188 H188       -2.0192  -12.3090  -41.0789 H         1 UNK         0.0600 
    189 H189       -1.7209  -12.6065  -43.4897 H         1 UNK         0.3000 
    190 H190       -1.5416  -20.2074  -47.0947 H         1 UNK         0.3000 
    191 H191       -3.1009  -20.1563  -49.4709 H         1 UNK         0.0600 
    192 H192       -2.6331  -18.1191  -48.1848 H         1 UNK         0.0600 
    193 H193       -4.3680  -18.3493  -48.2840 H         1 UNK         0.0600 
    194 H194       -3.5220  -18.7283  -46.7891 H         1 UNK         0.0600 
    195 H195       -3.8833  -21.2786  -46.1522 H         1 UNK         0.3000 
    196 H196       -6.5538  -22.0742  -46.6172 H         1 UNK         0.0600 
    197 H197       -6.2459  -23.3948  -44.5229 H         1 UNK         0.0600 
    198 H198       -5.5609  -21.7847  -44.3572 H         1 UNK         0.0600 
    199 H199       -4.5036  -23.1703  -44.6193 H         1 UNK         0.0600 
    200 H200       -3.4989  -23.8570  -47.1086 H         1 UNK         0.3000 
    201 H201       -4.7860  -26.3237  -47.9803 H         1 UNK         0.0600 
    202 H202       -2.5746  -26.3066  -46.8241 H         1 UNK         0.0600 
    203 H203       -1.8768  -25.3673  -48.1420 H         1 UNK         0.0600 
    204 H204       -2.4353  -27.0123  -48.4251 H         1 UNK         0.0600 
    205 H205       -4.4833  -23.3403  -49.4810 H         1 UNK         0.3000 
    206 H206       -4.5047  -22.4974  -51.5232 H         1 UNK         0.0600 
    207 H207       -6.5716  -23.8034  -51.8212 H         1 UNK         0.0600 
    208 H208       -5.6880  -23.8087  -53.3386 H         1 UNK         0.0600 
    209 H209       -5.6655  -25.2291  -52.3137 H         1 UNK         0.0600 
    210 H210       -2.0282  -23.4973  -50.6435 H         1 UNK         0.3000 
    211 H211        0.0136  -24.1646  -51.1665 H         1 UNK         0.0600 
    212 H212       -0.6227  -23.2487  -54.0203 H         1 UNK         0.0600 
    213 H213        0.9748  -23.4012  -53.3026 H         1 UNK         0.0600 
    214 H214       -0.1374  -22.1842  -52.7006 H         1 UNK         0.0600 
    215 H215       -1.9048  -26.1956  -51.1365 H         1 UNK         0.3000 
    216 H216       -2.2261  -28.3479  -51.4443 H         1 UNK         0.0600 
    217 H217       -0.5281  -29.8622  -52.3483 H         1 UNK         0.0600 
    218 H218        0.2500  -28.6950  -51.2914 H         1 UNK         0.0600 
    219 H219        0.3812  -28.5310  -53.0422 H         1 UNK         0.0600 
    220 H220       -3.6616  -26.6747  -52.8002 H         1 UNK         0.3000 
    221 H221       -5.1192  -26.3361  -54.4252 H         1 UNK         0.0600 
    222 H222       -4.6236  -29.2498  -55.2271 H         1 UNK         0.0600 
    223 H223       -5.7299  -28.7087  -53.9655 H         1 UNK         0.0600 
    224 H224       -6.0301  -28.2794  -55.6410 H         1 UNK         0.0600 
    225 H225       -2.8222  -25.1761  -54.9769 H         1 UNK         0.3000 
    226 H226       -2.5315  -25.3605  -57.9552 H         1 UNK         0.0600 
    227 H227       -0.5228  -26.3460  -56.8218 H         1 UNK         0.0600 
    228 H228       -0.1277  -24.8629  -57.6796 H         1 UNK         0.0600 
    229 H229       -0.2929  -24.8447  -55.9287 H         1 UNK         0.0600 
    230 H230       -2.9722  -23.3362  -55.0937 H         1 UNK         0.3000 
    231 H231       -3.4535  -20.9822  -56.7651 H         1 UNK         0.0600 
    232 H232       -1.2448  -20.9812  -54.6300 H         1 UNK         0.0600 
    233 H233       -1.8663  -19.5656  -55.4646 H         1 UNK         0.0600 
    234 H234       -0.9956  -20.7977  -56.3645 H         1 UNK         0.0600 
    235 H235       -5.5672  -21.5512  -56.0377 H         1 UNK         0.3000 
    236 H236       -6.3026  -21.5435  -53.2307 H         1 UNK         0.0600 
    237 H237       -7.5124  -22.9243  -54.8965 H         1 UNK         0.0600 
    238 H238       -8.6001  -21.7597  -54.1604 H         1 UNK         0.0600 
    239 H239       -7.9890  -21.4794  -55.7871 H         1 UNK         0.0600 
    240 H240       -5.0272  -19.4392  -53.0154 H         1 UNK         0.3000 
    241 H241       -6.3354  -16.9905  -53.7784 H         1 UNK         0.0600 
    242 H242       -8.0453  -17.9061  -50.2501 H         1 UNK         0.3800 
    243 H243       -7.1677  -19.1036  -51.1655 H         1 UNK         0.3800 
    244 H244       -3.9445  -17.0176  -53.6231 H         1 UNK         0.0800 
    245 H245       -4.5504  -15.8788  -52.4592 H         1 UNK         0.0800 
    246 H246       -1.8828  -18.6760  -52.8387 H         1 UNK         0.0800 
    247 H247       -1.6947  -16.9451  -52.6455 H         1 UNK         0.0800 
@<TRIPOS>BOND
     1    1    2 1    
     2    1  127 1    
     3    1  128 1    
     4    1  129 1    
     5    2    3 2    
     6    2    4 am   BACKBONE|DICT|INTERRES
     7    4    5 1    
     8    4  130 1    
     9    5    6 1    
    10    5   65 1    
    11    5  131 1    
    12    6    7 1    
    13    6  132 1    
    14    6  133 1    
    15    7    8 1    
    16    8    9 1    
    17    8  134 1    
    18    8  135 1    
    19    9   10 ar   
    20    9   14 ar   
    21   10   11 ar   
    22   10  136 1    
    23   11   12 ar   
    24   11  126 1    
    25   12   13 ar   
    26   12  137 1    
    27   13   14 ar   
    28   13   15 1    
    29   14  138 1    
    30   15   16 1    
    31   15  139 1    
    32   15  140 1    
    33   16   17 1    
    34   17   18 1    
    35   17  141 1    
    36   17  142 1    
    37   18   19 1    
    38   18   67 1    
    39   18  143 1    
    40   19   20 am   BACKBONE|DICT|INTERRES
    41   19  144 1    
    42   20   21 2    
    43   20   22 1    
    44   22   23 1    
    45   22   24 1    
    46   22  145 1    
    47   23  146 1    
    48   23  147 1    
    49   23  148 1    
    50   24   25 am   BACKBONE|DICT|INTERRES
    51   24  149 1    
    52   25   26 2    
    53   25   27 1    
    54   27   28 1    
    55   27   29 1    
    56   27  150 1    
    57   28  151 1    
    58   28  152 1    
    59   28  153 1    
    60   29   30 am   BACKBONE|DICT|INTERRES
    61   29  154 1    
    62   30   31 2    
    63   30   32 1    
    64   32   33 1    
    65   32   34 1    
    66   32  155 1    
    67   33  156 1    
    68   33  157 1    
    69   33  158 1    
    70   34   35 am   BACKBONE|DICT|INTERRES
    71   34  159 1    
    72   35   36 2    
    73   35   37 1    
    74   37   38 1    
    75   37   39 1    
    76   37  160 1    
    77   38  161 1    
    78   38  162 1    
    79   38  163 1    
    80   39   40 am   BACKBONE|DICT|INTERRES
    81   39  164 1    
    82   40   41 2    
    83   40   42 1    
    84   42   43 1    
    85   42   44 1    
    86   42  165 1    
    87   43  166 1    
    88   43  167 1    
    89   43  168 1    
    90   44   45 am   BACKBONE|DICT|INTERRES
    91   44  169 1    
    92   45   46 2    
    93   45   47 1    
    94   47   48 1    
    95   47   49 1    
    96   47  170 1    
    97   48  171 1    
    98   48  172 1    
    99   48  173 1    
   100   49   50 am   BACKBONE|DICT|INTERRES
   101   49  174 1    
   102   50   51 2    
   103   50   52 1    
   104   52   53 1    
   105   52   54 1    
   106   52  175 1    
   107   53  176 1    
   108   53  177 1    
   109   53  178 1    
   110   54   55 am   BACKBONE|DICT|INTERRES
   111   54  179 1    
   112   55   56 2    
   113   55   57 1    
   114   57   58 1    
   115   57   59 1    
   116   57  180 1    
   117   58  181 1    
   118   58  182 1    
   119   58  183 1    
   120   59   60 am   BACKBONE|DICT|INTERRES
   121   59  184 1    
   122   60   61 2    
   123   60   62 1    
   124   62   63 1    
   125   62   64 1    
   126   62  185 1    
   127   63  186 1    
   128   63  187 1    
   129   63  188 1    
   130   64   65 am   BACKBONE|DICT|INTERRES
   131   64  189 1    
   132   65   66 2    
   133   67   68 2    
   134   67   69 am   BACKBONE|DICT|INTERRES
   135   69   70 1    
   136   69  190 1    
   137   70   71 1    
   138   70   72 1    
   139   70  191 1    
   140   71  192 1    
   141   71  193 1    
   142   71  194 1    
   143   72   73 2    
   144   72   74 am   BACKBONE|DICT|INTERRES
   145   74   75 1    
   146   74  195 1    
   147   75   76 1    
   148   75   77 1    
   149   75  196 1    
   150   76  197 1    
   151   76  198 1    
   152   76  199 1    
   153   77   78 2    
   154   77   79 am   BACKBONE|DICT|INTERRES
   155   79   80 1    
   156   79  200 1    
   157   80   81 1    
   158   80   82 1    
   159   80  201 1    
   160   81  202 1    
   161   81  203 1    
   162   81  204 1    
   163   82   83 2    
   164   82   84 am   BACKBONE|DICT|INTERRES
   165   84   85 1    
   166   84  205 1    
   167   85   86 1    
   168   85   87 1    
   169   85  206 1    
   170   86  207 1    
   171   86  208 1    
   172   86  209 1    
   173   87   88 2    
   174   87   89 am   BACKBONE|DICT|INTERRES
   175   89   90 1    
   176   89  210 1    
   177   90   91 1    
   178   90   92 1    
   179   90  211 1    
   180   91  212 1    
   181   91  213 1    
   182   91  214 1    
   183   92   93 2    
   184   92   94 am   BACKBONE|DICT|INTERRES
   185   94   95 1    
   186   94  215 1    
   187   95   96 1    
   188   95   97 1    
   189   95  216 1    
   190   96  217 1    
   191   96  218 1    
   192   96  219 1    
   193   97   98 2    
   194   97   99 am   BACKBONE|DICT|INTERRES
   195   99  100 1    
   196   99  220 1    
   197  100  101 1    
   198  100  102 1    
   199  100  221 1    
   200  101  222 1    
   201  101  223 1    
   202  101  224 1    
   203  102  103 2    
   204  102  104 am   BACKBONE|DICT|INTERRES
   205  104  105 1    
   206  104  225 1    
   207  105  106 1    
   208  105  107 1    
   209  105  226 1    
   210  106  227 1    
   211  106  228 1    
   212  106  229 1    
   213  107  108 2    
   214  107  109 am   BACKBONE|DICT|INTERRES
   215  109  110 1    
   216  109  230 1    
   217  110  111 1    
   218  110  112 1    
   219  110  231 1    
   220  111  232 1    
   221  111  233 1    
   222  111  234 1    
   223  112  113 2    
   224  112  114 am   BACKBONE|DICT|INTERRES
   225  114  115 1    
   226  114  235 1    
   227  115  116 1    
   228  115  117 1    
   229  115  236 1    
   230  116  237 1    
   231  116  238 1    
   232  116  239 1    
   233  117  118 2    
   234  117  119 am   BACKBONE|DICT|INTERRES
   235  119  120 1    
   236  119  240 1    
   237  120  121 1    
   238  120  124 1    
   239  120  241 1    
   240  121  122 am   BACKBONE|DICT|INTERRES
   241  121  123 2    
   242  122  242 1    
   243  122  243 1    
   244  124  125 1    
   245  124  244 1    
   246  124  245 1    
   247  125  126 1    
   248  126  246 1    
   249  126  247 1    
@<TRIPOS>SUBSTRUCTURE
     1 UNK         1 GROUP             0       ****    0 ROOT    
