@<TRIPOS>MOLECULE
3R540
247   249    1
SMALL
USER_CHARGES


@<TRIPOS>ATOM
      1 CA          5.2932  -13.9326  -46.4267 C.3       0 UNK        -0.1800 
      2 C           3.8928  -14.2791  -46.9112 C.2       0 UNK         0.5000 
      3 O           3.0853  -14.7926  -46.1392 O.2       0 UNK        -0.5000 
      4 N           3.6016  -13.9813  -48.1841 N.am      1 UNK        -0.5000 
      5 CA          2.3509  -14.2982  -48.8930 C.3       1 UNK         0.1400 
      6 C6          2.4147  -13.8705  -50.3824 C.3       23 UNK        -0.0398 
      7 S7          3.8886  -14.5102  -51.2521 S.3       23 UNK        -0.2404 
      8 C8          3.1585  -15.3182  -52.7137 C.3       23 UNK        -0.0205 
      9 C9          2.3442  -16.5605  -52.3747 C.ar      23 UNK        -0.0193 
     10 C10         1.0417  -16.7002  -52.8636 C.ar      23 UNK        -0.1150 
     11 C11         0.3048  -17.8599  -52.6046 C.ar      23 UNK        -0.0193 
     12 C12         0.8726  -18.8771  -51.8326 C.ar      23 UNK        -0.1150 
     13 C13         2.1640  -18.7388  -51.3162 C.ar      23 UNK        -0.0193 
     14 C14         2.9000  -17.5872  -51.6051 C.ar      23 UNK        -0.1150 
     15 C15         2.7685  -19.8286  -50.4441 C.3       23 UNK        -0.0205 
     16 S16         2.6969  -19.3979  -48.6749 S.3       23 UNK        -0.2404 
     17 C17         0.9160  -19.5801  -48.3245 C.3       23 UNK        -0.0398 
     18 CA          0.5768  -20.9907  -47.7913 C.3       11 UNK         0.1400 
     19 N           0.9953  -21.1843  -46.4001 N.am      11 UNK        -0.5000 
     20 C           0.9682  -22.3586  -45.7540 C.2       10 UNK         0.5000 
     21 O           0.6385  -23.4204  -46.2819 O.2       10 UNK        -0.5000 
     22 CA          1.3054  -22.3356  -44.2517 C.3       10 UNK         0.1400 
     23 CB          2.8225  -22.2636  -44.0234 C.3       10 UNK        -0.1800 
     24 N           0.6460  -21.2326  -43.5520 N.am      10 UNK        -0.5000 
     25 C          -0.6827  -21.0901  -43.4411 C.2       9 UNK         0.5000 
     26 O          -1.4962  -21.9141  -43.8569 O.2       9 UNK        -0.5000 
     27 CA         -1.1897  -19.7780  -42.8190 C.3       9 UNK         0.1400 
     28 CB         -1.1705  -19.8385  -41.2845 C.3       9 UNK        -0.1800 
     29 N          -0.4177  -18.6265  -43.2842 N.am      9 UNK        -0.5000 
     30 C          -0.4660  -18.1455  -44.5350 C.2       8 UNK         0.5000 
     31 O          -1.2028  -18.5935  -45.4119 O.2       8 UNK        -0.5000 
     32 CA          0.5022  -17.0020  -44.8753 C.3       8 UNK         0.1400 
     33 CB         -0.1341  -15.6453  -44.5542 C.3       8 UNK        -0.1800 
     34 N           1.7793  -17.1351  -44.1749 N.am      8 UNK        -0.5000 
     35 C           2.6859  -18.0779  -44.4683 C.2       7 UNK         0.5000 
     36 O           2.5197  -18.9308  -45.3387 O.2       7 UNK        -0.5000 
     37 CA          3.9605  -18.1221  -43.6055 C.3       7 UNK         0.1400 
     38 CB          4.9981  -17.1175  -44.1273 C.3       7 UNK        -0.1800 
     39 N           3.7074  -17.8608  -42.1885 N.am      7 UNK        -0.5000 
     40 C           2.8913  -18.5768  -41.4036 C.2       6 UNK         0.5000 
     41 O           2.2879  -19.5807  -41.7842 O.2       6 UNK        -0.5000 
     42 CA          2.6582  -18.0596  -39.9693 C.3       6 UNK         0.1400 
     43 CB          3.7649  -17.1078  -39.4618 C.3       6 UNK        -0.1800 
     44 N           1.3410  -17.4276  -39.8262 N.am      6 UNK        -0.5000 
     45 C           0.8553  -16.4054  -40.5468 C.2       5 UNK         0.5000 
     46 O           1.4619  -15.8839  -41.4851 O.2       5 UNK        -0.5000 
     47 CA         -0.5549  -15.8842  -40.1971 C.3       5 UNK         0.1400 
     48 CB         -1.1100  -16.3804  -38.8425 C.3       5 UNK        -0.1800 
     49 N          -0.6021  -14.4230  -40.2972 N.am      5 UNK        -0.5000 
     50 C           0.0723  -13.5374  -39.5507 C.2       4 UNK         0.5000 
     51 O           0.7382  -13.8312  -38.5558 O.2       4 UNK        -0.5000 
     52 CA          0.0376  -12.0801  -40.0538 C.3       4 UNK         0.1400 
     53 CB          0.4073  -11.0667  -38.9558 C.3       4 UNK        -0.1800 
     54 N           0.9565  -11.9118  -41.1803 N.am      4 UNK        -0.5000 
     55 C           0.7306  -12.3435  -42.4272 C.2       3 UNK         0.5000 
     56 O          -0.3315  -12.8624  -42.7825 O.2       3 UNK        -0.5000 
     57 CA          1.9043  -12.1951  -43.4185 C.3       3 UNK         0.1400 
     58 CB          2.9691  -13.2718  -43.1511 C.3       3 UNK        -0.1800 
     59 N           1.4820  -12.2925  -44.8171 N.am      3 UNK        -0.5000 
     60 C           0.6866  -11.4130  -45.4427 C.2       2 UNK         0.5000 
     61 O           0.3290  -10.3459  -44.9399 O.2       2 UNK        -0.5000 
     62 CA          0.2281  -11.7866  -46.8655 C.3       2 UNK         0.1400 
     63 CB         -0.1678  -10.5617  -47.7108 C.3       2 UNK        -0.1800 
     64 N           1.2697  -12.5359  -47.5660 N.am      2 UNK        -0.5000 
     65 C           1.0945  -13.6826  -48.2354 C.2       1 UNK         0.5000 
     66 O           0.0084  -14.2510  -48.3519 O.2       1 UNK        -0.5000 
     67 C          -0.9155  -21.3151  -48.0021 C.2       11 UNK         0.5000 
     68 O          -1.2427  -21.9992  -48.9707 O.2       11 UNK        -0.5000 
     69 N          -1.7890  -20.8624  -47.0905 N.am      12 UNK        -0.5000 
     70 CA         -3.2228  -21.1624  -47.1096 C.3       12 UNK         0.1400 
     71 CB         -3.9483  -20.3409  -46.0343 C.3       12 UNK        -0.1800 
     72 C          -3.5195  -22.6631  -46.9429 C.2       12 UNK         0.5000 
     73 O          -4.3777  -23.1890  -47.6516 O.2       12 UNK        -0.5000 
     74 N          -2.7814  -23.3304  -46.0446 N.am      13 UNK        -0.5000 
     75 CA         -2.8405  -24.7759  -45.8310 C.3       13 UNK         0.1400 
     76 CB         -2.0325  -25.1522  -44.5802 C.3       13 UNK        -0.1800 
     77 C          -2.3631  -25.5715  -47.0590 C.2       13 UNK         0.5000 
     78 O          -3.0334  -26.5250  -47.4547 O.2       13 UNK        -0.5000 
     79 N          -1.2502  -25.1404  -47.6715 N.am      14 UNK        -0.5000 
     80 CA         -0.7041  -25.7085  -48.9085 C.3       14 UNK         0.1400 
     81 CB          0.6678  -25.0822  -49.2010 C.3       14 UNK        -0.1800 
     82 C          -1.6493  -25.5422  -50.1147 C.2       14 UNK         0.5000 
     83 O          -1.7669  -26.4586  -50.9286 O.2       14 UNK        -0.5000 
     84 N          -2.3389  -24.3961  -50.1771 N.am      15 UNK        -0.5000 
     85 CA         -3.3836  -24.0840  -51.1534 C.3       15 UNK         0.1400 
     86 CB         -3.5794  -22.5582  -51.1859 C.3       15 UNK        -0.1800 
     87 C          -4.7264  -24.7905  -50.8727 C.2       15 UNK         0.5000 
     88 O          -5.6437  -24.6692  -51.6839 O.2       15 UNK        -0.5000 
     89 N          -4.8470  -25.4750  -49.7235 N.am      16 UNK        -0.5000 
     90 CA         -6.0482  -26.1414  -49.2042 C.3       16 UNK         0.1400 
     91 CB         -6.3963  -27.3743  -50.0634 C.3       16 UNK        -0.1800 
     92 C          -7.2411  -25.1758  -49.0251 C.2       16 UNK         0.5000 
     93 O          -8.3934  -25.5718  -49.2078 O.2       16 UNK        -0.5000 
     94 N          -6.9252  -23.9137  -48.6983 N.am      17 UNK        -0.5000 
     95 CA         -7.8143  -22.7567  -48.5635 C.3       17 UNK         0.1400 
     96 CB         -8.7856  -22.9524  -47.3812 C.3       17 UNK        -0.1800 
     97 C          -8.5441  -22.3392  -49.8622 C.2       17 UNK         0.5000 
     98 O          -9.4616  -21.5189  -49.7918 O.2       17 UNK        -0.5000 
     99 N          -8.1375  -22.8742  -51.0233 N.am      18 UNK        -0.5000 
    100 CA        -8.6885  -22.5099  -52.3274 C.3       18 UNK         0.1400 
    101 CB        -8.4580  -23.6565  -53.3221 C.3       18 UNK        -0.1800 
    102 C         -8.0605  -21.2003  -52.8334 C.2       18 UNK         0.5000 
    103 O         -6.8555  -20.9894  -52.6700 O.2       18 UNK        -0.5000 
    104 N         -8.8902  -20.3444  -53.4419 N.am      19 UNK        -0.5000 
    105 CA        -8.4976  -19.0406  -53.9733 C.3       19 UNK         0.1400 
    106 CB        -9.7567  -18.2602  -54.3821 C.3       19 UNK        -0.1800 
    107 C         -7.5268  -19.1735  -55.1601 C.2       19 UNK         0.5000 
    108 O         -7.8390  -19.8736  -56.1255 O.2       19 UNK        -0.5000 
    109 N         -6.3766  -18.4934  -55.0545 N.am      20 UNK        -0.5000 
    110 CA        -5.2962  -18.3993  -56.0457 C.3       20 UNK         0.1400 
    111 CB        -5.7861  -17.6758  -57.3175 C.3       20 UNK        -0.1800 
    112 C         -4.5865  -19.7333  -56.3703 C.2       20 UNK         0.5000 
    113 O         -3.8407  -19.7982  -57.3490 O.2       20 UNK        -0.5000 
    114 N         -4.7741  -20.7651  -55.5356 N.am      21 UNK        -0.5000 
    115 CA        -4.1547  -22.0873  -55.6704 C.3       21 UNK         0.1400 
    116 CB        -5.0897  -23.1356  -55.0440 C.3       21 UNK        -0.1800 
    117 C         -2.7316  -22.1184  -55.0711 C.2       21 UNK         0.5000 
    118 O         -2.3998  -23.0191  -54.3002 O.2       21 UNK        -0.5000 
    119 N         -1.9280  -21.1061  -55.4112 N.am      22 UNK        -0.5000 
    120 CA        -0.5652  -20.8787  -54.9160 C.3       22 UNK         0.1400 
    121 C          0.4353  -21.9922  -55.3344 C.2       22 UNK         0.5000 
    122 N          1.3906  -22.3308  -54.4790 N.am      22 UNK        -0.7600 
    123 O          0.3836  -22.5170  -56.4450 O.2       22 UNK        -0.5000 
    124 C124       -0.0318  -19.4892  -55.3504 C.3       23 UNK        -0.0398 
    125 S125       -1.1546  -18.0943  -54.9737 S.3       23 UNK        -0.2404 
    126 C126       -1.1066  -18.0151  -53.1530 C.3       23 UNK        -0.0205 
    127 H127        5.7515  -14.7978  -45.9486 H         1 UNK         0.0600 
    128 H128        5.2514  -13.1212  -45.7010 H         1 UNK         0.0600 
    129 H129        5.9386  -13.6206  -47.2481 H         1 UNK         0.0600 
    130 H130        4.3186  -13.5675  -48.7632 H         1 UNK         0.3000 
    131 H131        2.2320  -15.3835  -48.8563 H         1 UNK         0.0600 
    132 H132        2.4297  -12.7824  -50.4686 H         1 UNK         0.0800 
    133 H133        1.5158  -14.2020  -50.9058 H         1 UNK         0.0800 
    134 H134        3.9640  -15.6085  -53.3893 H         1 UNK         0.0800 
    135 H135        2.5534  -14.5890  -53.2549 H         1 UNK         0.0800 
    136 H136        0.6032  -15.9163  -53.4653 H         1 UNK         0.1150 
    137 H137        0.3041  -19.7720  -51.6216 H         1 UNK         0.1150 
    138 H138        3.9047  -17.4851  -51.2193 H         1 UNK         0.1150 
    139 H139        2.2665  -20.7831  -50.6095 H         1 UNK         0.0800 
    140 H140        3.8112  -19.9804  -50.7269 H         1 UNK         0.0800 
    141 H141        0.3522  -19.3503  -49.2277 H         1 UNK         0.0800 
    142 H142        0.6254  -18.8187  -47.6003 H         1 UNK         0.0800 
    143 H143        1.1288  -21.7172  -48.3917 H         1 UNK         0.0600 
    144 H144        1.3534  -20.3644  -45.9176 H         1 UNK         0.3000 
    145 H145        0.9421  -23.2684  -43.8157 H         1 UNK         0.0600 
    146 H146        3.0627  -22.2975  -42.9606 H         1 UNK         0.0600 
    147 H147        3.3277  -23.1046  -44.4996 H         1 UNK         0.0600 
    148 H148        3.2515  -21.3494  -44.4329 H         1 UNK         0.0600 
    149 H149        1.2487  -20.5317  -43.1311 H         1 UNK         0.3000 
    150 H150       -2.2263  -19.6407  -43.1339 H         1 UNK         0.0600 
    151 H151       -1.7628  -20.6801  -40.9231 H         1 UNK         0.0600 
    152 H152       -1.5965  -18.9343  -40.8511 H         1 UNK         0.0600 
    153 H153       -0.1614  -19.9586  -40.8914 H         1 UNK         0.0600 
    154 H154        0.2769  -18.2535  -42.6547 H         1 UNK         0.3000 
    155 H155        0.6980  -17.0318  -45.9491 H         1 UNK         0.0600 
    156 H156       -0.3461  -15.5365  -43.4908 H         1 UNK         0.0600 
    157 H157       -1.0736  -15.5157  -45.0928 H         1 UNK         0.0600 
    158 H158        0.5222  -14.8308  -44.8528 H         1 UNK         0.0600 
    159 H159        1.9473  -16.5069  -43.3963 H         1 UNK         0.3000 
    160 H160        4.3819  -19.1259  -43.6882 H         1 UNK         0.0600 
    161 H161        5.2072  -17.2867  -45.1845 H         1 UNK         0.0600 
    162 H162        5.9422  -17.2076  -43.5900 H         1 UNK         0.0600 
    163 H163        4.6475  -16.0897  -44.0234 H         1 UNK         0.0600 
    164 H164        4.1220  -17.0251  -41.8031 H         1 UNK         0.3000 
    165 H165        2.6576  -18.9394  -39.3242 H         1 UNK         0.0600 
    166 H166        3.6150  -16.8694  -38.4088 H         1 UNK         0.0600 
    167 H167        4.7503  -17.5675  -39.5486 H         1 UNK         0.0600 
    168 H168        3.7864  -16.1643  -40.0082 H         1 UNK         0.0600 
    169 H169        0.7593  -17.8049  -39.0918 H         1 UNK         0.3000 
    170 H170       -1.2152  -16.2601  -40.9798 H         1 UNK         0.0600 
    171 H171       -2.0855  -15.9393  -38.6373 H         1 UNK         0.0600 
    172 H172       -1.2460  -17.4622  -38.8416 H         1 UNK         0.0600 
    173 H173       -0.4527  -16.1291  -38.0097 H         1 UNK         0.0600 
    174 H174       -1.0018  -14.0651  -41.1577 H         1 UNK         0.3000 
    175 H175       -0.9799  -11.8579  -40.3830 H         1 UNK         0.0600 
    176 H176        1.4311  -11.2026  -38.6049 H         1 UNK         0.0600 
    177 H177        0.3110  -10.0428  -39.3174 H         1 UNK         0.0600 
    178 H178       -0.2525  -11.1693  -38.0934 H         1 UNK         0.0600 
    179 H179        1.8626  -11.5268  -40.9562 H         1 UNK         0.3000 
    180 H180        2.3543  -11.2119  -43.2666 H         1 UNK         0.0600 
    181 H181        2.5913  -14.2711  -43.3690 H         1 UNK         0.0600 
    182 H182        3.2929  -13.2664  -42.1097 H         1 UNK         0.0600 
    183 H183        3.8549  -13.1102  -43.7636 H         1 UNK         0.0600 
    184 H184        1.7281  -13.1491  -45.2973 H         1 UNK         0.3000 
    185 H185       -0.6588  -12.4103  -46.7364 H         1 UNK         0.0600 
    186 H186       -0.9843  -10.0082  -47.2455 H         1 UNK         0.0600 
    187 H187        0.6694   -9.8741  -47.8362 H         1 UNK         0.0600 
    188 H188       -0.5066  -10.8615  -48.7026 H         1 UNK         0.0600 
    189 H189        2.2052  -12.1585  -47.5036 H         1 UNK         0.3000 
    190 H190       -1.4634  -20.2498  -46.3479 H         1 UNK         0.3000 
    191 H191       -3.6110  -20.8566  -48.0831 H         1 UNK         0.0600 
    192 H192       -3.5867  -20.5770  -45.0337 H         1 UNK         0.0600 
    193 H193       -5.0210  -20.5374  -46.0509 H         1 UNK         0.0600 
    194 H194       -3.8113  -19.2717  -46.1963 H         1 UNK         0.0600 
    195 H195       -2.1365  -22.8094  -45.4569 H         1 UNK         0.3000 
    196 H196       -3.8841  -25.0417  -45.6498 H         1 UNK         0.0600 
    197 H197       -2.0823  -26.2252  -44.3912 H         1 UNK         0.0600 
    198 H198       -2.4203  -24.6473  -43.6953 H         1 UNK         0.0600 
    199 H199       -0.9807  -24.8849  -44.6816 H         1 UNK         0.0600 
    200 H200       -0.7273  -24.3750  -47.2540 H         1 UNK         0.3000 
    201 H201       -0.5607  -26.7787  -48.7461 H         1 UNK         0.0600 
    202 H202        1.3638  -25.2565  -48.3803 H         1 UNK         0.0600 
    203 H203        0.5946  -24.0054  -49.3540 H         1 UNK         0.0600 
    204 H204        1.1099  -25.5124  -50.1003 H         1 UNK         0.0600 
    205 H205       -2.1196  -23.6633  -49.5084 H         1 UNK         0.3000 
    206 H206       -3.0474  -24.4116  -52.1384 H         1 UNK         0.0600 
    207 H207       -2.6553  -22.0493  -51.4608 H         1 UNK         0.0600 
    208 H208       -4.3347  -22.2691  -51.9166 H         1 UNK         0.0600 
    209 H209       -3.9001  -22.1738  -50.2178 H         1 UNK         0.0600 
    210 H210       -4.0437  -25.5043  -49.1079 H         1 UNK         0.3000 
    211 H211       -5.7923  -26.4950  -48.2047 H         1 UNK         0.0600 
    212 H212       -6.7236  -27.0910  -51.0642 H         1 UNK         0.0600 
    213 H213       -7.1997  -27.9546  -49.6084 H         1 UNK         0.0600 
    214 H214       -5.5369  -28.0369  -50.1661 H         1 UNK         0.0600 
    215 H215       -5.9420  -23.7127  -48.5242 H         1 UNK         0.3000 
    216 H216       -7.1621  -21.9191  -48.3126 H         1 UNK         0.0600 
    217 H217       -9.3367  -22.0356  -47.1692 H         1 UNK         0.0600 
    218 H218       -8.2492  -23.2227  -46.4716 H         1 UNK         0.0600 
    219 H219       -9.5188  -23.7333  -47.5841 H         1 UNK         0.0600 
    220 H220       -7.3443  -23.5051  -51.0314 H         1 UNK         0.3000 
    221 H221       -9.7671  -22.3698  -52.2271 H         1 UNK         0.0600 
    222 H222       -7.3983  -23.8616  -53.4640 H         1 UNK         0.0600 
    223 H223       -8.9310  -24.5765  -52.9784 H         1 UNK         0.0600 
    224 H224       -8.8788  -23.4172  -54.2995 H         1 UNK         0.0600 
    225 H225       -9.8573  -20.6046  -53.5687 H         1 UNK         0.3000 
    226 H226       -8.0050  -18.4885  -53.1699 H         1 UNK         0.0600 
    227 H227      -10.4222  -18.1098  -53.5318 H         1 UNK         0.0600 
    228 H228       -9.4957  -17.2739  -54.7681 H         1 UNK         0.0600 
    229 H229      -10.3178  -18.7789  -55.1607 H         1 UNK         0.0600 
    230 H230       -6.2144  -17.9748  -54.2021 H         1 UNK         0.3000 
    231 H231       -4.5314  -17.7690  -55.5895 H         1 UNK         0.0600 
    232 H232       -6.2598  -16.7251  -57.0732 H         1 UNK         0.0600 
    233 H233       -6.5058  -18.2768  -57.8739 H         1 UNK         0.0600 
    234 H234       -4.9557  -17.4574  -57.9901 H         1 UNK         0.0600 
    235 H235       -5.3718  -20.6307  -54.7311 H         1 UNK         0.3000 
    236 H236       -4.0575  -22.3298  -56.7306 H         1 UNK         0.0600 
    237 H237       -4.6937  -24.1441  -55.1686 H         1 UNK         0.0600 
    238 H238       -5.2229  -22.9649  -53.9761 H         1 UNK         0.0600 
    239 H239       -6.0740  -23.1136  -55.5118 H         1 UNK         0.0600 
    240 H240       -2.2798  -20.4283  -56.0761 H         1 UNK         0.3000 
    241 H241       -0.6276  -20.8903  -53.8266 H         1 UNK         0.0600 
    242 H242        2.0550  -23.0401  -54.7474 H         1 UNK         0.3800 
    243 H243        1.4630  -21.9078  -53.5675 H         1 UNK         0.3800 
    244 H244        0.9394  -19.2915  -54.8938 H         1 UNK         0.0800 
    245 H245        0.1413  -19.4778  -56.4281 H         1 UNK         0.0800 
    246 H246       -1.5894  -18.9044  -52.7450 H         1 UNK         0.0800 
    247 H247       -1.7088  -17.1673  -52.8237 H         1 UNK         0.0800 
@<TRIPOS>BOND
     1    1    2 1    
     2    1  127 1    
     3    1  128 1    
     4    1  129 1    
     5    2    3 2    
     6    2    4 am   BACKBONE|DICT|INTERRES
     7    4    5 1    
     8    4  130 1    
     9    5    6 1    
    10    5   65 1    
    11    5  131 1    
    12    6    7 1    
    13    6  132 1    
    14    6  133 1    
    15    7    8 1    
    16    8    9 1    
    17    8  134 1    
    18    8  135 1    
    19    9   10 ar   
    20    9   14 ar   
    21   10   11 ar   
    22   10  136 1    
    23   11   12 ar   
    24   11  126 1    
    25   12   13 ar   
    26   12  137 1    
    27   13   14 ar   
    28   13   15 1    
    29   14  138 1    
    30   15   16 1    
    31   15  139 1    
    32   15  140 1    
    33   16   17 1    
    34   17   18 1    
    35   17  141 1    
    36   17  142 1    
    37   18   19 1    
    38   18   67 1    
    39   18  143 1    
    40   19   20 am   BACKBONE|DICT|INTERRES
    41   19  144 1    
    42   20   21 2    
    43   20   22 1    
    44   22   23 1    
    45   22   24 1    
    46   22  145 1    
    47   23  146 1    
    48   23  147 1    
    49   23  148 1    
    50   24   25 am   BACKBONE|DICT|INTERRES
    51   24  149 1    
    52   25   26 2    
    53   25   27 1    
    54   27   28 1    
    55   27   29 1    
    56   27  150 1    
    57   28  151 1    
    58   28  152 1    
    59   28  153 1    
    60   29   30 am   BACKBONE|DICT|INTERRES
    61   29  154 1    
    62   30   31 2    
    63   30   32 1    
    64   32   33 1    
    65   32   34 1    
    66   32  155 1    
    67   33  156 1    
    68   33  157 1    
    69   33  158 1    
    70   34   35 am   BACKBONE|DICT|INTERRES
    71   34  159 1    
    72   35   36 2    
    73   35   37 1    
    74   37   38 1    
    75   37   39 1    
    76   37  160 1    
    77   38  161 1    
    78   38  162 1    
    79   38  163 1    
    80   39   40 am   BACKBONE|DICT|INTERRES
    81   39  164 1    
    82   40   41 2    
    83   40   42 1    
    84   42   43 1    
    85   42   44 1    
    86   42  165 1    
    87   43  166 1    
    88   43  167 1    
    89   43  168 1    
    90   44   45 am   BACKBONE|DICT|INTERRES
    91   44  169 1    
    92   45   46 2    
    93   45   47 1    
    94   47   48 1    
    95   47   49 1    
    96   47  170 1    
    97   48  171 1    
    98   48  172 1    
    99   48  173 1    
   100   49   50 am   BACKBONE|DICT|INTERRES
   101   49  174 1    
   102   50   51 2    
   103   50   52 1    
   104   52   53 1    
   105   52   54 1    
   106   52  175 1    
   107   53  176 1    
   108   53  177 1    
   109   53  178 1    
   110   54   55 am   BACKBONE|DICT|INTERRES
   111   54  179 1    
   112   55   56 2    
   113   55   57 1    
   114   57   58 1    
   115   57   59 1    
   116   57  180 1    
   117   58  181 1    
   118   58  182 1    
   119   58  183 1    
   120   59   60 am   BACKBONE|DICT|INTERRES
   121   59  184 1    
   122   60   61 2    
   123   60   62 1    
   124   62   63 1    
   125   62   64 1    
   126   62  185 1    
   127   63  186 1    
   128   63  187 1    
   129   63  188 1    
   130   64   65 am   BACKBONE|DICT|INTERRES
   131   64  189 1    
   132   65   66 2    
   133   67   68 2    
   134   67   69 am   BACKBONE|DICT|INTERRES
   135   69   70 1    
   136   69  190 1    
   137   70   71 1    
   138   70   72 1    
   139   70  191 1    
   140   71  192 1    
   141   71  193 1    
   142   71  194 1    
   143   72   73 2    
   144   72   74 am   BACKBONE|DICT|INTERRES
   145   74   75 1    
   146   74  195 1    
   147   75   76 1    
   148   75   77 1    
   149   75  196 1    
   150   76  197 1    
   151   76  198 1    
   152   76  199 1    
   153   77   78 2    
   154   77   79 am   BACKBONE|DICT|INTERRES
   155   79   80 1    
   156   79  200 1    
   157   80   81 1    
   158   80   82 1    
   159   80  201 1    
   160   81  202 1    
   161   81  203 1    
   162   81  204 1    
   163   82   83 2    
   164   82   84 am   BACKBONE|DICT|INTERRES
   165   84   85 1    
   166   84  205 1    
   167   85   86 1    
   168   85   87 1    
   169   85  206 1    
   170   86  207 1    
   171   86  208 1    
   172   86  209 1    
   173   87   88 2    
   174   87   89 am   BACKBONE|DICT|INTERRES
   175   89   90 1    
   176   89  210 1    
   177   90   91 1    
   178   90   92 1    
   179   90  211 1    
   180   91  212 1    
   181   91  213 1    
   182   91  214 1    
   183   92   93 2    
   184   92   94 am   BACKBONE|DICT|INTERRES
   185   94   95 1    
   186   94  215 1    
   187   95   96 1    
   188   95   97 1    
   189   95  216 1    
   190   96  217 1    
   191   96  218 1    
   192   96  219 1    
   193   97   98 2    
   194   97   99 am   BACKBONE|DICT|INTERRES
   195   99  100 1    
   196   99  220 1    
   197  100  101 1    
   198  100  102 1    
   199  100  221 1    
   200  101  222 1    
   201  101  223 1    
   202  101  224 1    
   203  102  103 2    
   204  102  104 am   BACKBONE|DICT|INTERRES
   205  104  105 1    
   206  104  225 1    
   207  105  106 1    
   208  105  107 1    
   209  105  226 1    
   210  106  227 1    
   211  106  228 1    
   212  106  229 1    
   213  107  108 2    
   214  107  109 am   BACKBONE|DICT|INTERRES
   215  109  110 1    
   216  109  230 1    
   217  110  111 1    
   218  110  112 1    
   219  110  231 1    
   220  111  232 1    
   221  111  233 1    
   222  111  234 1    
   223  112  113 2    
   224  112  114 am   BACKBONE|DICT|INTERRES
   225  114  115 1    
   226  114  235 1    
   227  115  116 1    
   228  115  117 1    
   229  115  236 1    
   230  116  237 1    
   231  116  238 1    
   232  116  239 1    
   233  117  118 2    
   234  117  119 am   BACKBONE|DICT|INTERRES
   235  119  120 1    
   236  119  240 1    
   237  120  121 1    
   238  120  124 1    
   239  120  241 1    
   240  121  122 am   BACKBONE|DICT|INTERRES
   241  121  123 2    
   242  122  242 1    
   243  122  243 1    
   244  124  125 1    
   245  124  244 1    
   246  124  245 1    
   247  125  126 1    
   248  126  246 1    
   249  126  247 1    
@<TRIPOS>SUBSTRUCTURE
     1 UNK         1 GROUP             0       ****    0 ROOT    
