@<TRIPOS>MOLECULE
3R540
247   249    1
SMALL
USER_CHARGES


@<TRIPOS>ATOM
      1 CA         -3.9590  -10.9368  -47.9745 C.3       0 UNK        -0.1800 
      2 C          -3.0743  -12.0242  -47.3836 C.2       0 UNK         0.5000 
      3 O          -2.0720  -12.3992  -47.9912 O.2       0 UNK        -0.5000 
      4 N          -3.4221  -12.5181  -46.1876 N.am      1 UNK        -0.5000 
      5 CA         -2.7472  -13.6366  -45.5098 C.3       1 UNK         0.1400 
      6 C6         -3.6461  -14.3290  -44.4515 C.3       23 UNK        -0.0398 
      7 S7         -5.2654  -14.8592  -45.1188 S.3       23 UNK        -0.2404 
      8 C8         -4.9342  -16.5742  -45.6453 C.3       23 UNK        -0.0205 
      9 C9         -3.8835  -16.6299  -46.7431 C.ar      23 UNK        -0.0193 
     10 C10        -4.2010  -16.2394  -48.0467 C.ar      23 UNK        -0.1150 
     11 C11        -3.2176  -16.2126  -49.0401 C.ar      23 UNK        -0.0193 
     12 C12        -1.9091  -16.5884  -48.7227 C.ar      23 UNK        -0.1150 
     13 C13        -1.5872  -17.0094  -47.4289 C.ar      23 UNK        -0.0193 
     14 C14        -2.5788  -17.0283  -46.4446 C.ar      23 UNK        -0.1150 
     15 C15        -0.1733  -17.4557  -47.0884 C.3       23 UNK        -0.0205 
     16 S16         0.1371  -19.1704  -47.6161 S.3       23 UNK        -0.2404 
     17 C17        -1.2415  -20.0571  -46.8128 C.3       23 UNK        -0.0398 
     18 CA         -0.9980  -21.5780  -46.7487 C.3       11 UNK         0.1400 
     19 N           0.1188  -21.9300  -45.8737 N.am      11 UNK        -0.5000 
     20 C           0.6465  -23.1561  -45.7692 C.2       10 UNK         0.5000 
     21 O           0.2765  -24.1214  -46.4373 O.2       10 UNK        -0.5000 
     22 CA          1.7311  -23.3417  -44.6969 C.3       10 UNK         0.1400 
     23 CB          3.0977  -22.8607  -45.2073 C.3       10 UNK        -0.1800 
     24 N           1.3886  -22.6360  -43.4618 N.am      10 UNK        -0.5000 
     25 C           0.4132  -23.0142  -42.6241 C.2       9 UNK         0.5000 
     26 O          -0.2775  -24.0209  -42.7889 O.2       9 UNK        -0.5000 
     27 CA          0.1448  -22.0924  -41.4191 C.3       9 UNK         0.1400 
     28 CB          1.1446  -22.3729  -40.2872 C.3       9 UNK        -0.1800 
     29 N           0.1910  -20.6701  -41.7680 N.am      9 UNK        -0.5000 
     30 C          -0.7033  -20.0637  -42.5603 C.2       8 UNK         0.5000 
     31 O          -1.6606  -20.6390  -43.0722 O.2       8 UNK        -0.5000 
     32 CA         -0.4752  -18.5767  -42.8786 C.3       8 UNK         0.1400 
     33 CB         -1.1001  -17.6797  -41.8010 C.3       8 UNK        -0.1800 
     34 N           0.9244  -18.1992  -43.0707 N.am      8 UNK        -0.5000 
     35 C           1.7758  -18.7350  -43.9545 C.2       7 UNK         0.5000 
     36 O           1.5157  -19.7486  -44.6034 O.2       7 UNK        -0.5000 
     37 CA          3.1276  -18.0124  -44.1602 C.3       7 UNK         0.1400 
     38 CB          3.7880  -18.4162  -45.4885 C.3       7 UNK        -0.1800 
     39 N           3.0196  -16.5479  -44.1118 N.am      7 UNK        -0.5000 
     40 C           2.8817  -15.8178  -42.9969 C.2       6 UNK         0.5000 
     41 O           2.8094  -16.3142  -41.8709 O.2       6 UNK        -0.5000 
     42 CA          2.7771  -14.2933  -43.1835 C.3       6 UNK         0.1400 
     43 CB          2.6137  -13.5234  -41.8571 C.3       6 UNK        -0.1800 
     44 N           3.8807  -13.7396  -43.9680 N.am      6 UNK        -0.5000 
     45 C           5.1936  -13.7973  -43.7055 C.2       5 UNK         0.5000 
     46 O           5.6816  -14.3370  -42.7108 O.2       5 UNK        -0.5000 
     47 CA          6.0996  -13.1258  -44.7589 C.3       5 UNK         0.1400 
     48 CB          7.6070  -13.3302  -44.4963 C.3       5 UNK        -0.1800 
     49 N           5.7368  -13.5227  -46.1250 N.am      5 UNK        -0.5000 
     50 C           5.7805  -14.7587  -46.6479 C.2       4 UNK         0.5000 
     51 O           6.2264  -15.7416  -46.0554 O.2       4 UNK        -0.5000 
     52 CA          5.2178  -14.9038  -48.0795 C.3       4 UNK         0.1400 
     53 CB          4.9756  -16.3674  -48.5012 C.3       4 UNK        -0.1800 
     54 N           4.0125  -14.0975  -48.3106 N.am      4 UNK        -0.5000 
     55 C           2.8529  -14.1592  -47.6388 C.2       3 UNK         0.5000 
     56 O           2.6211  -14.9422  -46.7121 O.2       3 UNK        -0.5000 
     57 CA          1.7725  -13.1592  -48.1003 C.3       3 UNK         0.1400 
     58 CB          0.8285  -13.8267  -49.1112 C.3       3 UNK        -0.1800 
     59 N           0.9743  -12.6032  -47.0065 N.am      3 UNK        -0.5000 
     60 C           1.4490  -11.9984  -45.9066 C.2       2 UNK         0.5000 
     61 O           2.6482  -11.7917  -45.7115 O.2       2 UNK        -0.5000 
     62 CA          0.4283  -11.5402  -44.8397 C.3       2 UNK         0.1400 
     63 CB          0.3953  -10.0069  -44.7480 C.3       2 UNK        -0.1800 
     64 N          -0.9304  -12.0221  -45.0904 N.am      2 UNK        -0.5000 
     65 C          -1.3549  -13.2841  -44.9365 C.2       1 UNK         0.5000 
     66 O          -0.6779  -14.1639  -44.4046 O.2       1 UNK        -0.5000 
     67 C          -2.2872  -22.3272  -46.3605 C.2       11 UNK         0.5000 
     68 O          -2.9653  -22.8354  -47.2498 O.2       11 UNK        -0.5000 
     69 N          -2.5862  -22.4339  -45.0573 N.am      12 UNK        -0.5000 
     70 CA         -3.7224  -23.1939  -44.5299 C.3       12 UNK         0.1400 
     71 CB         -3.8560  -22.9636  -43.0175 C.3       12 UNK        -0.1800 
     72 C          -3.6335  -24.6973  -44.8446 C.2       12 UNK         0.5000 
     73 O          -4.6406  -25.2914  -45.2293 O.2       12 UNK        -0.5000 
     74 N          -2.4267  -25.2726  -44.7366 N.am      13 UNK        -0.5000 
     75 CA         -2.1360  -26.6590  -45.1144 C.3       13 UNK         0.1400 
     76 CB         -0.7237  -27.0338  -44.6408 C.3       13 UNK        -0.1800 
     77 C          -2.2994  -26.9196  -46.6267 C.2       13 UNK         0.5000 
     78 O          -2.7219  -28.0095  -47.0135 O.2       13 UNK        -0.5000 
     79 N          -2.0011  -25.9045  -47.4482 N.am      14 UNK        -0.5000 
     80 CA         -2.2009  -25.8998  -48.8995 C.3       14 UNK         0.1400 
     81 CB         -1.2103  -24.9024  -49.5229 C.3       14 UNK        -0.1800 
     82 C          -3.6503  -25.5674  -49.3227 C.2       14 UNK         0.5000 
     83 O          -3.9470  -25.6143  -50.5167 O.2       14 UNK        -0.5000 
     84 N          -4.5164  -25.2291  -48.3542 N.am      15 UNK        -0.5000 
     85 CA         -5.9068  -24.7841  -48.5051 C.3       15 UNK         0.1400 
     86 CB         -6.7956  -25.9081  -49.0770 C.3       15 UNK        -0.1800 
     87 C          -6.0432  -23.4359  -49.2491 C.2       15 UNK         0.5000 
     88 O          -7.0303  -23.2099  -49.9529 O.2       15 UNK        -0.5000 
     89 N          -5.0530  -22.5548  -49.0444 N.am      16 UNK        -0.5000 
     90 CA         -4.9267  -21.1868  -49.5464 C.3       16 UNK         0.1400 
     91 CB         -5.8189  -20.2358  -48.7196 C.3       16 UNK        -0.1800 
     92 C          -5.1382  -21.0954  -51.0696 C.2       16 UNK         0.5000 
     93 O          -4.3523  -21.6741  -51.8204 O.2       16 UNK        -0.5000 
     94 N          -6.1909  -20.3874  -51.5022 N.am      17 UNK        -0.5000 
     95 CA         -6.5452  -20.1194  -52.8990 C.3       17 UNK         0.1400 
     96 CB         -7.8085  -19.2472  -52.9308 C.3       17 UNK        -0.1800 
     97 C          -6.7301  -21.3710  -53.7809 C.2       17 UNK         0.5000 
     98 O          -6.5689  -21.2716  -54.9977 O.2       17 UNK        -0.5000 
     99 N          -7.0061  -22.5318  -53.1671 N.am      18 UNK        -0.5000 
    100 CA        -7.0697  -23.8368  -53.8320 C.3       18 UNK         0.1400 
    101 CB        -7.5490  -24.8902  -52.8249 C.3       18 UNK        -0.1800 
    102 C         -5.7331  -24.2766  -54.4679 C.2       18 UNK         0.5000 
    103 O         -5.7477  -25.0770  -55.4035 O.2       18 UNK        -0.5000 
    104 N         -4.6094  -23.7289  -53.9813 N.am      19 UNK        -0.5000 
    105 CA        -3.2704  -23.9343  -54.5347 C.3       19 UNK         0.1400 
    106 CB        -2.2346  -23.6251  -53.4419 C.3       19 UNK        -0.1800 
    107 C         -2.9913  -23.0859  -55.7940 C.2       19 UNK         0.5000 
    108 O         -1.9146  -23.2255  -56.3751 O.2       19 UNK        -0.5000 
    109 N         -3.9229  -22.1940  -56.1723 N.am      20 UNK        -0.5000 
    110 CA        -3.9011  -21.2378  -57.2913 C.3       20 UNK         0.1400 
    111 CB        -3.7066  -21.9428  -58.6469 C.3       20 UNK        -0.1800 
    112 C         -2.9008  -20.0793  -57.1074 C.2       20 UNK         0.5000 
    113 O         -3.2511  -18.9279  -57.3662 O.2       20 UNK        -0.5000 
    114 N         -1.6969  -20.3906  -56.6141 N.am      21 UNK        -0.5000 
    115 CA        -0.6668  -19.4368  -56.1943 C.3       21 UNK         0.1400 
    116 CB         0.6882  -20.1624  -56.1841 C.3       21 UNK        -0.1800 
    117 C         -0.9547  -18.8039  -54.8142 C.2       21 UNK         0.5000 
    118 O         -0.2362  -17.8899  -54.4073 O.2       21 UNK        -0.5000 
    119 N         -1.9917  -19.2999  -54.1270 N.am      22 UNK        -0.5000 
    120 CA        -2.3926  -18.9638  -52.7551 C.3       22 UNK         0.1400 
    121 C         -1.4637  -19.5836  -51.6693 C.2       22 UNK         0.5000 
    122 N         -1.6956  -19.2751  -50.4029 N.am      22 UNK        -0.7600 
    123 O         -0.5512  -20.3569  -51.9520 O.2       22 UNK        -0.5000 
    124 C124       -2.6784  -17.4461  -52.5504 C.3       23 UNK        -0.0398 
    125 S125       -4.1324  -17.1410  -51.4856 S.3       23 UNK        -0.2404 
    126 C126       -3.5736  -15.7535  -50.4451 C.3       23 UNK        -0.0205 
    127 H127       -3.3799  -10.0274  -48.1346 H         1 UNK         0.0600 
    128 H128       -4.7978  -10.6968  -47.3207 H         1 UNK         0.0600 
    129 H129       -4.3585  -11.2619  -48.9351 H         1 UNK         0.0600 
    130 H130       -4.2544  -12.1724  -45.7310 H         1 UNK         0.3000 
    131 H131       -2.5327  -14.3667  -46.2877 H         1 UNK         0.0600 
    132 H132       -3.8332  -13.6507  -43.6177 H         1 UNK         0.0800 
    133 H133       -3.1439  -15.1990  -44.0245 H         1 UNK         0.0800 
    134 H134       -5.8609  -17.0191  -46.0104 H         1 UNK         0.0800 
    135 H135       -4.6289  -17.1678  -44.7822 H         1 UNK         0.0800 
    136 H136       -5.2102  -15.9301  -48.2803 H         1 UNK         0.1150 
    137 H137       -1.1423  -16.5675  -49.4846 H         1 UNK         0.1150 
    138 H138       -2.3308  -17.3315  -45.4383 H         1 UNK         0.1150 
    139 H139        0.5510  -16.7994  -47.5724 H         1 UNK         0.0800 
    140 H140        0.0093  -17.3664  -46.0168 H         1 UNK         0.0800 
    141 H141       -2.1500  -19.8370  -47.3772 H         1 UNK         0.0800 
    142 H142       -1.3929  -19.6577  -45.8098 H         1 UNK         0.0800 
    143 H143       -0.7348  -21.9139  -47.7542 H         1 UNK         0.0600 
    144 H144        0.5276  -21.1729  -45.3306 H         1 UNK         0.3000 
    145 H145        1.8066  -24.4085  -44.4755 H         1 UNK         0.0600 
    146 H146        3.8768  -23.0229  -44.4624 H         1 UNK         0.0600 
    147 H147        3.0864  -21.7995  -45.4564 H         1 UNK         0.0600 
    148 H148        3.3889  -23.4042  -46.1069 H         1 UNK         0.0600 
    149 H149        1.8537  -21.7542  -43.3001 H         1 UNK         0.3000 
    150 H150       -0.8577  -22.3173  -41.0487 H         1 UNK         0.0600 
    151 H151        1.1193  -23.4240  -39.9964 H         1 UNK         0.0600 
    152 H152        2.1676  -22.1387  -40.5839 H         1 UNK         0.0600 
    153 H153        0.9094  -21.7857  -39.3994 H         1 UNK         0.0600 
    154 H154        0.9579  -20.1271  -41.3994 H         1 UNK         0.3000 
    155 H155       -0.9874  -18.3710  -43.8187 H         1 UNK         0.0600 
    156 H156       -0.5940  -17.7918  -40.8414 H         1 UNK         0.0600 
    157 H157       -2.1525  -17.9243  -41.6498 H         1 UNK         0.0600 
    158 H158       -1.0501  -16.6285  -42.0870 H         1 UNK         0.0600 
    159 H159        1.2614  -17.4098  -42.5315 H         1 UNK         0.3000 
    160 H160        3.7860  -18.3350  -43.3515 H         1 UNK         0.0600 
    161 H161        3.1427  -18.1841  -46.3365 H         1 UNK         0.0600 
    162 H162        3.9949  -19.4863  -45.5174 H         1 UNK         0.0600 
    163 H163        4.7383  -17.9038  -45.6318 H         1 UNK         0.0600 
    164 H164        3.0196  -16.0651  -45.0057 H         1 UNK         0.3000 
    165 H165        1.8756  -14.1296  -43.7721 H         1 UNK         0.0600 
    166 H166        2.5064  -12.4531  -42.0331 H         1 UNK         0.0600 
    167 H167        3.4675  -13.6701  -41.1949 H         1 UNK         0.0600 
    168 H168        1.7229  -13.8549  -41.3223 H         1 UNK         0.0600 
    169 H169        3.5960  -13.2514  -44.8117 H         1 UNK         0.3000 
    170 H170        5.9006  -12.0553  -44.6897 H         1 UNK         0.0600 
    171 H171        7.8926  -12.9115  -43.5306 H         1 UNK         0.0600 
    172 H172        7.8817  -14.3852  -44.4861 H         1 UNK         0.0600 
    173 H173        8.2103  -12.8334  -45.2559 H         1 UNK         0.0600 
    174 H174        5.3309  -12.7921  -46.6931 H         1 UNK         0.3000 
    175 H175        5.9879  -14.5013  -48.7391 H         1 UNK         0.0600 
    176 H176        4.1939  -16.8345  -47.9051 H         1 UNK         0.0600 
    177 H177        4.6746  -16.4284  -49.5470 H         1 UNK         0.0600 
    178 H178        5.8793  -16.9676  -48.3900 H         1 UNK         0.0600 
    179 H179        4.0936  -13.4161  -49.0527 H         1 UNK         0.3000 
    180 H180        2.2668  -12.3195  -48.5924 H         1 UNK         0.0600 
    181 H181        0.2283  -14.6043  -48.6394 H         1 UNK         0.0600 
    182 H182        1.3833  -14.2876  -49.9295 H         1 UNK         0.0600 
    183 H183        0.1448  -13.1008  -49.5516 H         1 UNK         0.0600 
    184 H184       -0.0284  -12.7032  -47.1011 H         1 UNK         0.3000 
    185 H185        0.7613  -11.9315  -43.8770 H         1 UNK         0.0600 
    186 H186        1.3838   -9.6065  -44.5185 H         1 UNK         0.0600 
    187 H187        0.0674   -9.5549  -45.6850 H         1 UNK         0.0600 
    188 H188       -0.2788   -9.6730  -43.9590 H         1 UNK         0.0600 
    189 H189       -1.5588  -11.3743  -45.5431 H         1 UNK         0.3000 
    190 H190       -2.0241  -21.9347  -44.3725 H         1 UNK         0.3000 
    191 H191       -4.6258  -22.8115  -45.0098 H         1 UNK         0.0600 
    192 H192       -4.6861  -23.5384  -42.6050 H         1 UNK         0.0600 
    193 H193       -4.0486  -21.9140  -42.7953 H         1 UNK         0.0600 
    194 H194       -2.9528  -23.2594  -42.4832 H         1 UNK         0.0600 
    195 H195       -1.6520  -24.7225  -44.3842 H         1 UNK         0.3000 
    196 H196       -2.8480  -27.3014  -44.5921 H         1 UNK         0.0600 
    197 H197        0.0404  -26.4247  -45.1234 H         1 UNK         0.0600 
    198 H198       -0.6219  -26.9043  -43.5631 H         1 UNK         0.0600 
    199 H199       -0.5012  -28.0775  -44.8662 H         1 UNK         0.0600 
    200 H200       -1.6108  -25.0597  -47.0468 H         1 UNK         0.3000 
    201 H201       -1.9685  -26.8932  -49.2883 H         1 UNK         0.0600 
    202 H202       -1.4369  -23.8754  -49.2362 H         1 UNK         0.0600 
    203 H203       -1.2381  -24.9522  -50.6113 H         1 UNK         0.0600 
    204 H204       -0.1863  -25.1171  -49.2164 H         1 UNK         0.0600 
    205 H205       -4.1657  -25.2117  -47.4050 H         1 UNK         0.3000 
    206 H206       -6.2614  -24.5853  -47.4930 H         1 UNK         0.0600 
    207 H207       -6.7526  -26.7960  -48.4462 H         1 UNK         0.0600 
    208 H208       -7.8403  -25.5993  -49.1270 H         1 UNK         0.0600 
    209 H209       -6.4920  -26.2017  -50.0805 H         1 UNK         0.0600 
    210 H210       -4.2822  -22.8500  -48.4467 H         1 UNK         0.3000 
    211 H211       -3.8901  -20.8962  -49.3715 H         1 UNK         0.0600 
    212 H212       -5.6953  -19.1994  -49.0380 H         1 UNK         0.0600 
    213 H213       -5.5492  -20.2757  -47.6639 H         1 UNK         0.0600 
    214 H214       -6.8760  -20.4923  -48.7980 H         1 UNK         0.0600 
    215 H215       -6.7955  -19.9748  -50.8071 H         1 UNK         0.3000 
    216 H216       -5.7263  -19.5435  -53.3340 H         1 UNK         0.0600 
    217 H217       -8.6573  -19.7534  -52.4694 H         1 UNK         0.0600 
    218 H218       -8.0895  -19.0013  -53.9558 H         1 UNK         0.0600 
    219 H219       -7.6504  -18.3052  -52.4050 H         1 UNK         0.0600 
    220 H220       -7.0905  -22.5368  -52.1573 H         1 UNK         0.3000 
    221 H221       -7.8083  -23.7653  -54.6329 H         1 UNK         0.0600 
    222 H222       -8.4989  -24.6072  -52.3711 H         1 UNK         0.0600 
    223 H223       -6.8203  -25.0260  -52.0264 H         1 UNK         0.0600 
    224 H224       -7.6913  -25.8580  -53.3073 H         1 UNK         0.0600 
    225 H225       -4.6732  -23.0826  -53.1994 H         1 UNK         0.3000 
    226 H226       -3.1644  -24.9841  -54.8152 H         1 UNK         0.0600 
    227 H227       -2.2238  -22.5659  -53.1820 H         1 UNK         0.0600 
    228 H228       -2.4430  -24.1890  -52.5331 H         1 UNK         0.0600 
    229 H229       -1.2282  -23.8911  -53.7671 H         1 UNK         0.0600 
    230 H230       -4.7657  -22.1424  -55.6105 H         1 UNK         0.3000 
    231 H231       -4.8953  -20.7879  -57.3027 H         1 UNK         0.0600 
    232 H232       -2.7150  -22.3857  -58.7422 H         1 UNK         0.0600 
    233 H233       -3.8249  -21.2369  -59.4698 H         1 UNK         0.0600 
    234 H234       -4.4432  -22.7337  -58.7886 H         1 UNK         0.0600 
    235 H235       -1.5003  -21.3766  -56.4628 H         1 UNK         0.3000 
    236 H236       -0.6185  -18.6262  -56.9242 H         1 UNK         0.0600 
    237 H237        0.9234  -20.5733  -57.1660 H         1 UNK         0.0600 
    238 H238        1.4968  -19.4811  -55.9159 H         1 UNK         0.0600 
    239 H239        0.6974  -20.9828  -55.4651 H         1 UNK         0.0600 
    240 H240       -2.4911  -20.0684  -54.5467 H         1 UNK         0.3000 
    241 H241       -3.3364  -19.4918  -52.6524 H         1 UNK         0.0600 
    242 H242       -2.4175  -18.6176  -50.1505 H         1 UNK         0.3800 
    243 H243       -1.0721  -19.6336  -49.6961 H         1 UNK         0.3800 
    244 H244       -2.9004  -16.9707  -53.5068 H         1 UNK         0.0800 
    245 H245       -1.7951  -16.9324  -52.1674 H         1 UNK         0.0800 
    246 H246       -2.7296  -15.2358  -50.9029 H         1 UNK         0.0800 
    247 H247       -4.3765  -15.0166  -50.3933 H         1 UNK         0.0800 
@<TRIPOS>BOND
     1    1    2 1    
     2    1  127 1    
     3    1  128 1    
     4    1  129 1    
     5    2    3 2    
     6    2    4 am   BACKBONE|DICT|INTERRES
     7    4    5 1    
     8    4  130 1    
     9    5    6 1    
    10    5   65 1    
    11    5  131 1    
    12    6    7 1    
    13    6  132 1    
    14    6  133 1    
    15    7    8 1    
    16    8    9 1    
    17    8  134 1    
    18    8  135 1    
    19    9   10 ar   
    20    9   14 ar   
    21   10   11 ar   
    22   10  136 1    
    23   11   12 ar   
    24   11  126 1    
    25   12   13 ar   
    26   12  137 1    
    27   13   14 ar   
    28   13   15 1    
    29   14  138 1    
    30   15   16 1    
    31   15  139 1    
    32   15  140 1    
    33   16   17 1    
    34   17   18 1    
    35   17  141 1    
    36   17  142 1    
    37   18   19 1    
    38   18   67 1    
    39   18  143 1    
    40   19   20 am   BACKBONE|DICT|INTERRES
    41   19  144 1    
    42   20   21 2    
    43   20   22 1    
    44   22   23 1    
    45   22   24 1    
    46   22  145 1    
    47   23  146 1    
    48   23  147 1    
    49   23  148 1    
    50   24   25 am   BACKBONE|DICT|INTERRES
    51   24  149 1    
    52   25   26 2    
    53   25   27 1    
    54   27   28 1    
    55   27   29 1    
    56   27  150 1    
    57   28  151 1    
    58   28  152 1    
    59   28  153 1    
    60   29   30 am   BACKBONE|DICT|INTERRES
    61   29  154 1    
    62   30   31 2    
    63   30   32 1    
    64   32   33 1    
    65   32   34 1    
    66   32  155 1    
    67   33  156 1    
    68   33  157 1    
    69   33  158 1    
    70   34   35 am   BACKBONE|DICT|INTERRES
    71   34  159 1    
    72   35   36 2    
    73   35   37 1    
    74   37   38 1    
    75   37   39 1    
    76   37  160 1    
    77   38  161 1    
    78   38  162 1    
    79   38  163 1    
    80   39   40 am   BACKBONE|DICT|INTERRES
    81   39  164 1    
    82   40   41 2    
    83   40   42 1    
    84   42   43 1    
    85   42   44 1    
    86   42  165 1    
    87   43  166 1    
    88   43  167 1    
    89   43  168 1    
    90   44   45 am   BACKBONE|DICT|INTERRES
    91   44  169 1    
    92   45   46 2    
    93   45   47 1    
    94   47   48 1    
    95   47   49 1    
    96   47  170 1    
    97   48  171 1    
    98   48  172 1    
    99   48  173 1    
   100   49   50 am   BACKBONE|DICT|INTERRES
   101   49  174 1    
   102   50   51 2    
   103   50   52 1    
   104   52   53 1    
   105   52   54 1    
   106   52  175 1    
   107   53  176 1    
   108   53  177 1    
   109   53  178 1    
   110   54   55 am   BACKBONE|DICT|INTERRES
   111   54  179 1    
   112   55   56 2    
   113   55   57 1    
   114   57   58 1    
   115   57   59 1    
   116   57  180 1    
   117   58  181 1    
   118   58  182 1    
   119   58  183 1    
   120   59   60 am   BACKBONE|DICT|INTERRES
   121   59  184 1    
   122   60   61 2    
   123   60   62 1    
   124   62   63 1    
   125   62   64 1    
   126   62  185 1    
   127   63  186 1    
   128   63  187 1    
   129   63  188 1    
   130   64   65 am   BACKBONE|DICT|INTERRES
   131   64  189 1    
   132   65   66 2    
   133   67   68 2    
   134   67   69 am   BACKBONE|DICT|INTERRES
   135   69   70 1    
   136   69  190 1    
   137   70   71 1    
   138   70   72 1    
   139   70  191 1    
   140   71  192 1    
   141   71  193 1    
   142   71  194 1    
   143   72   73 2    
   144   72   74 am   BACKBONE|DICT|INTERRES
   145   74   75 1    
   146   74  195 1    
   147   75   76 1    
   148   75   77 1    
   149   75  196 1    
   150   76  197 1    
   151   76  198 1    
   152   76  199 1    
   153   77   78 2    
   154   77   79 am   BACKBONE|DICT|INTERRES
   155   79   80 1    
   156   79  200 1    
   157   80   81 1    
   158   80   82 1    
   159   80  201 1    
   160   81  202 1    
   161   81  203 1    
   162   81  204 1    
   163   82   83 2    
   164   82   84 am   BACKBONE|DICT|INTERRES
   165   84   85 1    
   166   84  205 1    
   167   85   86 1    
   168   85   87 1    
   169   85  206 1    
   170   86  207 1    
   171   86  208 1    
   172   86  209 1    
   173   87   88 2    
   174   87   89 am   BACKBONE|DICT|INTERRES
   175   89   90 1    
   176   89  210 1    
   177   90   91 1    
   178   90   92 1    
   179   90  211 1    
   180   91  212 1    
   181   91  213 1    
   182   91  214 1    
   183   92   93 2    
   184   92   94 am   BACKBONE|DICT|INTERRES
   185   94   95 1    
   186   94  215 1    
   187   95   96 1    
   188   95   97 1    
   189   95  216 1    
   190   96  217 1    
   191   96  218 1    
   192   96  219 1    
   193   97   98 2    
   194   97   99 am   BACKBONE|DICT|INTERRES
   195   99  100 1    
   196   99  220 1    
   197  100  101 1    
   198  100  102 1    
   199  100  221 1    
   200  101  222 1    
   201  101  223 1    
   202  101  224 1    
   203  102  103 2    
   204  102  104 am   BACKBONE|DICT|INTERRES
   205  104  105 1    
   206  104  225 1    
   207  105  106 1    
   208  105  107 1    
   209  105  226 1    
   210  106  227 1    
   211  106  228 1    
   212  106  229 1    
   213  107  108 2    
   214  107  109 am   BACKBONE|DICT|INTERRES
   215  109  110 1    
   216  109  230 1    
   217  110  111 1    
   218  110  112 1    
   219  110  231 1    
   220  111  232 1    
   221  111  233 1    
   222  111  234 1    
   223  112  113 2    
   224  112  114 am   BACKBONE|DICT|INTERRES
   225  114  115 1    
   226  114  235 1    
   227  115  116 1    
   228  115  117 1    
   229  115  236 1    
   230  116  237 1    
   231  116  238 1    
   232  116  239 1    
   233  117  118 2    
   234  117  119 am   BACKBONE|DICT|INTERRES
   235  119  120 1    
   236  119  240 1    
   237  120  121 1    
   238  120  124 1    
   239  120  241 1    
   240  121  122 am   BACKBONE|DICT|INTERRES
   241  121  123 2    
   242  122  242 1    
   243  122  243 1    
   244  124  125 1    
   245  124  244 1    
   246  124  245 1    
   247  125  126 1    
   248  126  246 1    
   249  126  247 1    
@<TRIPOS>SUBSTRUCTURE
     1 UNK         1 GROUP             0       ****    0 ROOT    
