@<TRIPOS>MOLECULE
3R540
247   249    1
SMALL
USER_CHARGES


@<TRIPOS>ATOM
      1 CA          3.0636  -11.7020  -49.7223 C.3       0 UNK        -0.1800 
      2 C           2.6295  -12.7526  -48.7115 C.2       0 UNK         0.5000 
      3 O           2.6941  -12.5074  -47.5049 O.2       0 UNK        -0.5000 
      4 N           2.1611  -13.9131  -49.1905 N.am      1 UNK        -0.5000 
      5 CA          1.7422  -15.0845  -48.4024 C.3       1 UNK         0.1400 
      6 C6          1.7690  -16.3888  -49.2359 C.3       23 UNK        -0.0398 
      7 S7          3.3953  -16.7138  -50.0079 S.3       23 UNK        -0.2404 
      8 C8          3.5003  -18.5312  -49.9306 C.3       23 UNK        -0.0205 
      9 C9          2.5165  -19.1929  -50.8845 C.ar      23 UNK        -0.0193 
     10 C10         2.9044  -19.5532  -52.1775 C.ar      23 UNK        -0.1150 
     11 C11         1.9895  -20.1554  -53.0460 C.ar      23 UNK        -0.0193 
     12 C12         0.6792  -20.3880  -52.6154 C.ar      23 UNK        -0.1150 
     13 C13         0.2695  -20.0152  -51.3324 C.ar      23 UNK        -0.0193 
     14 C14         1.2079  -19.4417  -50.4692 C.ar      23 UNK        -0.1150 
     15 C15        -1.1789  -20.2591  -50.9081 C.3       23 UNK        -0.0205 
     16 S16        -1.9065  -18.9428  -49.8631 S.3       23 UNK        -0.2404 
     17 C17        -1.3492  -19.2080  -48.1307 C.3       23 UNK        -0.0398 
     18 CA         -0.7658  -20.5956  -47.7468 C.3       11 UNK         0.1400 
     19 N           0.1635  -20.5060  -46.6183 N.am      11 UNK        -0.5000 
     20 C           1.1492  -21.3834  -46.3776 C.2       10 UNK         0.5000 
     21 O           1.4474  -22.3001  -47.1414 O.2       10 UNK        -0.5000 
     22 CA          1.9251  -21.2366  -45.0528 C.3       10 UNK         0.1400 
     23 CB          3.2196  -20.4366  -45.2638 C.3       10 UNK        -0.1800 
     24 N           1.1356  -20.6220  -43.9843 N.am      10 UNK        -0.5000 
     25 C           0.0493  -21.1800  -43.4315 C.2       9 UNK         0.5000 
     26 O          -0.3616  -22.3026  -43.7226 O.2       9 UNK        -0.5000 
     27 CA         -0.7480  -20.3191  -42.4353 C.3       9 UNK         0.1400 
     28 CB         -0.1782  -20.4656  -41.0173 C.3       9 UNK        -0.1800 
     29 N          -0.8006  -18.9036  -42.8119 N.am      9 UNK        -0.5000 
     30 C          -1.3515  -18.4336  -43.9416 C.2       8 UNK         0.5000 
     31 O          -1.8966  -19.1514  -44.7801 O.2       8 UNK        -0.5000 
     32 CA         -1.2222  -16.9226  -44.2088 C.3       8 UNK         0.1400 
     33 CB         -2.2484  -16.1287  -43.3866 C.3       8 UNK        -0.1800 
     34 N           0.1228  -16.4258  -43.9238 N.am      8 UNK        -0.5000 
     35 C           1.2271  -16.7828  -44.5950 C.2       7 UNK         0.5000 
     36 O           1.2235  -17.5136  -45.5850 O.2       7 UNK        -0.5000 
     37 CA          2.5658  -16.2764  -44.0284 C.3       7 UNK         0.1400 
     38 CB          2.8538  -14.8307  -44.4663 C.3       7 UNK        -0.1800 
     39 N           2.5936  -16.3535  -42.5679 N.am      7 UNK        -0.5000 
     40 C           2.6423  -17.4958  -41.8685 C.2       6 UNK         0.5000 
     41 O           2.6948  -18.6114  -42.3852 O.2       6 UNK        -0.5000 
     42 CA          2.5898  -17.3670  -40.3345 C.3       6 UNK         0.1400 
     43 CB          3.9966  -17.1331  -39.7645 C.3       6 UNK        -0.1800 
     44 N           1.7023  -16.2909  -39.8890 N.am      6 UNK        -0.5000 
     45 C           0.3694  -16.3022  -40.0320 C.2       5 UNK         0.5000 
     46 O          -0.2565  -17.2392  -40.5242 O.2       5 UNK        -0.5000 
     47 CA         -0.3828  -15.0259  -39.6115 C.3       5 UNK         0.1400 
     48 CB         -0.6748  -15.0404  -38.1038 C.3       5 UNK        -0.1800 
     49 N           0.3319  -13.7940  -39.9607 N.am      5 UNK        -0.5000 
     50 C           0.6551  -13.4362  -41.2096 C.2       4 UNK         0.5000 
     51 O           0.3960  -14.1188  -42.2056 O.2       4 UNK        -0.5000 
     52 CA          1.4377  -12.1272  -41.3699 C.3       4 UNK         0.1400 
     53 CB          2.9116  -12.3132  -40.9700 C.3       4 UNK        -0.1800 
     54 N           1.3637  -11.7288  -42.7681 N.am      4 UNK        -0.5000 
     55 C           1.3377  -10.4791  -43.2371 C.2       3 UNK         0.5000 
     56 O           1.4503   -9.4810  -42.5238 O.2       3 UNK        -0.5000 
     57 CA          1.1575  -10.3068  -44.7601 C.3       3 UNK         0.1400 
     58 CB          2.4730   -9.8417  -45.4047 C.3       3 UNK        -0.1800 
     59 N           0.6987  -11.5127  -45.4608 N.am      3 UNK        -0.5000 
     60 C          -0.5361  -12.0377  -45.3616 C.2       2 UNK         0.5000 
     61 O          -1.3975  -11.5785  -44.6112 O.2       2 UNK        -0.5000 
     62 CA         -0.8894  -13.2583  -46.2378 C.3       2 UNK         0.1400 
     63 CB         -2.0680  -12.9309  -47.1769 C.3       2 UNK        -0.1800 
     64 N           0.2598  -13.7257  -47.0090 N.am      2 UNK        -0.5000 
     65 C           0.3841  -14.8704  -47.6840 C.2       1 UNK         0.5000 
     66 O          -0.5077  -15.7158  -47.7579 O.2       1 UNK        -0.5000 
     67 C          -1.8823  -21.6193  -47.4612 C.2       11 UNK         0.5000 
     68 O          -2.2433  -22.3847  -48.3513 O.2       11 UNK        -0.5000 
     69 N          -2.4056  -21.6242  -46.2257 N.am      12 UNK        -0.5000 
     70 CA         -3.4560  -22.5395  -45.7683 C.3       12 UNK         0.1400 
     71 CB         -3.9623  -22.0829  -44.3930 C.3       12 UNK        -0.1800 
     72 C          -3.0151  -24.0155  -45.7260 C.2       12 UNK         0.5000 
     73 O          -3.8561  -24.9028  -45.8742 O.2       12 UNK        -0.5000 
     74 N          -1.7114  -24.2518  -45.5331 N.am      13 UNK        -0.5000 
     75 CA         -1.0550  -25.5448  -45.6910 C.3       13 UNK         0.1400 
     76 CB          0.3546  -25.4634  -45.0809 C.3       13 UNK        -0.1800 
     77 C          -1.0162  -25.9384  -47.1811 C.2       13 UNK         0.5000 
     78 O          -0.1690  -25.4385  -47.9230 O.2       13 UNK        -0.5000 
     79 N          -1.9531  -26.8081  -47.5831 N.am      14 UNK        -0.5000 
     80 CA         -2.2436  -27.2182  -48.9610 C.3       14 UNK         0.1400 
     81 CB         -1.0411  -27.9452  -49.6059 C.3       14 UNK        -0.1800 
     82 C          -2.8059  -26.0446  -49.7938 C.2       14 UNK         0.5000 
     83 O          -3.5711  -25.2431  -49.2545 O.2       14 UNK        -0.5000 
     84 N          -2.4866  -25.9971  -51.0977 N.am      15 UNK        -0.5000 
     85 CA         -2.8990  -24.9737  -52.0728 C.3       15 UNK         0.1400 
     86 CB         -2.1596  -23.6502  -51.7939 C.3       15 UNK        -0.1800 
     87 C          -4.4302  -24.7823  -52.1554 C.2       15 UNK         0.5000 
     88 O          -4.9069  -23.6528  -52.2813 O.2       15 UNK        -0.5000 
     89 N          -5.1699  -25.8960  -52.0367 N.am      16 UNK        -0.5000 
     90 CA         -6.6335  -25.9769  -51.9505 C.3       16 UNK         0.1400 
     91 CB         -7.2819  -25.5455  -53.2837 C.3       16 UNK        -0.1800 
     92 C          -7.2086  -25.2292  -50.7247 C.2       16 UNK         0.5000 
     93 O          -8.2897  -24.6483  -50.8115 O.2       16 UNK        -0.5000 
     94 N          -6.4599  -25.2429  -49.6104 N.am      17 UNK        -0.5000 
     95 CA         -6.6875  -24.4881  -48.3732 C.3       17 UNK         0.1400 
     96 CB         -7.9913  -24.9235  -47.6717 C.3       17 UNK        -0.1800 
     97 C          -6.5994  -22.9723  -48.6346 C.2       17 UNK         0.5000 
     98 O          -7.5321  -22.2292  -48.3278 O.2       17 UNK        -0.5000 
     99 N          -5.4828  -22.5683  -49.2570 N.am      18 UNK        -0.5000 
    100 CA        -5.1269  -21.2247  -49.7341 C.3       18 UNK         0.1400 
    101 CB        -5.1858  -20.1825  -48.5965 C.3       18 UNK        -0.1800 
    102 C         -5.9167  -20.7309  -50.9645 C.2       18 UNK         0.5000 
    103 O         -5.5404  -19.7032  -51.5292 O.2       18 UNK        -0.5000 
    104 N         -6.9737  -21.4430  -51.3821 N.am      19 UNK        -0.5000 
    105 CA        -7.8847  -21.0376  -52.4562 C.3       19 UNK         0.1400 
    106 CB        -9.1132  -21.9580  -52.4656 C.3       19 UNK        -0.1800 
    107 C         -7.2443  -20.9772  -53.8561 C.2       19 UNK         0.5000 
    108 O         -7.7568  -20.2529  -54.7108 O.2       19 UNK        -0.5000 
    109 N         -6.1398  -21.7074  -54.0744 N.am      20 UNK        -0.5000 
    110 CA        -5.3536  -21.6381  -55.3093 C.3       20 UNK         0.1400 
    111 CB        -4.3944  -22.8353  -55.3792 C.3       20 UNK        -0.1800 
    112 C         -4.5739  -20.3148  -55.4451 C.2       20 UNK         0.5000 
    113 O         -4.2767  -19.9056  -56.5683 O.2       20 UNK        -0.5000 
    114 N         -4.2527  -19.6794  -54.3051 N.am      21 UNK        -0.5000 
    115 CA        -3.6412  -18.3518  -54.1511 C.3       21 UNK         0.1400 
    116 CB        -4.6817  -17.2656  -54.4907 C.3       21 UNK        -0.1800 
    117 C         -2.3107  -18.1468  -54.9124 C.2       21 UNK         0.5000 
    118 O         -1.9701  -17.0129  -55.2541 O.2       21 UNK        -0.5000 
    119 N         -1.5878  -19.2450  -55.1728 N.am      22 UNK        -0.5000 
    120 CA        -0.3740  -19.2995  -56.0063 C.3       22 UNK         0.1400 
    121 C         -0.6283  -19.0862  -57.5329 C.2       22 UNK         0.5000 
    122 N         -1.8582  -19.1941  -58.0234 N.am      22 UNK        -0.7600 
    123 O          0.3020  -18.8466  -58.2976 O.2       22 UNK        -0.5000 
    124 C124        0.7775  -18.4166  -55.4365 C.3       23 UNK        -0.0398 
    125 S125        2.4441  -19.1472  -55.6125 S.3       23 UNK        -0.2404 
    126 C126        2.4110  -20.5556  -54.4519 C.3       23 UNK        -0.0205 
    127 H127        2.9364  -12.0491  -50.7479 H         1 UNK         0.0600 
    128 H128        4.1143  -11.4530  -49.5744 H         1 UNK         0.0600 
    129 H129        2.4753  -10.7935  -49.5937 H         1 UNK         0.0600 
    130 H130        2.1178  -14.0406  -50.1915 H         1 UNK         0.3000 
    131 H131        2.4809  -15.2177  -47.6127 H         1 UNK         0.0600 
    132 H132        1.5274  -17.2257  -48.5800 H         1 UNK         0.0800 
    133 H133        1.0070  -16.3714  -50.0173 H         1 UNK         0.0800 
    134 H134        4.5181  -18.8345  -50.1803 H         1 UNK         0.0800 
    135 H135        3.3260  -18.8697  -48.9078 H         1 UNK         0.0800 
    136 H136        3.9150  -19.3618  -52.5104 H         1 UNK         0.1150 
    137 H137       -0.0278  -20.8517  -53.2882 H         1 UNK         0.1150 
    138 H138        0.9266  -19.1682  -49.4682 H         1 UNK         0.1150 
    139 H139       -1.8018  -20.3126  -51.8023 H         1 UNK         0.0800 
    140 H140       -1.2694  -21.2370  -50.4434 H         1 UNK         0.0800 
    141 H141       -2.1779  -18.9417  -47.4723 H         1 UNK         0.0800 
    142 H142       -0.6003  -18.4387  -47.9390 H         1 UNK         0.0800 
    143 H143       -0.1821  -20.9817  -48.5793 H         1 UNK         0.0600 
    144 H144       -0.0161  -19.7784  -45.9383 H         1 UNK         0.3000 
    145 H145        2.2003  -22.2410  -44.7240 H         1 UNK         0.0600 
    146 H146        3.8022  -20.3788  -44.3443 H         1 UNK         0.0600 
    147 H147        3.8498  -20.9080  -46.0189 H         1 UNK         0.0600 
    148 H148        3.0177  -19.4192  -45.5969 H         1 UNK         0.0600 
    149 H149        1.4489  -19.7189  -43.6455 H         1 UNK         0.3000 
    150 H150       -1.7736  -20.6912  -42.4236 H         1 UNK         0.0600 
    151 H151       -0.1534  -21.5127  -40.7130 H         1 UNK         0.0600 
    152 H152       -0.7887  -19.9313  -40.2894 H         1 UNK         0.0600 
    153 H153        0.8391  -20.0808  -40.9507 H         1 UNK         0.0600 
    154 H154       -0.4232  -18.2435  -42.1374 H         1 UNK         0.3000 
    155 H155       -1.4260  -16.7514  -45.2680 H         1 UNK         0.0600 
    156 H156       -3.2647  -16.4468  -43.6215 H         1 UNK         0.0600 
    157 H157       -2.1845  -15.0608  -43.5948 H         1 UNK         0.0600 
    158 H158       -2.1009  -16.2657  -42.3152 H         1 UNK         0.0600 
    159 H159        0.2156  -15.7762  -43.1479 H         1 UNK         0.3000 
    160 H160        3.3628  -16.9153  -44.4151 H         1 UNK         0.0600 
    161 H161        2.0075  -14.1699  -44.2848 H         1 UNK         0.0600 
    162 H162        3.0790  -14.7835  -45.5294 H         1 UNK         0.0600 
    163 H163        3.7179  -14.4204  -43.9435 H         1 UNK         0.0600 
    164 H164        2.4955  -15.4848  -42.0655 H         1 UNK         0.3000 
    165 H165        2.2118  -18.3092  -39.9325 H         1 UNK         0.0600 
    166 H166        3.9823  -17.1149  -38.6746 H         1 UNK         0.0600 
    167 H167        4.6769  -17.9308  -40.0661 H         1 UNK         0.0600 
    168 H168        4.4217  -16.1903  -40.1111 H         1 UNK         0.0600 
    169 H169        2.1365  -15.4802  -39.4733 H         1 UNK         0.3000 
    170 H170       -1.3367  -15.0176  -40.1431 H         1 UNK         0.0600 
    171 H171       -1.2217  -15.9410  -37.8211 H         1 UNK         0.0600 
    172 H172        0.2423  -15.0143  -37.5141 H         1 UNK         0.0600 
    173 H173       -1.2863  -14.1862  -37.8124 H         1 UNK         0.0600 
    174 H174        0.5840  -13.1867  -39.1940 H         1 UNK         0.3000 
    175 H175        0.9714  -11.3676  -40.7390 H         1 UNK         0.0600 
    176 H176        3.3998  -13.0776  -41.5758 H         1 UNK         0.0600 
    177 H177        3.4711  -11.3855  -41.0916 H         1 UNK         0.0600 
    178 H178        3.0038  -12.6106  -39.9249 H         1 UNK         0.0600 
    179 H179        1.1790  -12.4914  -43.4055 H         1 UNK         0.3000 
    180 H180        0.4107   -9.5243  -44.9094 H         1 UNK         0.0600 
    181 H181        3.2576  -10.5923  -45.2998 H         1 UNK         0.0600 
    182 H182        2.8339   -8.9215  -44.9435 H         1 UNK         0.0600 
    183 H183        2.3426   -9.6413  -46.4684 H         1 UNK         0.0600 
    184 H184        1.3814  -11.9185  -46.0879 H         1 UNK         0.3000 
    185 H185       -1.1887  -14.0593  -45.5604 H         1 UNK         0.0600 
    186 H186       -2.9275  -12.5593  -46.6176 H         1 UNK         0.0600 
    187 H187       -1.7950  -12.1679  -47.9066 H         1 UNK         0.0600 
    188 H188       -2.4042  -13.8117  -47.7235 H         1 UNK         0.0600 
    189 H189        1.0628  -13.1064  -47.0564 H         1 UNK         0.3000 
    190 H190       -2.0970  -20.9172  -45.5651 H         1 UNK         0.3000 
    191 H191       -4.2858  -22.4732  -46.4738 H         1 UNK         0.0600 
    192 H192       -3.1870  -22.1716  -43.6324 H         1 UNK         0.0600 
    193 H193       -4.2951  -21.0449  -44.4170 H         1 UNK         0.0600 
    194 H194       -4.8086  -22.6900  -44.0693 H         1 UNK         0.0600 
    195 H195       -1.1085  -23.4594  -45.3477 H         1 UNK         0.3000 
    196 H196       -1.6202  -26.2964  -45.1360 H         1 UNK         0.0600 
    197 H197        0.3093  -25.2347  -44.0159 H         1 UNK         0.0600 
    198 H198        0.9589  -24.6920  -45.5601 H         1 UNK         0.0600 
    199 H199        0.8823  -26.4115  -45.1902 H         1 UNK         0.0600 
    200 H200       -2.6463  -27.0878  -46.9028 H         1 UNK         0.3000 
    201 H201       -3.0560  -27.9421  -48.8866 H         1 UNK         0.0600 
    202 H202       -1.3291  -28.4387  -50.5347 H         1 UNK         0.0600 
    203 H203       -0.6527  -28.7195  -48.9443 H         1 UNK         0.0600 
    204 H204       -0.2214  -27.2631  -49.8338 H         1 UNK         0.0600 
    205 H205       -1.8716  -26.7143  -51.4558 H         1 UNK         0.3000 
    206 H206       -2.5833  -25.3302  -53.0541 H         1 UNK         0.0600 
    207 H207       -1.0817  -23.8006  -51.7368 H         1 UNK         0.0600 
    208 H208       -2.4865  -23.2114  -50.8521 H         1 UNK         0.0600 
    209 H209       -2.3441  -22.9162  -52.5781 H         1 UNK         0.0600 
    210 H210       -4.6783  -26.7724  -51.9330 H         1 UNK         0.3000 
    211 H211       -6.8740  -27.0296  -51.7962 H         1 UNK         0.0600 
    212 H212       -6.8809  -26.1193  -54.1190 H         1 UNK         0.0600 
    213 H213       -8.3599  -25.7092  -53.2677 H         1 UNK         0.0600 
    214 H214       -7.1152  -24.4897  -53.4957 H         1 UNK         0.0600 
    215 H215       -5.5439  -25.6728  -49.6657 H         1 UNK         0.3000 
    216 H216       -5.8614  -24.7348  -47.7053 H         1 UNK         0.0600 
    217 H217       -8.0845  -24.4414  -46.6981 H         1 UNK         0.0600 
    218 H218       -8.8778  -24.6609  -48.2492 H         1 UNK         0.0600 
    219 H219       -8.0067  -26.0003  -47.5038 H         1 UNK         0.0600 
    220 H220       -4.7905  -23.2803  -49.4637 H         1 UNK         0.3000 
    221 H221       -4.0889  -21.2992  -50.0599 H         1 UNK         0.0600 
    222 H222       -6.2068  -19.9950  -48.2647 H         1 UNK         0.0600 
    223 H223       -4.6055  -20.4959  -47.7317 H         1 UNK         0.0600 
    224 H224       -4.7792  -19.2258  -48.9249 H         1 UNK         0.0600 
    225 H225       -7.2055  -22.2937  -50.8886 H         1 UNK         0.3000 
    226 H226       -8.2279  -20.0285  -52.2191 H         1 UNK         0.0600 
    227 H227       -9.5789  -22.0115  -51.4813 H         1 UNK         0.0600 
    228 H228       -9.8675  -21.5923  -53.1634 H         1 UNK         0.0600 
    229 H229       -8.8537  -22.9708  -52.7715 H         1 UNK         0.0600 
    230 H230       -5.7814  -22.3037  -53.3316 H         1 UNK         0.3000 
    231 H231       -6.0396  -21.7065  -56.1562 H         1 UNK         0.0600 
    232 H232       -3.8602  -22.8510  -56.3300 H         1 UNK         0.0600 
    233 H233       -4.9331  -23.7791  -55.2924 H         1 UNK         0.0600 
    234 H234       -3.6481  -22.7989  -54.5862 H         1 UNK         0.0600 
    235 H235       -4.5829  -20.0881  -53.4386 H         1 UNK         0.3000 
    236 H236       -3.3968  -18.2547  -53.0921 H         1 UNK         0.0600 
    237 H237       -5.5993  -17.4102  -53.9198 H         1 UNK         0.0600 
    238 H238       -4.3076  -16.2696  -54.2515 H         1 UNK         0.0600 
    239 H239       -4.9409  -17.2756  -55.5500 H         1 UNK         0.0600 
    240 H240       -1.9638  -20.1341  -54.8802 H         1 UNK         0.3000 
    241 H241       -0.0632  -20.3411  -55.9382 H         1 UNK         0.0600 
    242 H242       -2.0062  -19.0631  -59.0113 H         1 UNK         0.3800 
    243 H243       -2.6528  -19.4047  -57.4248 H         1 UNK         0.3800 
    244 H244        0.7788  -17.4339  -55.9107 H         1 UNK         0.0800 
    245 H245        0.6197  -18.2088  -54.3782 H         1 UNK         0.0800 
    246 H246        3.4066  -21.0001  -54.4162 H         1 UNK         0.0800 
    247 H247        1.7537  -21.3343  -54.8405 H         1 UNK         0.0800 
@<TRIPOS>BOND
     1    1    2 1    
     2    1  127 1    
     3    1  128 1    
     4    1  129 1    
     5    2    3 2    
     6    2    4 am   BACKBONE|DICT|INTERRES
     7    4    5 1    
     8    4  130 1    
     9    5    6 1    
    10    5   65 1    
    11    5  131 1    
    12    6    7 1    
    13    6  132 1    
    14    6  133 1    
    15    7    8 1    
    16    8    9 1    
    17    8  134 1    
    18    8  135 1    
    19    9   10 ar   
    20    9   14 ar   
    21   10   11 ar   
    22   10  136 1    
    23   11   12 ar   
    24   11  126 1    
    25   12   13 ar   
    26   12  137 1    
    27   13   14 ar   
    28   13   15 1    
    29   14  138 1    
    30   15   16 1    
    31   15  139 1    
    32   15  140 1    
    33   16   17 1    
    34   17   18 1    
    35   17  141 1    
    36   17  142 1    
    37   18   19 1    
    38   18   67 1    
    39   18  143 1    
    40   19   20 am   BACKBONE|DICT|INTERRES
    41   19  144 1    
    42   20   21 2    
    43   20   22 1    
    44   22   23 1    
    45   22   24 1    
    46   22  145 1    
    47   23  146 1    
    48   23  147 1    
    49   23  148 1    
    50   24   25 am   BACKBONE|DICT|INTERRES
    51   24  149 1    
    52   25   26 2    
    53   25   27 1    
    54   27   28 1    
    55   27   29 1    
    56   27  150 1    
    57   28  151 1    
    58   28  152 1    
    59   28  153 1    
    60   29   30 am   BACKBONE|DICT|INTERRES
    61   29  154 1    
    62   30   31 2    
    63   30   32 1    
    64   32   33 1    
    65   32   34 1    
    66   32  155 1    
    67   33  156 1    
    68   33  157 1    
    69   33  158 1    
    70   34   35 am   BACKBONE|DICT|INTERRES
    71   34  159 1    
    72   35   36 2    
    73   35   37 1    
    74   37   38 1    
    75   37   39 1    
    76   37  160 1    
    77   38  161 1    
    78   38  162 1    
    79   38  163 1    
    80   39   40 am   BACKBONE|DICT|INTERRES
    81   39  164 1    
    82   40   41 2    
    83   40   42 1    
    84   42   43 1    
    85   42   44 1    
    86   42  165 1    
    87   43  166 1    
    88   43  167 1    
    89   43  168 1    
    90   44   45 am   BACKBONE|DICT|INTERRES
    91   44  169 1    
    92   45   46 2    
    93   45   47 1    
    94   47   48 1    
    95   47   49 1    
    96   47  170 1    
    97   48  171 1    
    98   48  172 1    
    99   48  173 1    
   100   49   50 am   BACKBONE|DICT|INTERRES
   101   49  174 1    
   102   50   51 2    
   103   50   52 1    
   104   52   53 1    
   105   52   54 1    
   106   52  175 1    
   107   53  176 1    
   108   53  177 1    
   109   53  178 1    
   110   54   55 am   BACKBONE|DICT|INTERRES
   111   54  179 1    
   112   55   56 2    
   113   55   57 1    
   114   57   58 1    
   115   57   59 1    
   116   57  180 1    
   117   58  181 1    
   118   58  182 1    
   119   58  183 1    
   120   59   60 am   BACKBONE|DICT|INTERRES
   121   59  184 1    
   122   60   61 2    
   123   60   62 1    
   124   62   63 1    
   125   62   64 1    
   126   62  185 1    
   127   63  186 1    
   128   63  187 1    
   129   63  188 1    
   130   64   65 am   BACKBONE|DICT|INTERRES
   131   64  189 1    
   132   65   66 2    
   133   67   68 2    
   134   67   69 am   BACKBONE|DICT|INTERRES
   135   69   70 1    
   136   69  190 1    
   137   70   71 1    
   138   70   72 1    
   139   70  191 1    
   140   71  192 1    
   141   71  193 1    
   142   71  194 1    
   143   72   73 2    
   144   72   74 am   BACKBONE|DICT|INTERRES
   145   74   75 1    
   146   74  195 1    
   147   75   76 1    
   148   75   77 1    
   149   75  196 1    
   150   76  197 1    
   151   76  198 1    
   152   76  199 1    
   153   77   78 2    
   154   77   79 am   BACKBONE|DICT|INTERRES
   155   79   80 1    
   156   79  200 1    
   157   80   81 1    
   158   80   82 1    
   159   80  201 1    
   160   81  202 1    
   161   81  203 1    
   162   81  204 1    
   163   82   83 2    
   164   82   84 am   BACKBONE|DICT|INTERRES
   165   84   85 1    
   166   84  205 1    
   167   85   86 1    
   168   85   87 1    
   169   85  206 1    
   170   86  207 1    
   171   86  208 1    
   172   86  209 1    
   173   87   88 2    
   174   87   89 am   BACKBONE|DICT|INTERRES
   175   89   90 1    
   176   89  210 1    
   177   90   91 1    
   178   90   92 1    
   179   90  211 1    
   180   91  212 1    
   181   91  213 1    
   182   91  214 1    
   183   92   93 2    
   184   92   94 am   BACKBONE|DICT|INTERRES
   185   94   95 1    
   186   94  215 1    
   187   95   96 1    
   188   95   97 1    
   189   95  216 1    
   190   96  217 1    
   191   96  218 1    
   192   96  219 1    
   193   97   98 2    
   194   97   99 am   BACKBONE|DICT|INTERRES
   195   99  100 1    
   196   99  220 1    
   197  100  101 1    
   198  100  102 1    
   199  100  221 1    
   200  101  222 1    
   201  101  223 1    
   202  101  224 1    
   203  102  103 2    
   204  102  104 am   BACKBONE|DICT|INTERRES
   205  104  105 1    
   206  104  225 1    
   207  105  106 1    
   208  105  107 1    
   209  105  226 1    
   210  106  227 1    
   211  106  228 1    
   212  106  229 1    
   213  107  108 2    
   214  107  109 am   BACKBONE|DICT|INTERRES
   215  109  110 1    
   216  109  230 1    
   217  110  111 1    
   218  110  112 1    
   219  110  231 1    
   220  111  232 1    
   221  111  233 1    
   222  111  234 1    
   223  112  113 2    
   224  112  114 am   BACKBONE|DICT|INTERRES
   225  114  115 1    
   226  114  235 1    
   227  115  116 1    
   228  115  117 1    
   229  115  236 1    
   230  116  237 1    
   231  116  238 1    
   232  116  239 1    
   233  117  118 2    
   234  117  119 am   BACKBONE|DICT|INTERRES
   235  119  120 1    
   236  119  240 1    
   237  120  121 1    
   238  120  124 1    
   239  120  241 1    
   240  121  122 am   BACKBONE|DICT|INTERRES
   241  121  123 2    
   242  122  242 1    
   243  122  243 1    
   244  124  125 1    
   245  124  244 1    
   246  124  245 1    
   247  125  126 1    
   248  126  246 1    
   249  126  247 1    
@<TRIPOS>SUBSTRUCTURE
     1 UNK         1 GROUP             0       ****    0 ROOT    
