@<TRIPOS>MOLECULE
3R540
247   249    1
SMALL
USER_CHARGES


@<TRIPOS>ATOM
      1 CA         -3.5403  -16.4265  -42.3077 C.3       0 UNK        -0.1800 
      2 C          -2.4186  -15.4236  -42.5332 C.2       0 UNK         0.5000 
      3 O          -2.1943  -14.5485  -41.6976 O.2       0 UNK        -0.5000 
      4 N          -1.6879  -15.5608  -43.6465 N.am      1 UNK        -0.5000 
      5 CA         -0.6056  -14.6675  -44.0875 C.3       1 UNK         0.1400 
      6 C6         -0.2861  -14.8254  -45.5964 C.3       23 UNK        -0.0398 
      7 S7         -0.1823  -16.5490  -46.1828 S.3       23 UNK        -0.2404 
      8 C8         -0.3903  -16.2745  -47.9716 C.3       23 UNK        -0.0205 
      9 C9         -0.3894  -17.5794  -48.7530 C.ar      23 UNK        -0.0193 
     10 C10        -1.5686  -18.0660  -49.3261 C.ar      23 UNK        -0.1150 
     11 C11        -1.5660  -19.2634  -50.0489 C.ar      23 UNK        -0.0193 
     12 C12        -0.3705  -19.9751  -50.1898 C.ar      23 UNK        -0.1150 
     13 C13         0.8165  -19.4927  -49.6353 C.ar      23 UNK        -0.0193 
     14 C14         0.7997  -18.2928  -48.9216 C.ar      23 UNK        -0.1150 
     15 C15         2.1199  -20.2606  -49.8116 C.3       23 UNK        -0.0205 
     16 S16         2.0670  -21.9330  -49.0892 S.3       23 UNK        -0.2404 
     17 C17         1.7131  -21.5781  -47.3348 C.3       23 UNK        -0.0398 
     18 CA          0.5608  -22.4460  -46.7760 C.3       11 UNK         0.1400 
     19 N           0.5885  -22.4902  -45.3137 N.am      11 UNK        -0.5000 
     20 C          -0.0296  -23.4189  -44.5703 C.2       10 UNK         0.5000 
     21 O          -0.6511  -24.3679  -45.0454 O.2       10 UNK        -0.5000 
     22 CA          0.0181  -23.2328  -43.0412 C.3       10 UNK         0.1400 
     23 CB          1.2624  -23.9154  -42.4546 C.3       10 UNK        -0.1800 
     24 N           0.0084  -21.8243  -42.6426 N.am      10 UNK        -0.5000 
     25 C          -1.0066  -20.9782  -42.8678 C.2       9 UNK         0.5000 
     26 O          -2.0795  -21.3224  -43.3590 O.2       9 UNK        -0.5000 
     27 CA         -0.7667  -19.4914  -42.5460 C.3       9 UNK         0.1400 
     28 CB         -1.3304  -19.1406  -41.1618 C.3       9 UNK        -0.1800 
     29 N           0.6438  -19.0992  -42.6068 N.am      9 UNK        -0.5000 
     30 C           1.3969  -19.1110  -43.7142 C.2       8 UNK         0.5000 
     31 O           0.9959  -19.4990  -44.8135 O.2       8 UNK        -0.5000 
     32 CA          2.8584  -18.6833  -43.5488 C.3       8 UNK         0.1400 
     33 CB          3.7803  -19.9132  -43.5522 C.3       8 UNK        -0.1800 
     34 N           3.2280  -17.7969  -44.6455 N.am      8 UNK        -0.5000 
     35 C           3.9215  -16.6599  -44.5129 C.2       7 UNK         0.5000 
     36 O           4.3165  -16.2259  -43.4290 O.2       7 UNK        -0.5000 
     37 CA          4.2455  -15.8622  -45.7874 C.3       7 UNK         0.1400 
     38 CB          3.5907  -16.4066  -47.0748 C.3       7 UNK        -0.1800 
     39 N           3.8793  -14.4674  -45.5620 N.am      7 UNK        -0.5000 
     40 C           4.3087  -13.4240  -46.2820 C.2       6 UNK         0.5000 
     41 O           5.0592  -13.5217  -47.2536 O.2       6 UNK        -0.5000 
     42 CA          3.8344  -12.0313  -45.8376 C.3       6 UNK         0.1400 
     43 CB          2.5252  -11.6472  -46.5442 C.3       6 UNK        -0.1800 
     44 N           3.6288  -11.9633  -44.3936 N.am      6 UNK        -0.5000 
     45 C           4.5595  -11.5966  -43.5035 C.2       5 UNK         0.5000 
     46 O           5.7159  -11.3000  -43.8096 O.2       5 UNK        -0.5000 
     47 CA          4.1108  -11.5478  -42.0265 C.3       5 UNK         0.1400 
     48 CB          4.9461  -10.5724  -41.1720 C.3       5 UNK        -0.1800 
     49 N           2.6757  -11.2810  -41.8757 N.am      5 UNK        -0.5000 
     50 C           1.9893  -10.1943  -42.2662 C.2       4 UNK         0.5000 
     51 O           2.5073   -9.1872  -42.7491 O.2       4 UNK        -0.5000 
     52 CA          0.4535  -10.2585  -42.1330 C.3       4 UNK         0.1400 
     53 CB         -0.1874  -10.4583  -43.5162 C.3       4 UNK        -0.1800 
     54 N           0.0069  -11.3399  -41.2538 N.am      4 UNK        -0.5000 
     55 C           0.0580  -11.3110  -39.9154 C.2       3 UNK         0.5000 
     56 O           0.3831  -10.3205  -39.2605 O.2       3 UNK        -0.5000 
     57 CA         -0.2682  -12.6320  -39.1966 C.3       3 UNK         0.1400 
     58 CB         -1.7658  -12.7148  -38.8654 C.3       3 UNK        -0.1800 
     59 N           0.1263  -13.8042  -39.9854 N.am      3 UNK        -0.5000 
     60 C           1.3981  -14.1937  -40.1711 C.2       2 UNK         0.5000 
     61 O           2.3667  -13.5967  -39.7035 O.2       2 UNK        -0.5000 
     62 CA          1.6346  -15.4406  -41.0435 C.3       2 UNK         0.1400 
     63 CB          1.5330  -16.6984  -40.1660 C.3       2 UNK        -0.1800 
     64 N           0.6907  -15.5272  -42.1608 N.am      2 UNK        -0.5000 
     65 C           0.6603  -14.6745  -43.1963 C.2       1 UNK         0.5000 
     66 O           1.5559  -13.8574  -43.4256 O.2       1 UNK        -0.5000 
     67 C          -0.8284  -22.0025  -47.2830 C.2       11 UNK         0.5000 
     68 O          -1.3495  -22.5982  -48.2285 O.2       11 UNK        -0.5000 
     69 N          -1.4312  -21.0169  -46.5991 N.am      12 UNK        -0.5000 
     70 CA         -2.7967  -20.5511  -46.8514 C.3       12 UNK         0.1400 
     71 CB         -3.0703  -19.2665  -46.0560 C.3       12 UNK        -0.1800 
     72 C          -3.8631  -21.6216  -46.5619 C.2       12 UNK         0.5000 
     73 O          -4.8320  -21.7298  -47.3132 O.2       12 UNK        -0.5000 
     74 N          -3.6529  -22.4068  -45.4973 N.am      13 UNK        -0.5000 
     75 CA         -4.4815  -23.5554  -45.1358 C.3       13 UNK         0.1400 
     76 CB         -4.1178  -24.0191  -43.7171 C.3       13 UNK        -0.1800 
     77 C          -4.3574  -24.7192  -46.1376 C.2       13 UNK         0.5000 
     78 O          -5.3511  -25.4018  -46.3888 O.2       13 UNK        -0.5000 
     79 N          -3.1509  -24.9253  -46.6861 N.am      14 UNK        -0.5000 
     80 CA         -2.8601  -25.9401  -47.6965 C.3       14 UNK         0.1400 
     81 CB         -1.3407  -26.1452  -47.8206 C.3       14 UNK        -0.1800 
     82 C          -3.5013  -25.6031  -49.0539 C.2       14 UNK         0.5000 
     83 O          -4.3603  -26.3603  -49.5068 O.2       14 UNK        -0.5000 
     84 N          -3.0740  -24.4795  -49.6582 N.am      15 UNK        -0.5000 
     85 CA         -3.5187  -23.9280  -50.9480 C.3       15 UNK         0.1400 
     86 CB         -4.8558  -23.1839  -50.7627 C.3       15 UNK        -0.1800 
     87 C          -3.5811  -24.9861  -52.0722 C.2       15 UNK         0.5000 
     88 O          -4.6616  -25.2819  -52.5835 O.2       15 UNK        -0.5000 
     89 N          -2.4186  -25.5753  -52.3844 N.am      16 UNK        -0.5000 
     90 CA         -2.2311  -26.7686  -53.2191 C.3       16 UNK         0.1400 
     91 CB         -0.7252  -27.0085  -53.4063 C.3       16 UNK        -0.1800 
     92 C          -2.9474  -26.7813  -54.5863 C.2       16 UNK         0.5000 
     93 O          -3.4120  -27.8423  -55.0060 O.2       16 UNK        -0.5000 
     94 N          -3.0404  -25.6223  -55.2521 N.am      17 UNK        -0.5000 
     95 CA         -3.7314  -25.4692  -56.5379 C.3       17 UNK         0.1400 
     96 CB         -3.2083  -24.2141  -57.2537 C.3       17 UNK        -0.1800 
     97 C          -5.2685  -25.4025  -56.4234 C.2       17 UNK         0.5000 
     98 O          -5.9365  -25.3926  -57.4580 O.2       17 UNK        -0.5000 
     99 N          -5.8063  -25.3006  -55.1982 N.am      18 UNK        -0.5000 
    100 CA        -7.2143  -25.1308  -54.8060 C.3       18 UNK         0.1400 
    101 CB        -8.0947  -26.2845  -55.3233 C.3       18 UNK        -0.1800 
    102 C         -7.8163  -23.7568  -55.1671 C.2       18 UNK         0.5000 
    103 O         -8.5970  -23.2140  -54.3838 O.2       18 UNK        -0.5000 
    104 N         -7.4363  -23.2104  -56.3268 N.am      19 UNK        -0.5000 
    105 CA        -7.7433  -21.8585  -56.7847 C.3       19 UNK         0.1400 
    106 CB        -7.3482  -21.7542  -58.2670 C.3       19 UNK        -0.1800 
    107 C         -7.0075  -20.7842  -55.9602 C.2       19 UNK         0.5000 
    108 O         -6.0158  -21.0811  -55.2885 O.2       19 UNK        -0.5000 
    109 N         -7.4693  -19.5324  -56.0863 N.am      20 UNK        -0.5000 
    110 CA        -6.9315  -18.3413  -55.4137 C.3       20 UNK         0.1400 
    111 CB        -7.8505  -17.1479  -55.7189 C.3       20 UNK        -0.1800 
    112 C         -5.4658  -17.9976  -55.7617 C.2       20 UNK         0.5000 
    113 O         -4.8450  -17.2087  -55.0489 O.2       20 UNK        -0.5000 
    114 N         -4.9329  -18.6027  -56.8322 N.am      21 UNK        -0.5000 
    115 CA        -3.5183  -18.5690  -57.2059 C.3       21 UNK         0.1400 
    116 CB        -3.3778  -19.1079  -58.6383 C.3       21 UNK        -0.1800 
    117 C         -2.6089  -19.3644  -56.2435 C.2       21 UNK         0.5000 
    118 O         -1.3958  -19.1514  -56.2583 O.2       21 UNK        -0.5000 
    119 N         -3.1946  -20.2722  -55.4485 N.am      22 UNK        -0.5000 
    120 CA        -2.5757  -21.1221  -54.4141 C.3       22 UNK         0.1400 
    121 C         -1.5770  -22.1974  -54.9264 C.2       22 UNK         0.5000 
    122 N         -0.8074  -21.9469  -55.9748 N.am      22 UNK        -0.7600 
    123 O         -1.5250  -23.2904  -54.3709 O.2       22 UNK        -0.5000 
    124 C124       -1.9309  -20.3177  -53.2580 C.3       23 UNK        -0.0398 
    125 S125       -3.1219  -19.2688  -52.3568 S.3       23 UNK        -0.2404 
    126 C126       -2.8621  -19.8064  -50.6369 C.3       23 UNK        -0.0205 
    127 H127       -3.4734  -16.8481  -41.3050 H         1 UNK         0.0600 
    128 H128       -3.5010  -17.2465  -43.0252 H         1 UNK         0.0600 
    129 H129       -4.5068  -15.9323  -42.4050 H         1 UNK         0.0600 
    130 H130       -1.8999  -16.3086  -44.2926 H         1 UNK         0.3000 
    131 H131       -0.9955  -13.6540  -43.9722 H         1 UNK         0.0600 
    132 H132        0.6343  -14.3103  -45.8723 H         1 UNK         0.0800 
    133 H133       -1.0751  -14.3306  -46.1645 H         1 UNK         0.0800 
    134 H134       -1.3201  -15.7312  -48.1470 H         1 UNK         0.0800 
    135 H135        0.4146  -15.6349  -48.3365 H         1 UNK         0.0800 
    136 H136       -2.4918  -17.5174  -49.2040 H         1 UNK         0.1150 
    137 H137       -0.3557  -20.9199  -50.7113 H         1 UNK         0.1150 
    138 H138        1.7132  -17.9155  -48.4897 H         1 UNK         0.1150 
    139 H139        2.3369  -20.3448  -50.8772 H         1 UNK         0.0800 
    140 H140        2.9557  -19.7143  -49.3716 H         1 UNK         0.0800 
    141 H141        1.5121  -20.5169  -47.1850 H         1 UNK         0.0800 
    142 H142        2.6313  -21.7839  -46.7831 H         1 UNK         0.0800 
    143 H143        0.7198  -23.4683  -47.1267 H         1 UNK         0.0600 
    144 H144        1.0157  -21.6978  -44.8526 H         1 UNK         0.3000 
    145 H145       -0.8680  -23.7111  -42.6188 H         1 UNK         0.0600 
    146 H146        2.1834  -23.4623  -42.8237 H         1 UNK         0.0600 
    147 H147        1.2699  -23.8540  -41.3662 H         1 UNK         0.0600 
    148 H148        1.2878  -24.9734  -42.7193 H         1 UNK         0.0600 
    149 H149        0.8507  -21.4639  -42.2204 H         1 UNK         0.3000 
    150 H150       -1.3058  -18.9054  -43.2930 H         1 UNK         0.0600 
    151 H151       -0.8070  -19.6726  -40.3665 H         1 UNK         0.0600 
    152 H152       -2.3869  -19.4039  -41.0927 H         1 UNK         0.0600 
    153 H153       -1.2515  -18.0731  -40.9605 H         1 UNK         0.0600 
    154 H154        1.0630  -18.8157  -41.7341 H         1 UNK         0.3000 
    155 H155        2.9682  -18.1682  -42.5941 H         1 UNK         0.0600 
    156 H156        3.7115  -20.4667  -44.4897 H         1 UNK         0.0600 
    157 H157        3.5240  -20.5994  -42.7441 H         1 UNK         0.0600 
    158 H158        4.8217  -19.6225  -43.4128 H         1 UNK         0.0600 
    159 H159        2.8586  -18.0565  -45.5502 H         1 UNK         0.3000 
    160 H160        5.3291  -15.9159  -45.9088 H         1 UNK         0.0600 
    161 H161        2.5088  -16.3098  -47.0353 H         1 UNK         0.0600 
    162 H162        3.8378  -17.4557  -47.2408 H         1 UNK         0.0600 
    163 H163        3.9334  -15.8649  -47.9560 H         1 UNK         0.0600 
    164 H164        3.3092  -14.2966  -44.7414 H         1 UNK         0.3000 
    165 H165        4.5984  -11.3093  -46.1342 H         1 UNK         0.0600 
    166 H166        2.2349  -10.6250  -46.3000 H         1 UNK         0.0600 
    167 H167        2.6329  -11.7048  -47.6281 H         1 UNK         0.0600 
    168 H168        1.7031  -12.3020  -46.2586 H         1 UNK         0.0600 
    169 H169        2.7269  -12.2652  -44.0432 H         1 UNK         0.3000 
    170 H170        4.2728  -12.5520  -41.6323 H         1 UNK         0.0600 
    171 H171        5.9969  -10.8637  -41.1607 H         1 UNK         0.0600 
    172 H172        4.8945   -9.5521  -41.5525 H         1 UNK         0.0600 
    173 H173        4.6024  -10.5634  -40.1375 H         1 UNK         0.0600 
    174 H174        2.1456  -12.0444  -41.4801 H         1 UNK         0.3000 
    175 H175        0.1113   -9.3048  -41.7258 H         1 UNK         0.0600 
    176 H176        0.0722   -9.6392  -44.1882 H         1 UNK         0.0600 
    177 H177        0.1476  -11.3833  -43.9868 H         1 UNK         0.0600 
    178 H178       -1.2750  -10.4888  -43.4484 H         1 UNK         0.0600 
    179 H179       -0.2963  -12.1937  -41.6976 H         1 UNK         0.3000 
    180 H180        0.2880  -12.6470  -38.2568 H         1 UNK         0.0600 
    181 H181       -2.3819  -12.6713  -39.7641 H         1 UNK         0.0600 
    182 H182       -2.0679  -11.8877  -38.2219 H         1 UNK         0.0600 
    183 H183       -2.0037  -13.6397  -38.3398 H         1 UNK         0.0600 
    184 H184       -0.6257  -14.3067  -40.4462 H         1 UNK         0.3000 
    185 H185        2.6471  -15.3798  -41.4475 H         1 UNK         0.0600 
    186 H186        1.8347  -17.5923  -40.7038 H         1 UNK         0.0600 
    187 H187        2.1908  -16.6200  -39.2990 H         1 UNK         0.0600 
    188 H188        0.5206  -16.8499  -39.7905 H         1 UNK         0.0600 
    189 H189       -0.0969  -16.1468  -42.0480 H         1 UNK         0.3000 
    190 H190       -0.9258  -20.5694  -45.8467 H         1 UNK         0.3000 
    191 H191       -2.8721  -20.3111  -47.9094 H         1 UNK         0.0600 
    192 H192       -2.3527  -18.4889  -46.3116 H         1 UNK         0.0600 
    193 H193       -4.0634  -18.8758  -46.2802 H         1 UNK         0.0600 
    194 H194       -3.0207  -19.4338  -44.9810 H         1 UNK         0.0600 
    195 H195       -2.8857  -22.1806  -44.8710 H         1 UNK         0.3000 
    196 H196       -5.5240  -23.2305  -45.1297 H         1 UNK         0.0600 
    197 H197       -4.7504  -24.8506  -43.4042 H         1 UNK         0.0600 
    198 H198       -4.2531  -23.2160  -42.9924 H         1 UNK         0.0600 
    199 H199       -3.0821  -24.3538  -43.6565 H         1 UNK         0.0600 
    200 H200       -2.3744  -24.3510  -46.3830 H         1 UNK         0.3000 
    201 H201       -3.2887  -26.8848  -47.3548 H         1 UNK         0.0600 
    202 H202       -1.1094  -26.8947  -48.5784 H         1 UNK         0.0600 
    203 H203       -0.9151  -26.4940  -46.8796 H         1 UNK         0.0600 
    204 H204       -0.8226  -25.2279  -48.0983 H         1 UNK         0.0600 
    205 H205       -2.3869  -23.9142  -49.1639 H         1 UNK         0.3000 
    206 H206       -2.7691  -23.1964  -51.2523 H         1 UNK         0.0600 
    207 H207       -4.7697  -22.4001  -50.0106 H         1 UNK         0.0600 
    208 H208       -5.1725  -22.7094  -51.6925 H         1 UNK         0.0600 
    209 H209       -5.6520  -23.8594  -50.4477 H         1 UNK         0.0600 
    210 H210       -1.5870  -25.2364  -51.9239 H         1 UNK         0.3000 
    211 H211       -2.6345  -27.6070  -52.6480 H         1 UNK         0.0600 
    212 H212       -0.2484  -26.1692  -53.9146 H         1 UNK         0.0600 
    213 H213       -0.5405  -27.9027  -54.0033 H         1 UNK         0.0600 
    214 H214       -0.2244  -27.1508  -52.4485 H         1 UNK         0.0600 
    215 H215       -2.5984  -24.7958  -54.8567 H         1 UNK         0.3000 
    216 H216       -3.4912  -26.3317  -57.1631 H         1 UNK         0.0600 
    217 H217       -3.5968  -24.1546  -58.2711 H         1 UNK         0.0600 
    218 H218       -2.1207  -24.2210  -57.3249 H         1 UNK         0.0600 
    219 H219       -3.5136  -23.3026  -56.7393 H         1 UNK         0.0600 
    220 H220       -5.1673  -25.2992  -54.4063 H         1 UNK         0.3000 
    221 H221       -7.2159  -25.1878  -53.7164 H         1 UNK         0.0600 
    222 H222       -8.1876  -26.2752  -56.4094 H         1 UNK         0.0600 
    223 H223       -7.6891  -27.2522  -55.0280 H         1 UNK         0.0600 
    224 H224       -9.1026  -26.2150  -54.9125 H         1 UNK         0.0600 
    225 H225       -6.8138  -23.7604  -56.9090 H         1 UNK         0.3000 
    226 H226       -8.8187  -21.6965  -56.6878 H         1 UNK         0.0600 
    227 H227       -7.8726  -22.4984  -58.8670 H         1 UNK         0.0600 
    228 H228       -7.5993  -20.7756  -58.6780 H         1 UNK         0.0600 
    229 H229       -6.2771  -21.9064  -58.4089 H         1 UNK         0.0600 
    230 H230       -8.2726  -19.3743  -56.6779 H         1 UNK         0.3000 
    231 H231       -6.9637  -18.5310  -54.3388 H         1 UNK         0.0600 
    232 H232       -7.8791  -16.9263  -56.7865 H         1 UNK         0.0600 
    233 H233       -7.5087  -16.2477  -55.2061 H         1 UNK         0.0600 
    234 H234       -8.8711  -17.3393  -55.3867 H         1 UNK         0.0600 
    235 H235       -5.5255  -19.2192  -57.3670 H         1 UNK         0.3000 
    236 H236       -3.1830  -17.5299  -57.1927 H         1 UNK         0.0600 
    237 H237       -3.9655  -18.5180  -59.3419 H         1 UNK         0.0600 
    238 H238       -2.3398  -19.0683  -58.9713 H         1 UNK         0.0600 
    239 H239       -3.7064  -20.1456  -58.7116 H         1 UNK         0.0600 
    240 H240       -4.1998  -20.3929  -55.5271 H         1 UNK         0.3000 
    241 H241       -3.4085  -21.6843  -53.9881 H         1 UNK         0.0600 
    242 H242       -0.1621  -22.6441  -56.3085 H         1 UNK         0.3800 
    243 H243       -0.8210  -21.0185  -56.3824 H         1 UNK         0.3800 
    244 H244       -1.4776  -21.0143  -52.5555 H         1 UNK         0.0800 
    245 H245       -1.1189  -19.6871  -53.6229 H         1 UNK         0.0800 
    246 H246       -2.8732  -20.8944  -50.5769 H         1 UNK         0.0800 
    247 H247       -3.7098  -19.4657  -50.0405 H         1 UNK         0.0800 
@<TRIPOS>BOND
     1    1    2 1    
     2    1  127 1    
     3    1  128 1    
     4    1  129 1    
     5    2    3 2    
     6    2    4 am   BACKBONE|DICT|INTERRES
     7    4    5 1    
     8    4  130 1    
     9    5    6 1    
    10    5   65 1    
    11    5  131 1    
    12    6    7 1    
    13    6  132 1    
    14    6  133 1    
    15    7    8 1    
    16    8    9 1    
    17    8  134 1    
    18    8  135 1    
    19    9   10 ar   
    20    9   14 ar   
    21   10   11 ar   
    22   10  136 1    
    23   11   12 ar   
    24   11  126 1    
    25   12   13 ar   
    26   12  137 1    
    27   13   14 ar   
    28   13   15 1    
    29   14  138 1    
    30   15   16 1    
    31   15  139 1    
    32   15  140 1    
    33   16   17 1    
    34   17   18 1    
    35   17  141 1    
    36   17  142 1    
    37   18   19 1    
    38   18   67 1    
    39   18  143 1    
    40   19   20 am   BACKBONE|DICT|INTERRES
    41   19  144 1    
    42   20   21 2    
    43   20   22 1    
    44   22   23 1    
    45   22   24 1    
    46   22  145 1    
    47   23  146 1    
    48   23  147 1    
    49   23  148 1    
    50   24   25 am   BACKBONE|DICT|INTERRES
    51   24  149 1    
    52   25   26 2    
    53   25   27 1    
    54   27   28 1    
    55   27   29 1    
    56   27  150 1    
    57   28  151 1    
    58   28  152 1    
    59   28  153 1    
    60   29   30 am   BACKBONE|DICT|INTERRES
    61   29  154 1    
    62   30   31 2    
    63   30   32 1    
    64   32   33 1    
    65   32   34 1    
    66   32  155 1    
    67   33  156 1    
    68   33  157 1    
    69   33  158 1    
    70   34   35 am   BACKBONE|DICT|INTERRES
    71   34  159 1    
    72   35   36 2    
    73   35   37 1    
    74   37   38 1    
    75   37   39 1    
    76   37  160 1    
    77   38  161 1    
    78   38  162 1    
    79   38  163 1    
    80   39   40 am   BACKBONE|DICT|INTERRES
    81   39  164 1    
    82   40   41 2    
    83   40   42 1    
    84   42   43 1    
    85   42   44 1    
    86   42  165 1    
    87   43  166 1    
    88   43  167 1    
    89   43  168 1    
    90   44   45 am   BACKBONE|DICT|INTERRES
    91   44  169 1    
    92   45   46 2    
    93   45   47 1    
    94   47   48 1    
    95   47   49 1    
    96   47  170 1    
    97   48  171 1    
    98   48  172 1    
    99   48  173 1    
   100   49   50 am   BACKBONE|DICT|INTERRES
   101   49  174 1    
   102   50   51 2    
   103   50   52 1    
   104   52   53 1    
   105   52   54 1    
   106   52  175 1    
   107   53  176 1    
   108   53  177 1    
   109   53  178 1    
   110   54   55 am   BACKBONE|DICT|INTERRES
   111   54  179 1    
   112   55   56 2    
   113   55   57 1    
   114   57   58 1    
   115   57   59 1    
   116   57  180 1    
   117   58  181 1    
   118   58  182 1    
   119   58  183 1    
   120   59   60 am   BACKBONE|DICT|INTERRES
   121   59  184 1    
   122   60   61 2    
   123   60   62 1    
   124   62   63 1    
   125   62   64 1    
   126   62  185 1    
   127   63  186 1    
   128   63  187 1    
   129   63  188 1    
   130   64   65 am   BACKBONE|DICT|INTERRES
   131   64  189 1    
   132   65   66 2    
   133   67   68 2    
   134   67   69 am   BACKBONE|DICT|INTERRES
   135   69   70 1    
   136   69  190 1    
   137   70   71 1    
   138   70   72 1    
   139   70  191 1    
   140   71  192 1    
   141   71  193 1    
   142   71  194 1    
   143   72   73 2    
   144   72   74 am   BACKBONE|DICT|INTERRES
   145   74   75 1    
   146   74  195 1    
   147   75   76 1    
   148   75   77 1    
   149   75  196 1    
   150   76  197 1    
   151   76  198 1    
   152   76  199 1    
   153   77   78 2    
   154   77   79 am   BACKBONE|DICT|INTERRES
   155   79   80 1    
   156   79  200 1    
   157   80   81 1    
   158   80   82 1    
   159   80  201 1    
   160   81  202 1    
   161   81  203 1    
   162   81  204 1    
   163   82   83 2    
   164   82   84 am   BACKBONE|DICT|INTERRES
   165   84   85 1    
   166   84  205 1    
   167   85   86 1    
   168   85   87 1    
   169   85  206 1    
   170   86  207 1    
   171   86  208 1    
   172   86  209 1    
   173   87   88 2    
   174   87   89 am   BACKBONE|DICT|INTERRES
   175   89   90 1    
   176   89  210 1    
   177   90   91 1    
   178   90   92 1    
   179   90  211 1    
   180   91  212 1    
   181   91  213 1    
   182   91  214 1    
   183   92   93 2    
   184   92   94 am   BACKBONE|DICT|INTERRES
   185   94   95 1    
   186   94  215 1    
   187   95   96 1    
   188   95   97 1    
   189   95  216 1    
   190   96  217 1    
   191   96  218 1    
   192   96  219 1    
   193   97   98 2    
   194   97   99 am   BACKBONE|DICT|INTERRES
   195   99  100 1    
   196   99  220 1    
   197  100  101 1    
   198  100  102 1    
   199  100  221 1    
   200  101  222 1    
   201  101  223 1    
   202  101  224 1    
   203  102  103 2    
   204  102  104 am   BACKBONE|DICT|INTERRES
   205  104  105 1    
   206  104  225 1    
   207  105  106 1    
   208  105  107 1    
   209  105  226 1    
   210  106  227 1    
   211  106  228 1    
   212  106  229 1    
   213  107  108 2    
   214  107  109 am   BACKBONE|DICT|INTERRES
   215  109  110 1    
   216  109  230 1    
   217  110  111 1    
   218  110  112 1    
   219  110  231 1    
   220  111  232 1    
   221  111  233 1    
   222  111  234 1    
   223  112  113 2    
   224  112  114 am   BACKBONE|DICT|INTERRES
   225  114  115 1    
   226  114  235 1    
   227  115  116 1    
   228  115  117 1    
   229  115  236 1    
   230  116  237 1    
   231  116  238 1    
   232  116  239 1    
   233  117  118 2    
   234  117  119 am   BACKBONE|DICT|INTERRES
   235  119  120 1    
   236  119  240 1    
   237  120  121 1    
   238  120  124 1    
   239  120  241 1    
   240  121  122 am   BACKBONE|DICT|INTERRES
   241  121  123 2    
   242  122  242 1    
   243  122  243 1    
   244  124  125 1    
   245  124  244 1    
   246  124  245 1    
   247  125  126 1    
   248  126  246 1    
   249  126  247 1    
@<TRIPOS>SUBSTRUCTURE
     1 UNK         1 GROUP             0       ****    0 ROOT    
