@<TRIPOS>MOLECULE
3R540
247   249    1
SMALL
USER_CHARGES


@<TRIPOS>ATOM
      1 CA         -5.5050  -17.9501  -48.1046 C.3       0 UNK        -0.1800 
      2 C          -5.2373  -16.4930  -48.4536 C.2       0 UNK         0.5000 
      3 O          -6.1813  -15.7448  -48.7064 O.2       0 UNK        -0.5000 
      4 N          -3.9587  -16.0901  -48.4750 N.am      1 UNK        -0.5000 
      5 CA         -3.5147  -14.7226  -48.7876 C.3       1 UNK         0.1400 
      6 C6         -1.9804  -14.6272  -48.9893 C.3       23 UNK        -0.0398 
      7 S7         -1.3594  -15.7717  -50.2636 S.3       23 UNK        -0.2404 
      8 C8         -0.1065  -16.7132  -49.3344 C.3       23 UNK        -0.0205 
      9 C9          0.4327  -17.8735  -50.1578 C.ar      23 UNK        -0.0193 
     10 C10         1.2033  -17.6274  -51.2976 C.ar      23 UNK        -0.1150 
     11 C11         1.6839  -18.6851  -52.0747 C.ar      23 UNK        -0.0193 
     12 C12         1.3951  -19.9997  -51.6985 C.ar      23 UNK        -0.1150 
     13 C13         0.6216  -20.2593  -50.5647 C.ar      23 UNK        -0.0193 
     14 C14         0.1503  -19.1932  -49.7928 C.ar      23 UNK        -0.1150 
     15 C15         0.2460  -21.6897  -50.2137 C.3       23 UNK        -0.0205 
     16 S16         1.5425  -22.5546  -49.2731 S.3       23 UNK        -0.2404 
     17 C17         1.4674  -21.7574  -47.6326 C.3       23 UNK        -0.0398 
     18 CA          0.5035  -22.4771  -46.6549 C.3       11 UNK         0.1400 
     19 N           0.9318  -22.3620  -45.2583 N.am      11 UNK        -0.5000 
     20 C           0.3765  -23.0278  -44.2348 C.2       10 UNK         0.5000 
     21 O          -0.5451  -23.8326  -44.3629 O.2       10 UNK        -0.5000 
     22 CA          0.8905  -22.6924  -42.8233 C.3       10 UNK         0.1400 
     23 CB          2.2428  -23.3659  -42.5483 C.3       10 UNK        -0.1800 
     24 N           0.9966  -21.2507  -42.6016 N.am      10 UNK        -0.5000 
     25 C          -0.0419  -20.4030  -42.6447 C.2       9 UNK         0.5000 
     26 O          -1.2078  -20.7529  -42.8241 O.2       9 UNK        -0.5000 
     27 CA          0.2863  -18.9089  -42.5062 C.3       9 UNK         0.1400 
     28 CB          0.4664  -18.5407  -41.0270 C.3       9 UNK        -0.1800 
     29 N           1.4742  -18.5318  -43.2774 N.am      9 UNK        -0.5000 
     30 C           1.5452  -18.5748  -44.6169 C.2       8 UNK         0.5000 
     31 O           0.6022  -18.8793  -45.3464 O.2       8 UNK        -0.5000 
     32 CA          2.9193  -18.2970  -45.2478 C.3       8 UNK         0.1400 
     33 CB          3.1703  -16.7900  -45.4006 C.3       8 UNK        -0.1800 
     34 N           4.0055  -18.9162  -44.4870 N.am      8 UNK        -0.5000 
     35 C           4.1997  -20.2414  -44.4201 C.2       7 UNK         0.5000 
     36 O           3.4986  -21.0599  -45.0132 O.2       7 UNK        -0.5000 
     37 CA          5.3395  -20.7489  -43.5193 C.3       7 UNK         0.1400 
     38 CB          6.6471  -20.8561  -44.3174 C.3       7 UNK        -0.1800 
     39 N           5.5648  -19.9224  -42.3342 N.am      7 UNK        -0.5000 
     40 C           4.6799  -19.7250  -41.3476 C.2       6 UNK         0.5000 
     41 O           3.5506  -20.2201  -41.3407 O.2       6 UNK        -0.5000 
     42 CA          5.1240  -18.8203  -40.1743 C.3       6 UNK         0.1400 
     43 CB          6.5403  -18.2241  -40.3424 C.3       6 UNK        -0.1800 
     44 N           4.1776  -17.7394  -39.8755 N.am      6 UNK        -0.5000 
     45 C           3.6633  -16.8522  -40.7374 C.2       5 UNK         0.5000 
     46 O           3.8276  -16.8920  -41.9607 O.2       5 UNK        -0.5000 
     47 CA          2.8370  -15.7142  -40.1216 C.3       5 UNK         0.1400 
     48 CB          3.7527  -14.6191  -39.5454 C.3       5 UNK        -0.1800 
     49 N           1.9801  -15.1530  -41.1586 N.am      5 UNK        -0.5000 
     50 C           0.8408  -14.4826  -40.9601 C.2       4 UNK         0.5000 
     51 O           0.4261  -14.1651  -39.8426 O.2       4 UNK        -0.5000 
     52 CA          0.0420  -14.0740  -42.2196 C.3       4 UNK         0.1400 
     53 CB          0.3551  -14.9297  -43.4679 C.3       4 UNK        -0.1800 
     54 N          -1.4076  -14.0332  -42.0045 N.am      4 UNK        -0.5000 
     55 C          -2.2065  -15.0252  -41.5760 C.2       3 UNK         0.5000 
     56 O          -1.8162  -16.1356  -41.2170 O.2       3 UNK        -0.5000 
     57 CA         -3.7212  -14.7333  -41.6216 C.3       3 UNK         0.1400 
     58 CB         -4.1718  -13.9763  -40.3628 C.3       3 UNK        -0.1800 
     59 N          -4.0963  -13.9682  -42.8161 N.am      3 UNK        -0.5000 
     60 C          -3.9695  -14.4357  -44.0658 C.2       2 UNK         0.5000 
     61 O          -3.6829  -15.6092  -44.3269 O.2       2 UNK        -0.5000 
     62 CA         -4.1447  -13.4226  -45.2110 C.3       2 UNK         0.1400 
     63 CB         -3.1676  -12.2355  -45.0517 C.3       2 UNK        -0.1800 
     64 N          -3.8773  -14.1458  -46.4478 N.am      2 UNK        -0.5000 
     65 C          -3.9516  -13.7098  -47.7085 C.2       1 UNK         0.5000 
     66 O          -4.3291  -12.5837  -48.0346 O.2       1 UNK        -0.5000 
     67 C          -0.9531  -22.0087  -46.8475 C.2       11 UNK         0.5000 
     68 O          -1.7361  -22.7229  -47.4710 O.2       11 UNK        -0.5000 
     69 N          -1.3014  -20.8437  -46.2811 N.am      12 UNK        -0.5000 
     70 CA         -2.6462  -20.2642  -46.3314 C.3       12 UNK         0.1400 
     71 CB         -2.6097  -18.8433  -45.7458 C.3       12 UNK        -0.1800 
     72 C          -3.7258  -21.1162  -45.6347 C.2       12 UNK         0.5000 
     73 O          -4.8890  -21.0565  -46.0328 O.2       12 UNK        -0.5000 
     74 N          -3.3313  -21.8902  -44.6158 N.am      13 UNK        -0.5000 
     75 CA         -4.1894  -22.8634  -43.9466 C.3       13 UNK         0.1400 
     76 CB         -3.6401  -23.1440  -42.5390 C.3       13 UNK        -0.1800 
     77 C          -4.3188  -24.1689  -44.7531 C.2       13 UNK         0.5000 
     78 O          -5.4241  -24.6990  -44.8739 O.2       13 UNK        -0.5000 
     79 N          -3.1894  -24.6794  -45.2624 N.am      14 UNK        -0.5000 
     80 CA         -3.0975  -25.9751  -45.9352 C.3       14 UNK         0.1400 
     81 CB         -1.6309  -26.4338  -45.9443 C.3       14 UNK        -0.1800 
     82 C          -3.6617  -25.9890  -47.3668 C.2       14 UNK         0.5000 
     83 O          -4.2305  -27.0040  -47.7729 O.2       14 UNK        -0.5000 
     84 N          -3.4679  -24.8973  -48.1140 N.am      15 UNK        -0.5000 
     85 CA         -3.7890  -24.7857  -49.5350 C.3       15 UNK         0.1400 
     86 CB         -2.4676  -24.7227  -50.3225 C.3       15 UNK        -0.1800 
     87 C          -4.6511  -23.5455  -49.8168 C.2       15 UNK         0.5000 
     88 O          -4.8160  -22.6829  -48.9533 O.2       15 UNK        -0.5000 
     89 N          -5.1696  -23.4734  -51.0506 N.am      16 UNK        -0.5000 
     90 CA         -5.9929  -22.3730  -51.5648 C.3       16 UNK         0.1400 
     91 CB         -6.7321  -22.8588  -52.8199 C.3       16 UNK        -0.1800 
     92 C          -5.2123  -21.0684  -51.8409 C.2       16 UNK         0.5000 
     93 O          -5.8384  -20.0311  -52.0611 O.2       16 UNK        -0.5000 
     94 N          -3.8737  -21.1343  -51.7884 N.am      17 UNK        -0.5000 
     95 CA         -2.9361  -20.0098  -51.8061 C.3       17 UNK         0.1400 
     96 CB         -3.1774  -19.1155  -50.5721 C.3       17 UNK        -0.1800 
     97 C          -2.9256  -19.2372  -53.1407 C.2       17 UNK         0.5000 
     98 O          -3.1607  -19.8334  -54.1944 O.2       17 UNK        -0.5000 
     99 N          -2.6243  -17.9313  -53.0926 N.am      18 UNK        -0.5000 
    100 CA        -2.5027  -17.0420  -54.2533 C.3       18 UNK         0.1400 
    101 CB        -2.0198  -15.6617  -53.7883 C.3       18 UNK        -0.1800 
    102 C         -3.7875  -16.9122  -55.0956 C.2       18 UNK         0.5000 
    103 O         -3.6957  -16.6267  -56.2896 O.2       18 UNK        -0.5000 
    104 N         -4.9526  -17.1852  -54.4899 N.am      19 UNK        -0.5000 
    105 CA        -6.2480  -17.2816  -55.1696 C.3       19 UNK         0.1400 
    106 CB        -7.3620  -17.3788  -54.1169 C.3       19 UNK        -0.1800 
    107 C         -6.3314  -18.4617  -56.1625 C.2       19 UNK         0.5000 
    108 O         -7.1261  -18.4040  -57.1012 O.2       19 UNK        -0.5000 
    109 N         -5.4909  -19.4849  -55.9604 N.am      20 UNK        -0.5000 
    110 CA        -5.2857  -20.6205  -56.8580 C.3       20 UNK         0.1400 
    111 CB        -5.5193  -21.9179  -56.0687 C.3       20 UNK        -0.1800 
    112 C         -3.8758  -20.5718  -57.4818 C.2       20 UNK         0.5000 
    113 O         -3.3152  -21.6188  -57.8119 O.2       20 UNK        -0.5000 
    114 N         -3.3099  -19.3601  -57.6070 N.am      21 UNK        -0.5000 
    115 CA        -1.9947  -19.0444  -58.1769 C.3       21 UNK         0.1400 
    116 CB        -2.0060  -19.2723  -59.7028 C.3       21 UNK        -0.1800 
    117 C         -0.8236  -19.7631  -57.4714 C.2       21 UNK         0.5000 
    118 O          0.1580  -20.1206  -58.1247 O.2       21 UNK        -0.5000 
    119 N         -0.9616  -19.9715  -56.1543 N.am      22 UNK        -0.5000 
    120 CA        -0.0344  -20.7107  -55.2793 C.3       22 UNK         0.1400 
    121 C         -0.0689  -22.2572  -55.4788 C.2       22 UNK         0.5000 
    122 N         -1.0102  -22.8191  -56.2300 N.am      22 UNK        -0.7600 
    123 O          0.7539  -22.9717  -54.9130 O.2       22 UNK        -0.5000 
    124 C124        1.4152  -20.1426  -55.2709 C.3       23 UNK        -0.0398 
    125 S125        1.4965  -18.3704  -54.8257 S.3       23 UNK        -0.2404 
    126 C126        2.5155  -18.4002  -53.3156 C.3       23 UNK        -0.0205 
    127 H127       -6.0570  -18.0182  -47.1673 H         1 UNK         0.0600 
    128 H128       -4.5822  -18.5169  -47.9965 H         1 UNK         0.0600 
    129 H129       -6.0988  -18.4223  -48.8875 H         1 UNK         0.0600 
    130 H130       -3.2239  -16.7534  -48.2829 H         1 UNK         0.3000 
    131 H131       -3.9950  -14.4288  -49.7236 H         1 UNK         0.0600 
    132 H132       -1.4559  -14.8119  -48.0498 H         1 UNK         0.0800 
    133 H133       -1.7026  -13.6168  -49.2949 H         1 UNK         0.0800 
    134 H134        0.7155  -16.0508  -49.0592 H         1 UNK         0.0800 
    135 H135       -0.5399  -17.0775  -48.4016 H         1 UNK         0.0800 
    136 H136        1.4161  -16.6076  -51.5865 H         1 UNK         0.1150 
    137 H137        1.7605  -20.8249  -52.2923 H         1 UNK         0.1150 
    138 H138       -0.4573  -19.3902  -48.9206 H         1 UNK         0.1150 
    139 H139       -0.6971  -21.7091  -49.6694 H         1 UNK         0.0800 
    140 H140        0.0641  -22.2473  -51.1338 H         1 UNK         0.0800 
    141 H141        1.2531  -20.6916  -47.7173 H         1 UNK         0.0800 
    142 H142        2.4852  -21.8128  -47.2475 H         1 UNK         0.0800 
    143 H143        0.5280  -23.5453  -46.8823 H         1 UNK         0.0600 
    144 H144        1.7181  -21.7449  -45.0734 H         1 UNK         0.3000 
    145 H145        0.1668  -23.0830  -42.1048 H         1 UNK         0.0600 
    146 H146        2.5979  -23.1432  -41.5419 H         1 UNK         0.0600 
    147 H147        2.1599  -24.4501  -42.6330 H         1 UNK         0.0600 
    148 H148        3.0080  -23.0419  -43.2526 H         1 UNK         0.0600 
    149 H149        1.9190  -20.8801  -42.3981 H         1 UNK         0.3000 
    150 H150       -0.5640  -18.3441  -42.8941 H         1 UNK         0.0600 
    151 H151       -0.4055  -18.8404  -40.4442 H         1 UNK         0.0600 
    152 H152        0.5723  -17.4663  -40.9022 H         1 UNK         0.0600 
    153 H153        1.3372  -19.0232  -40.5845 H         1 UNK         0.0600 
    154 H154        2.3114  -18.2999  -42.7574 H         1 UNK         0.3000 
    155 H155        2.9137  -18.7348  -46.2487 H         1 UNK         0.0600 
    156 H156        3.2365  -16.2884  -44.4361 H         1 UNK         0.0600 
    157 H157        4.0985  -16.5998  -45.9394 H         1 UNK         0.0600 
    158 H158        2.3649  -16.3159  -45.9633 H         1 UNK         0.0600 
    159 H159        4.5808  -18.3045  -43.9241 H         1 UNK         0.3000 
    160 H160        5.0681  -21.7494  -43.1773 H         1 UNK         0.0600 
    161 H161        6.9900  -19.8797  -44.6622 H         1 UNK         0.0600 
    162 H162        6.5167  -21.4878  -45.1972 H         1 UNK         0.0600 
    163 H163        7.4416  -21.2990  -43.7165 H         1 UNK         0.0600 
    164 H164        6.4643  -19.4691  -42.2664 H         1 UNK         0.3000 
    165 H165        5.1408  -19.4651  -39.2946 H         1 UNK         0.0600 
    166 H166        6.8195  -17.6368  -39.4674 H         1 UNK         0.0600 
    167 H167        7.2940  -19.0052  -40.4495 H         1 UNK         0.0600 
    168 H168        6.6061  -17.5669  -41.2107 H         1 UNK         0.0600 
    169 H169        3.9414  -17.6413  -38.8981 H         1 UNK         0.3000 
    170 H170        2.2145  -16.1310  -39.3269 H         1 UNK         0.0600 
    171 H171        4.4125  -15.0219  -38.7761 H         1 UNK         0.0600 
    172 H172        4.3813  -14.1760  -40.3189 H         1 UNK         0.0600 
    173 H173        3.1736  -13.8180  -39.0859 H         1 UNK         0.0600 
    174 H174        2.2649  -15.4009  -42.0976 H         1 UNK         0.3000 
    175 H175        0.3416  -13.0488  -42.4414 H         1 UNK         0.0600 
    176 H176        1.3954  -14.8251  -43.7752 H         1 UNK         0.0600 
    177 H177        0.1585  -15.9866  -43.2905 H         1 UNK         0.0600 
    178 H178       -0.2560  -14.6219  -44.3167 H         1 UNK         0.0600 
    179 H179       -1.8492  -13.1561  -42.2361 H         1 UNK         0.3000 
    180 H180       -4.2459  -15.6908  -41.6507 H         1 UNK         0.0600 
    181 H181       -3.6974  -12.9971  -40.2875 H         1 UNK         0.0600 
    182 H182       -3.9160  -14.5347  -39.4613 H         1 UNK         0.0600 
    183 H183       -5.2518  -13.8284  -40.3571 H         1 UNK         0.0600 
    184 H184       -4.3606  -13.0043  -42.6733 H         1 UNK         0.3000 
    185 H185       -5.1770  -13.0688  -45.2170 H         1 UNK         0.0600 
    186 H186       -3.3545  -11.6842  -44.1299 H         1 UNK         0.0600 
    187 H187       -2.1302  -12.5722  -45.0298 H         1 UNK         0.0600 
    188 H188       -3.2662  -11.5174  -45.8650 H         1 UNK         0.0600 
    189 H189       -3.6079  -15.1079  -46.2740 H         1 UNK         0.3000 
    190 H190       -0.5951  -20.2925  -45.7997 H         1 UNK         0.3000 
    191 H191       -2.9287  -20.1935  -47.3825 H         1 UNK         0.0600 
    192 H192       -1.9500  -18.1945  -46.3218 H         1 UNK         0.0600 
    193 H193       -3.5997  -18.3860  -45.7470 H         1 UNK         0.0600 
    194 H194       -2.2573  -18.8460  -44.7140 H         1 UNK         0.0600 
    195 H195       -2.3739  -21.8200  -44.2917 H         1 UNK         0.3000 
    196 H196       -5.1886  -22.4369  -43.8346 H         1 UNK         0.0600 
    197 H197       -4.2686  -23.8612  -42.0099 H         1 UNK         0.0600 
    198 H198       -3.6100  -22.2331  -41.9408 H         1 UNK         0.0600 
    199 H199       -2.6297  -23.5528  -42.5719 H         1 UNK         0.0600 
    200 H200       -2.3105  -24.2002  -45.0889 H         1 UNK         0.3000 
    201 H201       -3.6685  -26.7004  -45.3515 H         1 UNK         0.0600 
    202 H202       -1.2406  -26.5268  -44.9307 H         1 UNK         0.0600 
    203 H203       -0.9953  -25.7312  -46.4850 H         1 UNK         0.0600 
    204 H204       -1.5267  -27.4083  -46.4231 H         1 UNK         0.0600 
    205 H205       -3.0139  -24.0813  -47.7075 H         1 UNK         0.3000 
    206 H206       -4.3556  -25.6562  -49.8711 H         1 UNK         0.0600 
    207 H207       -1.8585  -25.6075  -50.1364 H         1 UNK         0.0600 
    208 H208       -2.6417  -24.6735  -51.3978 H         1 UNK         0.0600 
    209 H209       -1.8767  -23.8505  -50.0427 H         1 UNK         0.0600 
    210 H210       -4.9878  -24.2272  -51.6977 H         1 UNK         0.3000 
    211 H211       -6.7428  -22.1298  -50.8090 H         1 UNK         0.0600 
    212 H212       -6.0385  -23.2327  -53.5722 H         1 UNK         0.0600 
    213 H213       -7.3162  -22.0558  -53.2719 H         1 UNK         0.0600 
    214 H214       -7.4255  -23.6645  -52.5782 H         1 UNK         0.0600 
    215 H215       -3.4638  -22.0453  -51.6517 H         1 UNK         0.3000 
    216 H216       -1.9439  -20.4487  -51.7143 H         1 UNK         0.0600 
    217 H217       -2.3785  -18.3933  -50.4395 H         1 UNK         0.0600 
    218 H218       -3.2175  -19.7149  -49.6637 H         1 UNK         0.0600 
    219 H219       -4.1112  -18.5584  -50.6487 H         1 UNK         0.0600 
    220 H220       -2.4244  -17.5141  -52.1943 H         1 UNK         0.3000 
    221 H221       -1.7340  -17.4608  -54.9055 H         1 UNK         0.0600 
    222 H222       -2.7144  -15.2097  -53.0793 H         1 UNK         0.0600 
    223 H223       -1.0425  -15.7299  -53.3098 H         1 UNK         0.0600 
    224 H224       -1.9172  -14.9769  -54.6312 H         1 UNK         0.0600 
    225 H225       -4.9379  -17.4345  -53.5114 H         1 UNK         0.3000 
    226 H226       -6.3966  -16.3625  -55.7401 H         1 UNK         0.0600 
    227 H227       -7.3459  -16.5221  -53.4430 H         1 UNK         0.0600 
    228 H228       -8.3446  -17.4014  -54.5898 H         1 UNK         0.0600 
    229 H229       -7.2684  -18.2826  -53.5145 H         1 UNK         0.0600 
    230 H230       -4.8527  -19.4457  -55.1712 H         1 UNK         0.3000 
    231 H231       -5.9973  -20.5920  -57.6851 H         1 UNK         0.0600 
    232 H232       -6.5242  -21.9398  -55.6483 H         1 UNK         0.0600 
    233 H233       -4.8042  -22.0186  -55.2512 H         1 UNK         0.0600 
    234 H234       -5.4190  -22.7960  -56.7077 H         1 UNK         0.0600 
    235 H235       -3.8309  -18.5581  -57.2732 H         1 UNK         0.3000 
    236 H236       -1.8371  -17.9787  -58.0052 H         1 UNK         0.0600 
    237 H237       -1.0836  -18.9132  -60.1607 H         1 UNK         0.0600 
    238 H238       -2.1061  -20.3290  -59.9526 H         1 UNK         0.0600 
    239 H239       -2.8294  -18.7365  -60.1751 H         1 UNK         0.0600 
    240 H240       -1.8365  -19.7125  -55.7125 H         1 UNK         0.3000 
    241 H241       -0.4262  -20.5685  -54.2722 H         1 UNK         0.0600 
    242 H242       -1.0198  -23.8208  -56.3356 H         1 UNK         0.3800 
    243 H243       -1.7058  -22.2618  -56.7134 H         1 UNK         0.3800 
    244 H244        2.0385  -20.7096  -54.5799 H         1 UNK         0.0800 
    245 H245        1.8868  -20.2709  -56.2452 H         1 UNK         0.0800 
    246 H246        3.3198  -19.1309  -53.4124 H         1 UNK         0.0800 
    247 H247        3.0063  -17.4312  -53.2136 H         1 UNK         0.0800 
@<TRIPOS>BOND
     1    1    2 1    
     2    1  127 1    
     3    1  128 1    
     4    1  129 1    
     5    2    3 2    
     6    2    4 am   BACKBONE|DICT|INTERRES
     7    4    5 1    
     8    4  130 1    
     9    5    6 1    
    10    5   65 1    
    11    5  131 1    
    12    6    7 1    
    13    6  132 1    
    14    6  133 1    
    15    7    8 1    
    16    8    9 1    
    17    8  134 1    
    18    8  135 1    
    19    9   10 ar   
    20    9   14 ar   
    21   10   11 ar   
    22   10  136 1    
    23   11   12 ar   
    24   11  126 1    
    25   12   13 ar   
    26   12  137 1    
    27   13   14 ar   
    28   13   15 1    
    29   14  138 1    
    30   15   16 1    
    31   15  139 1    
    32   15  140 1    
    33   16   17 1    
    34   17   18 1    
    35   17  141 1    
    36   17  142 1    
    37   18   19 1    
    38   18   67 1    
    39   18  143 1    
    40   19   20 am   BACKBONE|DICT|INTERRES
    41   19  144 1    
    42   20   21 2    
    43   20   22 1    
    44   22   23 1    
    45   22   24 1    
    46   22  145 1    
    47   23  146 1    
    48   23  147 1    
    49   23  148 1    
    50   24   25 am   BACKBONE|DICT|INTERRES
    51   24  149 1    
    52   25   26 2    
    53   25   27 1    
    54   27   28 1    
    55   27   29 1    
    56   27  150 1    
    57   28  151 1    
    58   28  152 1    
    59   28  153 1    
    60   29   30 am   BACKBONE|DICT|INTERRES
    61   29  154 1    
    62   30   31 2    
    63   30   32 1    
    64   32   33 1    
    65   32   34 1    
    66   32  155 1    
    67   33  156 1    
    68   33  157 1    
    69   33  158 1    
    70   34   35 am   BACKBONE|DICT|INTERRES
    71   34  159 1    
    72   35   36 2    
    73   35   37 1    
    74   37   38 1    
    75   37   39 1    
    76   37  160 1    
    77   38  161 1    
    78   38  162 1    
    79   38  163 1    
    80   39   40 am   BACKBONE|DICT|INTERRES
    81   39  164 1    
    82   40   41 2    
    83   40   42 1    
    84   42   43 1    
    85   42   44 1    
    86   42  165 1    
    87   43  166 1    
    88   43  167 1    
    89   43  168 1    
    90   44   45 am   BACKBONE|DICT|INTERRES
    91   44  169 1    
    92   45   46 2    
    93   45   47 1    
    94   47   48 1    
    95   47   49 1    
    96   47  170 1    
    97   48  171 1    
    98   48  172 1    
    99   48  173 1    
   100   49   50 am   BACKBONE|DICT|INTERRES
   101   49  174 1    
   102   50   51 2    
   103   50   52 1    
   104   52   53 1    
   105   52   54 1    
   106   52  175 1    
   107   53  176 1    
   108   53  177 1    
   109   53  178 1    
   110   54   55 am   BACKBONE|DICT|INTERRES
   111   54  179 1    
   112   55   56 2    
   113   55   57 1    
   114   57   58 1    
   115   57   59 1    
   116   57  180 1    
   117   58  181 1    
   118   58  182 1    
   119   58  183 1    
   120   59   60 am   BACKBONE|DICT|INTERRES
   121   59  184 1    
   122   60   61 2    
   123   60   62 1    
   124   62   63 1    
   125   62   64 1    
   126   62  185 1    
   127   63  186 1    
   128   63  187 1    
   129   63  188 1    
   130   64   65 am   BACKBONE|DICT|INTERRES
   131   64  189 1    
   132   65   66 2    
   133   67   68 2    
   134   67   69 am   BACKBONE|DICT|INTERRES
   135   69   70 1    
   136   69  190 1    
   137   70   71 1    
   138   70   72 1    
   139   70  191 1    
   140   71  192 1    
   141   71  193 1    
   142   71  194 1    
   143   72   73 2    
   144   72   74 am   BACKBONE|DICT|INTERRES
   145   74   75 1    
   146   74  195 1    
   147   75   76 1    
   148   75   77 1    
   149   75  196 1    
   150   76  197 1    
   151   76  198 1    
   152   76  199 1    
   153   77   78 2    
   154   77   79 am   BACKBONE|DICT|INTERRES
   155   79   80 1    
   156   79  200 1    
   157   80   81 1    
   158   80   82 1    
   159   80  201 1    
   160   81  202 1    
   161   81  203 1    
   162   81  204 1    
   163   82   83 2    
   164   82   84 am   BACKBONE|DICT|INTERRES
   165   84   85 1    
   166   84  205 1    
   167   85   86 1    
   168   85   87 1    
   169   85  206 1    
   170   86  207 1    
   171   86  208 1    
   172   86  209 1    
   173   87   88 2    
   174   87   89 am   BACKBONE|DICT|INTERRES
   175   89   90 1    
   176   89  210 1    
   177   90   91 1    
   178   90   92 1    
   179   90  211 1    
   180   91  212 1    
   181   91  213 1    
   182   91  214 1    
   183   92   93 2    
   184   92   94 am   BACKBONE|DICT|INTERRES
   185   94   95 1    
   186   94  215 1    
   187   95   96 1    
   188   95   97 1    
   189   95  216 1    
   190   96  217 1    
   191   96  218 1    
   192   96  219 1    
   193   97   98 2    
   194   97   99 am   BACKBONE|DICT|INTERRES
   195   99  100 1    
   196   99  220 1    
   197  100  101 1    
   198  100  102 1    
   199  100  221 1    
   200  101  222 1    
   201  101  223 1    
   202  101  224 1    
   203  102  103 2    
   204  102  104 am   BACKBONE|DICT|INTERRES
   205  104  105 1    
   206  104  225 1    
   207  105  106 1    
   208  105  107 1    
   209  105  226 1    
   210  106  227 1    
   211  106  228 1    
   212  106  229 1    
   213  107  108 2    
   214  107  109 am   BACKBONE|DICT|INTERRES
   215  109  110 1    
   216  109  230 1    
   217  110  111 1    
   218  110  112 1    
   219  110  231 1    
   220  111  232 1    
   221  111  233 1    
   222  111  234 1    
   223  112  113 2    
   224  112  114 am   BACKBONE|DICT|INTERRES
   225  114  115 1    
   226  114  235 1    
   227  115  116 1    
   228  115  117 1    
   229  115  236 1    
   230  116  237 1    
   231  116  238 1    
   232  116  239 1    
   233  117  118 2    
   234  117  119 am   BACKBONE|DICT|INTERRES
   235  119  120 1    
   236  119  240 1    
   237  120  121 1    
   238  120  124 1    
   239  120  241 1    
   240  121  122 am   BACKBONE|DICT|INTERRES
   241  121  123 2    
   242  122  242 1    
   243  122  243 1    
   244  124  125 1    
   245  124  244 1    
   246  124  245 1    
   247  125  126 1    
   248  126  246 1    
   249  126  247 1    
@<TRIPOS>SUBSTRUCTURE
     1 UNK         1 GROUP             0       ****    0 ROOT    
