@<TRIPOS>MOLECULE
3R540
247   249    1
SMALL
USER_CHARGES


@<TRIPOS>ATOM
      1 CA          3.6781  -15.9649  -52.2125 C.3       0 UNK        -0.1800 
      2 C           3.5071  -14.8008  -51.2477 C.2       0 UNK         0.5000 
      3 O           3.7153  -13.6492  -51.6317 O.2       0 UNK        -0.5000 
      4 N           3.1242  -15.0908  -49.9993 N.am      1 UNK        -0.5000 
      5 CA          2.9079  -14.1139  -48.9276 C.3       1 UNK         0.1400 
      6 C6          3.1098  -14.7207  -47.5090 C.3       23 UNK        -0.0398 
      7 S7          4.6091  -15.7550  -47.3494 S.3       23 UNK        -0.2404 
      8 C8          3.8987  -17.4086  -47.0469 C.3       23 UNK        -0.0205 
      9 C9          3.2191  -17.9990  -48.2769 C.ar      23 UNK        -0.0193 
     10 C10         1.8631  -17.7618  -48.5171 C.ar      23 UNK        -0.1150 
     11 C11         1.2314  -18.3028  -49.6388 C.ar      23 UNK        -0.0193 
     12 C12         1.9563  -19.1122  -50.5146 C.ar      23 UNK        -0.1150 
     13 C13         3.3049  -19.3848  -50.2722 C.ar      23 UNK        -0.0193 
     14 C14         3.9353  -18.8121  -49.1610 C.ar      23 UNK        -0.1150 
     15 C15         4.0752  -20.3053  -51.2092 C.3       23 UNK        -0.0205 
     16 S16         3.4551  -22.0227  -51.1712 S.3       23 UNK        -0.2404 
     17 C17         3.7636  -22.4952  -49.4333 C.3       23 UNK        -0.0398 
     18 CA          2.6927  -23.4157  -48.7910 C.3       11 UNK         0.1400 
     19 N           3.1311  -23.7972  -47.4448 N.am      11 UNK        -0.5000 
     20 C           2.5489  -24.6934  -46.6373 C.2       10 UNK         0.5000 
     21 O           1.5683  -25.3678  -46.9473 O.2       10 UNK        -0.5000 
     22 CA          3.1334  -24.7943  -45.2125 C.3       10 UNK         0.1400 
     23 CB          4.2915  -25.8022  -45.1748 C.3       10 UNK        -0.1800 
     24 N           3.5920  -23.5037  -44.6774 N.am      10 UNK        -0.5000 
     25 C           2.8082  -22.4279  -44.5279 C.2       9 UNK         0.5000 
     26 O           1.6093  -22.4190  -44.8211 O.2       9 UNK        -0.5000 
     27 CA          3.4677  -21.1331  -44.0355 C.3       9 UNK         0.1400 
     28 CB          4.3948  -20.5462  -45.1155 C.3       9 UNK        -0.1800 
     29 N           2.3911  -20.1973  -43.7426 N.am      9 UNK        -0.5000 
     30 C           2.4466  -19.0910  -42.9981 C.2       8 UNK         0.5000 
     31 O           3.4755  -18.6679  -42.4702 O.2       8 UNK        -0.5000 
     32 CA          1.1171  -18.3324  -42.8082 C.3       8 UNK         0.1400 
     33 CB          1.0099  -17.1910  -43.8289 C.3       8 UNK        -0.1800 
     34 N          -0.0697  -19.1882  -42.9260 N.am      8 UNK        -0.5000 
     35 C          -0.4210  -20.1410  -42.0522 C.2       7 UNK         0.5000 
     36 O           0.2055  -20.3711  -41.0164 O.2       7 UNK        -0.5000 
     37 CA         -1.6826  -20.9639  -42.3957 C.3       7 UNK         0.1400 
     38 CB         -1.9667  -22.0770  -41.3705 C.3       7 UNK        -0.1800 
     39 N          -2.8767  -20.1268  -42.5120 N.am      7 UNK        -0.5000 
     40 C          -3.1972  -19.3772  -43.5730 C.2       6 UNK         0.5000 
     41 O          -2.5037  -19.3246  -44.5874 O.2       6 UNK        -0.5000 
     42 CA         -4.4993  -18.5497  -43.5093 C.3       6 UNK         0.1400 
     43 CB         -5.3317  -18.7629  -42.2243 C.3       6 UNK        -0.1800 
     44 N          -4.2432  -17.1235  -43.7318 N.am      6 UNK        -0.5000 
     45 C          -3.4500  -16.3192  -43.0069 C.2       5 UNK         0.5000 
     46 O          -2.8678  -16.6733  -41.9797 O.2       5 UNK        -0.5000 
     47 CA         -3.3011  -14.8671  -43.5182 C.3       5 UNK         0.1400 
     48 CB         -2.0665  -14.1472  -42.9370 C.3       5 UNK        -0.1800 
     49 N          -3.3140  -14.7332  -44.9809 N.am      5 UNK        -0.5000 
     50 C          -2.5072  -15.3433  -45.8616 C.2       4 UNK         0.5000 
     51 O          -1.6616  -16.1837  -45.5629 O.2       4 UNK        -0.5000 
     52 CA         -2.6410  -14.9113  -47.3283 C.3       4 UNK         0.1400 
     53 CB         -4.0688  -15.0781  -47.8901 C.3       4 UNK        -0.1800 
     54 N          -2.1021  -13.5679  -47.5453 N.am      4 UNK        -0.5000 
     55 C          -2.5819  -12.3821  -47.1391 C.2       3 UNK         0.5000 
     56 O          -3.6423  -12.2443  -46.5269 O.2       3 UNK        -0.5000 
     57 CA         -1.7286  -11.1305  -47.4539 C.3       3 UNK         0.1400 
     58 CB         -1.0143  -10.6422  -46.1840 C.3       3 UNK        -0.1800 
     59 N          -0.7248  -11.3548  -48.4985 N.am      3 UNK        -0.5000 
     60 C          -1.0037  -11.5781  -49.7886 C.2       2 UNK         0.5000 
     61 O          -2.1275  -11.4169  -50.2660 O.2       2 UNK        -0.5000 
     62 CA          0.1321  -12.0873  -50.7068 C.3       2 UNK         0.1400 
     63 CB          0.5194  -11.0041  -51.7262 C.3       2 UNK        -0.1800 
     64 N           1.3683  -12.5992  -50.0911 N.am      2 UNK        -0.5000 
     65 C           1.5056  -13.4922  -49.0999 C.2       1 UNK         0.5000 
     66 O           0.5816  -13.8682  -48.3811 O.2       1 UNK        -0.5000 
     67 C           1.2756  -22.7865  -48.7922 C.2       11 UNK         0.5000 
     68 O           0.5028  -23.0246  -49.7208 O.2       11 UNK        -0.5000 
     69 N           0.9518  -22.0259  -47.7380 N.am      12 UNK        -0.5000 
     70 CA         -0.3467  -21.3849  -47.5389 C.3       12 UNK         0.1400 
     71 CB         -0.1387  -20.1490  -46.6470 C.3       12 UNK        -0.1800 
     72 C          -1.3576  -22.3534  -46.8954 C.2       12 UNK         0.5000 
     73 O          -2.5239  -22.3834  -47.2915 O.2       12 UNK        -0.5000 
     74 N          -0.8821  -23.1191  -45.9030 N.am      13 UNK        -0.5000 
     75 CA         -1.6637  -24.0446  -45.0864 C.3       13 UNK         0.1400 
     76 CB         -0.8094  -24.5048  -43.8960 C.3       13 UNK        -0.1800 
     77 C          -2.1877  -25.2677  -45.8553 C.2       13 UNK         0.5000 
     78 O          -3.2393  -25.7896  -45.4836 O.2       13 UNK        -0.5000 
     79 N          -1.4573  -25.7039  -46.8934 N.am      14 UNK        -0.5000 
     80 CA         -1.7815  -26.8286  -47.7760 C.3       14 UNK         0.1400 
     81 CB         -0.7275  -26.9118  -48.8923 C.3       14 UNK        -0.1800 
     82 C          -3.2002  -26.7182  -48.3648 C.2       14 UNK         0.5000 
     83 O          -3.4371  -25.8707  -49.2259 O.2       14 UNK        -0.5000 
     84 N          -4.1276  -27.5233  -47.8236 N.am      15 UNK        -0.5000 
     85 CA         -5.5710  -27.5398  -48.1057 C.3       15 UNK         0.1400 
     86 CB         -5.8279  -28.0517  -49.5385 C.3       15 UNK        -0.1800 
     87 C          -6.2883  -26.1958  -47.8290 C.2       15 UNK         0.5000 
     88 O          -7.3759  -25.9688  -48.3619 O.2       15 UNK        -0.5000 
     89 N          -5.6593  -25.3239  -47.0228 N.am      16 UNK        -0.5000 
     90 CA         -6.0151  -23.9240  -46.7637 C.3       16 UNK         0.1400 
     91 CB         -7.2807  -23.8407  -45.8866 C.3       16 UNK        -0.1800 
     92 C          -6.1159  -23.0769  -48.0539 C.2       16 UNK         0.5000 
     93 O          -6.9566  -22.1803  -48.1416 O.2       16 UNK        -0.5000 
     94 N          -5.2672  -23.3873  -49.0452 N.am      17 UNK        -0.5000 
     95 CA         -5.3092  -22.8260  -50.3966 C.3       17 UNK         0.1400 
     96 CB         -4.5000  -23.7313  -51.3387 C.3       17 UNK        -0.1800 
     97 C          -4.8282  -21.3683  -50.5159 C.2       17 UNK         0.5000 
     98 O          -4.9029  -20.8249  -51.6168 O.2       17 UNK        -0.5000 
     99 N          -4.3425  -20.7653  -49.4197 N.am      18 UNK        -0.5000 
    100 CA        -3.7227  -19.4370  -49.3188 C.3       18 UNK         0.1400 
    101 CB        -3.6620  -19.0267  -47.8397 C.3       18 UNK        -0.1800 
    102 C         -4.3843  -18.3137  -50.1417 C.2       18 UNK         0.5000 
    103 O         -3.6829  -17.5512  -50.8064 O.2       18 UNK        -0.5000 
    104 N         -5.7224  -18.2599  -50.1216 N.am      19 UNK        -0.5000 
    105 CA        -6.5335  -17.2830  -50.8530 C.3       19 UNK         0.1400 
    106 CB        -7.9984  -17.4311  -50.4152 C.3       19 UNK        -0.1800 
    107 C         -6.4185  -17.3747  -52.3904 C.2       19 UNK         0.5000 
    108 O         -6.6550  -16.3730  -53.0665 O.2       19 UNK        -0.5000 
    109 N         -6.0608  -18.5555  -52.9108 N.am      20 UNK        -0.5000 
    110 CA        -5.8245  -18.8116  -54.3313 C.3       20 UNK         0.1400 
    111 CB        -6.5675  -20.0946  -54.7367 C.3       20 UNK        -0.1800 
    112 C         -4.3221  -18.9470  -54.6341 C.2       20 UNK         0.5000 
    113 O         -3.8772  -18.5058  -55.6942 O.2       20 UNK        -0.5000 
    114 N         -3.5687  -19.5561  -53.7070 N.am      21 UNK        -0.5000 
    115 CA        -2.1326  -19.8176  -53.8186 C.3       21 UNK         0.1400 
    116 CB        -1.7116  -20.8031  -52.7168 C.3       21 UNK        -0.1800 
    117 C         -1.2645  -18.5468  -53.7737 C.2       21 UNK         0.5000 
    118 O         -0.1800  -18.5415  -54.3578 O.2       21 UNK        -0.5000 
    119 N         -1.7497  -17.4972  -53.1025 N.am      22 UNK        -0.5000 
    120 CA        -1.1000  -16.1823  -53.0353 C.3       22 UNK         0.1400 
    121 C         -2.1046  -15.0047  -52.9047 C.2       22 UNK         0.5000 
    122 N         -3.2627  -15.1877  -52.2822 N.am      22 UNK        -0.7600 
    123 O         -1.8367  -13.9134  -53.3993 O.2       22 UNK        -0.5000 
    124 C124        0.0278  -16.1308  -51.9729 C.3       23 UNK        -0.0398 
    125 S125       -0.5732  -16.2942  -50.2579 S.3       23 UNK        -0.2404 
    126 C126       -0.2435  -18.0379  -49.8780 C.3       23 UNK        -0.0205 
    127 H127        4.7169  -16.0360  -52.5341 H         1 UNK         0.0600 
    128 H128        3.0554  -15.8178  -53.0948 H         1 UNK         0.0600 
    129 H129        3.3989  -16.9127  -51.7545 H         1 UNK         0.0600 
    130 H130        2.9517  -16.0534  -49.7410 H         1 UNK         0.3000 
    131 H131        3.6426  -13.3132  -49.0374 H         1 UNK         0.0600 
    132 H132        3.1867  -13.9128  -46.7799 H         1 UNK         0.0800 
    133 H133        2.2486  -15.3050  -47.1894 H         1 UNK         0.0800 
    134 H134        3.1989  -17.3640  -46.2109 H         1 UNK         0.0800 
    135 H135        4.7059  -18.0679  -46.7266 H         1 UNK         0.0800 
    136 H136        1.2833  -17.1621  -47.8304 H         1 UNK         0.1150 
    137 H137        1.4691  -19.5495  -51.3752 H         1 UNK         0.1150 
    138 H138        4.9808  -19.0123  -48.9729 H         1 UNK         0.1150 
    139 H139        3.9933  -19.9228  -52.2275 H         1 UNK         0.0800 
    140 H140        5.1390  -20.3052  -50.9666 H         1 UNK         0.0800 
    141 H141        3.8848  -21.5997  -48.8240 H         1 UNK         0.0800 
    142 H142        4.7323  -22.9965  -49.4115 H         1 UNK         0.0800 
    143 H143        2.6356  -24.3320  -49.3824 H         1 UNK         0.0600 
    144 H144        3.9336  -23.3036  -47.0837 H         1 UNK         0.3000 
    145 H145        2.3430  -25.1626  -44.5568 H         1 UNK         0.0600 
    146 H146        4.6529  -25.9500  -44.1570 H         1 UNK         0.0600 
    147 H147        3.9733  -26.7762  -45.5495 H         1 UNK         0.0600 
    148 H148        5.1328  -25.4739  -45.7863 H         1 UNK         0.0600 
    149 H149        4.5669  -23.4428  -44.4202 H         1 UNK         0.3000 
    150 H150        4.0283  -21.3444  -43.1230 H         1 UNK         0.0600 
    151 H151        5.2107  -21.2296  -45.3524 H         1 UNK         0.0600 
    152 H152        4.8476  -19.6127  -44.7820 H         1 UNK         0.0600 
    153 H153        3.8536  -20.3449  -46.0411 H         1 UNK         0.0600 
    154 H154        1.4932  -20.5052  -44.0932 H         1 UNK         0.3000 
    155 H155        1.1257  -17.8975  -41.8067 H         1 UNK         0.0600 
    156 H156        0.9265  -17.5670  -44.8497 H         1 UNK         0.0600 
    157 H157        1.8822  -16.5375  -43.7868 H         1 UNK         0.0600 
    158 H158        0.1343  -16.5758  -43.6276 H         1 UNK         0.0600 
    159 H159       -0.6795  -19.0274  -43.7221 H         1 UNK         0.3000 
    160 H160       -1.4945  -21.4425  -43.3590 H         1 UNK         0.0600 
    161 H161       -2.2128  -21.6678  -40.3899 H         1 UNK         0.0600 
    162 H162       -1.1017  -22.7291  -41.2441 H         1 UNK         0.0600 
    163 H163       -2.7987  -22.7040  -41.6916 H         1 UNK         0.0600 
    164 H164       -3.4702  -20.0793  -41.6968 H         1 UNK         0.3000 
    165 H165       -5.1060  -18.8858  -44.3514 H         1 UNK         0.0600 
    166 H166       -4.7941  -18.4575  -41.3260 H         1 UNK         0.0600 
    167 H167       -6.2571  -18.1881  -42.2630 H         1 UNK         0.0600 
    168 H168       -5.6137  -19.8099  -42.1061 H         1 UNK         0.0600 
    169 H169       -4.6395  -16.7374  -44.5761 H         1 UNK         0.3000 
    170 H170       -4.1843  -14.3370  -43.1596 H         1 UNK         0.0600 
    171 H171       -2.0929  -14.1341  -41.8468 H         1 UNK         0.0600 
    172 H172       -1.1381  -14.6316  -43.2378 H         1 UNK         0.0600 
    173 H173       -2.0238  -13.1103  -43.2708 H         1 UNK         0.0600 
    174 H174       -3.9172  -14.0067  -45.3501 H         1 UNK         0.3000 
    175 H175       -1.9981  -15.5809  -47.8982 H         1 UNK         0.0600 
    176 H176       -4.7883  -14.4094  -47.4188 H         1 UNK         0.0600 
    177 H177       -4.0868  -14.8854  -48.9631 H         1 UNK         0.0600 
    178 H178       -4.4300  -16.0953  -47.7405 H         1 UNK         0.0600 
    179 H179       -1.1766  -13.5683  -47.9715 H         1 UNK         0.3000 
    180 H180       -2.4079  -10.3451  -47.7913 H         1 UNK         0.0600 
    181 H181       -0.3144  -11.3883  -45.8052 H         1 UNK         0.0600 
    182 H182       -1.7305  -10.4311  -45.3887 H         1 UNK         0.0600 
    183 H183       -0.4586   -9.7232  -46.3715 H         1 UNK         0.0600 
    184 H184        0.2152  -11.5488  -48.1854 H         1 UNK         0.3000 
    185 H185       -0.2938  -12.9256  -51.2601 H         1 UNK         0.0600 
    186 H186        1.2038  -11.3966  -52.4787 H         1 UNK         0.0600 
    187 H187       -0.3569  -10.6278  -52.2560 H         1 UNK         0.0600 
    188 H188        1.0018  -10.1545  -51.2417 H         1 UNK         0.0600 
    189 H189        2.2076  -12.4167  -50.6284 H         1 UNK         0.3000 
    190 H190        1.6101  -21.9440  -46.9767 H         1 UNK         0.3000 
    191 H191       -0.7358  -21.0553  -48.5047 H         1 UNK         0.0600 
    192 H192       -0.9701  -19.4525  -46.7399 H         1 UNK         0.0600 
    193 H193        0.7649  -19.6064  -46.9157 H         1 UNK         0.0600 
    194 H194       -0.0537  -20.4133  -45.5936 H         1 UNK         0.0600 
    195 H195        0.0861  -22.9876  -45.6207 H         1 UNK         0.3000 
    196 H196       -2.5264  -23.4972  -44.7009 H         1 UNK         0.0600 
    197 H197        0.0168  -25.1374  -44.2202 H         1 UNK         0.0600 
    198 H198       -0.3854  -23.6605  -43.3545 H         1 UNK         0.0600 
    199 H199       -1.4058  -25.0818  -43.1883 H         1 UNK         0.0600 
    200 H200       -0.5797  -25.2344  -47.0827 H         1 UNK         0.3000 
    201 H201       -1.7179  -27.7436  -47.1841 H         1 UNK         0.0600 
    202 H202       -0.6548  -25.9752  -49.4474 H         1 UNK         0.0600 
    203 H203       -0.9725  -27.6998  -49.6056 H         1 UNK         0.0600 
    204 H204        0.2586  -27.1386  -48.4879 H         1 UNK         0.0600 
    205 H205       -3.8344  -28.1404  -47.0787 H         1 UNK         0.3000 
    206 H206       -6.0081  -28.2604  -47.4132 H         1 UNK         0.0600 
    207 H207       -5.3224  -29.0011  -49.7151 H         1 UNK         0.0600 
    208 H208       -6.8918  -28.2165  -49.7130 H         1 UNK         0.0600 
    209 H209       -5.4802  -27.3415  -50.2894 H         1 UNK         0.0600 
    210 H210       -4.7839  -25.6248  -46.6019 H         1 UNK         0.3000 
    211 H211       -5.1873  -23.5019  -46.1919 H         1 UNK         0.0600 
    212 H212       -7.4784  -22.8129  -45.5802 H         1 UNK         0.0600 
    213 H213       -7.1694  -24.4327  -44.9781 H         1 UNK         0.0600 
    214 H214       -8.1637  -24.2004  -46.4156 H         1 UNK         0.0600 
    215 H215       -4.6014  -24.1397  -48.9011 H         1 UNK         0.3000 
    216 H216       -6.3481  -22.8406  -50.7319 H         1 UNK         0.0600 
    217 H217       -3.4466  -23.7611  -51.0568 H         1 UNK         0.0600 
    218 H218       -4.5540  -23.3809  -52.3703 H         1 UNK         0.0600 
    219 H219       -4.8804  -24.7530  -51.3264 H         1 UNK         0.0600 
    220 H220       -4.2917  -21.3318  -48.5833 H         1 UNK         0.3000 
    221 H221       -2.7025  -19.5519  -49.6816 H         1 UNK         0.0600 
    222 H222       -3.2128  -19.8058  -47.2268 H         1 UNK         0.0600 
    223 H223       -4.6542  -18.8270  -47.4334 H         1 UNK         0.0600 
    224 H224       -3.0616  -18.1262  -47.7059 H         1 UNK         0.0600 
    225 H225       -6.2212  -18.9488  -49.5775 H         1 UNK         0.3000 
    226 H226       -6.1902  -16.2876  -50.5630 H         1 UNK         0.0600 
    227 H227       -8.3894  -18.4215  -50.6519 H         1 UNK         0.0600 
    228 H228       -8.1079  -17.2731  -49.3421 H         1 UNK         0.0600 
    229 H229       -8.6330  -16.6989  -50.9163 H         1 UNK         0.0600 
    230 H230       -5.8456  -19.3212  -52.2789 H         1 UNK         0.3000 
    231 H231       -6.2128  -17.9914  -54.9386 H         1 UNK         0.0600 
    232 H232       -6.2236  -20.9583  -54.1659 H         1 UNK         0.0600 
    233 H233       -6.4159  -20.3167  -55.7937 H         1 UNK         0.0600 
    234 H234       -7.6409  -19.9937  -54.5759 H         1 UNK         0.0600 
    235 H235       -4.0310  -19.9397  -52.8858 H         1 UNK         0.3000 
    236 H236       -1.9555  -20.2960  -54.7840 H         1 UNK         0.0600 
    237 H237       -2.2402  -21.7516  -52.8143 H         1 UNK         0.0600 
    238 H238       -0.6436  -21.0195  -52.7674 H         1 UNK         0.0600 
    239 H239       -1.9196  -20.4087  -51.7235 H         1 UNK         0.0600 
    240 H240       -2.6339  -17.5821  -52.6167 H         1 UNK         0.3000 
    241 H241       -0.6216  -16.0189  -54.0033 H         1 UNK         0.0600 
    242 H242       -3.4437  -16.0404  -51.7575 H         1 UNK         0.3800 
    243 H243       -3.9094  -14.4188  -52.2218 H         1 UNK         0.3800 
    244 H244        0.5642  -15.1845  -52.0498 H         1 UNK         0.0800 
    245 H245        0.7679  -16.9052  -52.1747 H         1 UNK         0.0800 
    246 H246       -0.7952  -18.3017  -48.9762 H         1 UNK         0.0800 
    247 H247       -0.6327  -18.6649  -50.6793 H         1 UNK         0.0800 
@<TRIPOS>BOND
     1    1    2 1    
     2    1  127 1    
     3    1  128 1    
     4    1  129 1    
     5    2    3 2    
     6    2    4 am   BACKBONE|DICT|INTERRES
     7    4    5 1    
     8    4  130 1    
     9    5    6 1    
    10    5   65 1    
    11    5  131 1    
    12    6    7 1    
    13    6  132 1    
    14    6  133 1    
    15    7    8 1    
    16    8    9 1    
    17    8  134 1    
    18    8  135 1    
    19    9   10 ar   
    20    9   14 ar   
    21   10   11 ar   
    22   10  136 1    
    23   11   12 ar   
    24   11  126 1    
    25   12   13 ar   
    26   12  137 1    
    27   13   14 ar   
    28   13   15 1    
    29   14  138 1    
    30   15   16 1    
    31   15  139 1    
    32   15  140 1    
    33   16   17 1    
    34   17   18 1    
    35   17  141 1    
    36   17  142 1    
    37   18   19 1    
    38   18   67 1    
    39   18  143 1    
    40   19   20 am   BACKBONE|DICT|INTERRES
    41   19  144 1    
    42   20   21 2    
    43   20   22 1    
    44   22   23 1    
    45   22   24 1    
    46   22  145 1    
    47   23  146 1    
    48   23  147 1    
    49   23  148 1    
    50   24   25 am   BACKBONE|DICT|INTERRES
    51   24  149 1    
    52   25   26 2    
    53   25   27 1    
    54   27   28 1    
    55   27   29 1    
    56   27  150 1    
    57   28  151 1    
    58   28  152 1    
    59   28  153 1    
    60   29   30 am   BACKBONE|DICT|INTERRES
    61   29  154 1    
    62   30   31 2    
    63   30   32 1    
    64   32   33 1    
    65   32   34 1    
    66   32  155 1    
    67   33  156 1    
    68   33  157 1    
    69   33  158 1    
    70   34   35 am   BACKBONE|DICT|INTERRES
    71   34  159 1    
    72   35   36 2    
    73   35   37 1    
    74   37   38 1    
    75   37   39 1    
    76   37  160 1    
    77   38  161 1    
    78   38  162 1    
    79   38  163 1    
    80   39   40 am   BACKBONE|DICT|INTERRES
    81   39  164 1    
    82   40   41 2    
    83   40   42 1    
    84   42   43 1    
    85   42   44 1    
    86   42  165 1    
    87   43  166 1    
    88   43  167 1    
    89   43  168 1    
    90   44   45 am   BACKBONE|DICT|INTERRES
    91   44  169 1    
    92   45   46 2    
    93   45   47 1    
    94   47   48 1    
    95   47   49 1    
    96   47  170 1    
    97   48  171 1    
    98   48  172 1    
    99   48  173 1    
   100   49   50 am   BACKBONE|DICT|INTERRES
   101   49  174 1    
   102   50   51 2    
   103   50   52 1    
   104   52   53 1    
   105   52   54 1    
   106   52  175 1    
   107   53  176 1    
   108   53  177 1    
   109   53  178 1    
   110   54   55 am   BACKBONE|DICT|INTERRES
   111   54  179 1    
   112   55   56 2    
   113   55   57 1    
   114   57   58 1    
   115   57   59 1    
   116   57  180 1    
   117   58  181 1    
   118   58  182 1    
   119   58  183 1    
   120   59   60 am   BACKBONE|DICT|INTERRES
   121   59  184 1    
   122   60   61 2    
   123   60   62 1    
   124   62   63 1    
   125   62   64 1    
   126   62  185 1    
   127   63  186 1    
   128   63  187 1    
   129   63  188 1    
   130   64   65 am   BACKBONE|DICT|INTERRES
   131   64  189 1    
   132   65   66 2    
   133   67   68 2    
   134   67   69 am   BACKBONE|DICT|INTERRES
   135   69   70 1    
   136   69  190 1    
   137   70   71 1    
   138   70   72 1    
   139   70  191 1    
   140   71  192 1    
   141   71  193 1    
   142   71  194 1    
   143   72   73 2    
   144   72   74 am   BACKBONE|DICT|INTERRES
   145   74   75 1    
   146   74  195 1    
   147   75   76 1    
   148   75   77 1    
   149   75  196 1    
   150   76  197 1    
   151   76  198 1    
   152   76  199 1    
   153   77   78 2    
   154   77   79 am   BACKBONE|DICT|INTERRES
   155   79   80 1    
   156   79  200 1    
   157   80   81 1    
   158   80   82 1    
   159   80  201 1    
   160   81  202 1    
   161   81  203 1    
   162   81  204 1    
   163   82   83 2    
   164   82   84 am   BACKBONE|DICT|INTERRES
   165   84   85 1    
   166   84  205 1    
   167   85   86 1    
   168   85   87 1    
   169   85  206 1    
   170   86  207 1    
   171   86  208 1    
   172   86  209 1    
   173   87   88 2    
   174   87   89 am   BACKBONE|DICT|INTERRES
   175   89   90 1    
   176   89  210 1    
   177   90   91 1    
   178   90   92 1    
   179   90  211 1    
   180   91  212 1    
   181   91  213 1    
   182   91  214 1    
   183   92   93 2    
   184   92   94 am   BACKBONE|DICT|INTERRES
   185   94   95 1    
   186   94  215 1    
   187   95   96 1    
   188   95   97 1    
   189   95  216 1    
   190   96  217 1    
   191   96  218 1    
   192   96  219 1    
   193   97   98 2    
   194   97   99 am   BACKBONE|DICT|INTERRES
   195   99  100 1    
   196   99  220 1    
   197  100  101 1    
   198  100  102 1    
   199  100  221 1    
   200  101  222 1    
   201  101  223 1    
   202  101  224 1    
   203  102  103 2    
   204  102  104 am   BACKBONE|DICT|INTERRES
   205  104  105 1    
   206  104  225 1    
   207  105  106 1    
   208  105  107 1    
   209  105  226 1    
   210  106  227 1    
   211  106  228 1    
   212  106  229 1    
   213  107  108 2    
   214  107  109 am   BACKBONE|DICT|INTERRES
   215  109  110 1    
   216  109  230 1    
   217  110  111 1    
   218  110  112 1    
   219  110  231 1    
   220  111  232 1    
   221  111  233 1    
   222  111  234 1    
   223  112  113 2    
   224  112  114 am   BACKBONE|DICT|INTERRES
   225  114  115 1    
   226  114  235 1    
   227  115  116 1    
   228  115  117 1    
   229  115  236 1    
   230  116  237 1    
   231  116  238 1    
   232  116  239 1    
   233  117  118 2    
   234  117  119 am   BACKBONE|DICT|INTERRES
   235  119  120 1    
   236  119  240 1    
   237  120  121 1    
   238  120  124 1    
   239  120  241 1    
   240  121  122 am   BACKBONE|DICT|INTERRES
   241  121  123 2    
   242  122  242 1    
   243  122  243 1    
   244  124  125 1    
   245  124  244 1    
   246  124  245 1    
   247  125  126 1    
   248  126  246 1    
   249  126  247 1    
@<TRIPOS>SUBSTRUCTURE
     1 UNK         1 GROUP             0       ****    0 ROOT    
