@<TRIPOS>MOLECULE
3R540
247   249    1
SMALL
USER_CHARGES


@<TRIPOS>ATOM
      1 CA          6.5323  -17.0581  -45.5493 C.3       0 UNK        -0.1800 
      2 C           5.1922  -17.1937  -46.2563 C.2       0 UNK         0.5000 
      3 O           4.3701  -18.0206  -45.8642 O.2       0 UNK        -0.5000 
      4 N           4.9614  -16.3860  -47.2982 N.am      1 UNK        -0.5000 
      5 CA          3.7434  -16.4265  -48.1180 C.3       1 UNK         0.1400 
      6 C6          4.0149  -15.9335  -49.5652 C.3       23 UNK        -0.0398 
      7 S7          3.1457  -16.9553  -50.7999 S.3       23 UNK        -0.2404 
      8 C8          1.8153  -15.8380  -51.3351 C.3       23 UNK        -0.0205 
      9 C9          0.6536  -16.6346  -51.9027 C.ar      23 UNK        -0.0193 
     10 C10         0.7004  -17.1141  -53.2149 C.ar      23 UNK        -0.1150 
     11 C11        -0.3526  -17.8756  -53.7292 C.ar      23 UNK        -0.0193 
     12 C12        -1.4591  -18.1491  -52.9203 C.ar      23 UNK        -0.1150 
     13 C13        -1.5163  -17.6798  -51.6059 C.ar      23 UNK        -0.0193 
     14 C14        -0.4589  -16.9155  -51.1047 C.ar      23 UNK        -0.1150 
     15 C15        -2.7192  -18.0026  -50.7310 C.3       23 UNK        -0.0205 
     16 S16        -2.6398  -19.6895  -50.0456 S.3       23 UNK        -0.2404 
     17 C17        -1.2943  -19.5172  -48.8234 C.3       23 UNK        -0.0398 
     18 CA         -0.7676  -20.8751  -48.2992 C.3       11 UNK         0.1400 
     19 N           0.5782  -20.7412  -47.7335 N.am      11 UNK        -0.5000 
     20 C           1.3774  -21.7644  -47.3968 C.2       10 UNK         0.5000 
     21 O           1.0861  -22.9445  -47.5792 O.2       10 UNK        -0.5000 
     22 CA          2.6980  -21.4092  -46.6824 C.3       10 UNK         0.1400 
     23 CB          3.8085  -21.1366  -47.7077 C.3       10 UNK        -0.1800 
     24 N           2.5781  -20.2532  -45.7913 N.am      10 UNK        -0.5000 
     25 C           1.7161  -20.1450  -44.7734 C.2       9 UNK         0.5000 
     26 O           0.9584  -21.0481  -44.4139 O.2       9 UNK        -0.5000 
     27 CA          1.6166  -18.7470  -44.1458 C.3       9 UNK         0.1400 
     28 CB          0.8048  -17.8270  -45.0674 C.3       9 UNK        -0.1800 
     29 N           1.0010  -18.7318  -42.8241 N.am      9 UNK        -0.5000 
     30 C           1.5419  -19.2478  -41.7143 C.2       8 UNK         0.5000 
     31 O           2.6278  -19.8296  -41.6933 O.2       8 UNK        -0.5000 
     32 CA          0.7603  -19.0473  -40.4025 C.3       8 UNK         0.1400 
     33 CB          1.6918  -18.5943  -39.2644 C.3       8 UNK        -0.1800 
     34 N          -0.3097  -18.0557  -40.5556 N.am      8 UNK        -0.5000 
     35 C          -1.6147  -18.2957  -40.3716 C.2       7 UNK         0.5000 
     36 O          -2.0703  -19.3993  -40.0702 O.2       7 UNK        -0.5000 
     37 CA         -2.5851  -17.1104  -40.5413 C.3       7 UNK         0.1400 
     38 CB         -2.9295  -16.5083  -39.1712 C.3       7 UNK        -0.1800 
     39 N          -2.0778  -16.0583  -41.4274 N.am      7 UNK        -0.5000 
     40 C          -2.0462  -16.1649  -42.7639 C.2       6 UNK         0.5000 
     41 O          -2.4182  -17.1761  -43.3586 O.2       6 UNK        -0.5000 
     42 CA         -1.4730  -14.9955  -43.5912 C.3       6 UNK         0.1400 
     43 CB         -2.3525  -14.6401  -44.8066 C.3       6 UNK        -0.1800 
     44 N          -1.1048  -13.8042  -42.8256 N.am      6 UNK        -0.5000 
     45 C          -1.8971  -12.9134  -42.2169 C.2       5 UNK         0.5000 
     46 O          -3.1281  -12.9473  -42.2378 O.2       5 UNK        -0.5000 
     47 CA         -1.1456  -11.8263  -41.4169 C.3       5 UNK         0.1400 
     48 CB         -2.0693  -10.9946  -40.5023 C.3       5 UNK        -0.1800 
     49 N          -0.0163  -12.3871  -40.6588 N.am      5 UNK        -0.5000 
     50 C          -0.0877  -13.3431  -39.7189 C.2       4 UNK         0.5000 
     51 O          -1.1469  -13.8302  -39.3248 O.2       4 UNK        -0.5000 
     52 CA          1.2555  -13.8752  -39.1769 C.3       4 UNK         0.1400 
     53 CB          1.0857  -15.1231  -38.2861 C.3       4 UNK        -0.1800 
     54 N           2.2346  -14.1292  -40.2419 N.am      4 UNK        -0.5000 
     55 C           2.0992  -14.9522  -41.2922 C.2       3 UNK         0.5000 
     56 O           1.1138  -15.6650  -41.4998 O.2       3 UNK        -0.5000 
     57 CA          3.2794  -14.9739  -42.2830 C.3       3 UNK         0.1400 
     58 CB          4.1456  -16.2203  -42.0547 C.3       3 UNK        -0.1800 
     59 N           2.8600  -14.9218  -43.6875 N.am      3 UNK        -0.5000 
     60 C           2.1310  -13.9381  -44.2369 C.2       2 UNK         0.5000 
     61 O           1.6999  -12.9787  -43.5940 O.2       2 UNK        -0.5000 
     62 CA          1.8240  -14.0421  -45.7443 C.3       2 UNK         0.1400 
     63 CB          1.6965  -12.6636  -46.4188 C.3       2 UNK        -0.1800 
     64 N           2.8230  -14.8449  -46.4551 N.am      2 UNK        -0.5000 
     65 C           2.5532  -15.6851  -47.4647 C.2       1 UNK         0.5000 
     66 O           1.4138  -15.8976  -47.8790 O.2       1 UNK        -0.5000 
     67 C          -1.7481  -21.5233  -47.2964 C.2       11 UNK         0.5000 
     68 O          -2.5194  -22.4017  -47.6818 O.2       11 UNK        -0.5000 
     69 N          -1.6718  -21.1172  -46.0198 N.am      12 UNK        -0.5000 
     70 CA         -2.4729  -21.6767  -44.9293 C.3       12 UNK         0.1400 
     71 CB         -2.3970  -20.7621  -43.6971 C.3       12 UNK        -0.1800 
     72 C          -2.0513  -23.1148  -44.5833 C.2       12 UNK         0.5000 
     73 O          -2.9170  -23.9640  -44.3730 O.2       12 UNK        -0.5000 
     74 N          -0.7370  -23.3807  -44.5946 N.am      13 UNK        -0.5000 
     75 CA         -0.1513  -24.7149  -44.4310 C.3       13 UNK         0.1400 
     76 CB          1.3762  -24.5932  -44.3310 C.3       13 UNK        -0.1800 
     77 C          -0.5523  -25.6884  -45.5589 C.2       13 UNK         0.5000 
     78 O          -0.7556  -26.8741  -45.2976 O.2       13 UNK        -0.5000 
     79 N          -0.7121  -25.1573  -46.7785 N.am      14 UNK        -0.5000 
     80 CA         -1.2377  -25.8534  -47.9543 C.3       14 UNK         0.1400 
     81 CB         -0.7232  -25.1443  -49.2196 C.3       14 UNK        -0.1800 
     82 C          -2.7789  -25.9566  -47.9743 C.2       14 UNK         0.5000 
     83 O          -3.3277  -26.4289  -48.9695 O.2       14 UNK        -0.5000 
     84 N          -3.4596  -25.4966  -46.9123 N.am      15 UNK        -0.5000 
     85 CA         -4.9158  -25.4911  -46.7251 C.3       15 UNK         0.1400 
     86 CB         -5.4509  -26.9314  -46.5842 C.3       15 UNK        -0.1800 
     87 C          -5.6638  -24.6708  -47.7979 C.2       15 UNK         0.5000 
     88 O          -6.7693  -25.0378  -48.1994 O.2       15 UNK        -0.5000 
     89 N          -5.0299  -23.5780  -48.2476 N.am      16 UNK        -0.5000 
     90 CA         -5.4717  -22.6455  -49.2861 C.3       16 UNK         0.1400 
     91 CB         -6.7722  -21.9235  -48.8776 C.3       16 UNK        -0.1800 
     92 C          -5.5464  -23.2631  -50.6979 C.2       16 UNK         0.5000 
     93 O          -6.2036  -22.6934  -51.5684 O.2       16 UNK        -0.5000 
     94 N          -4.8435  -24.3818  -50.9384 N.am      17 UNK        -0.5000 
     95 CA         -4.7679  -25.0343  -52.2510 C.3       17 UNK         0.1400 
     96 CB         -4.0374  -26.3781  -52.1202 C.3       17 UNK        -0.1800 
     97 C          -4.0944  -24.1575  -53.3248 C.2       17 UNK         0.5000 
     98 O          -4.4852  -24.2125  -54.4907 O.2       17 UNK        -0.5000 
     99 N          -3.1234  -23.3339  -52.9050 N.am      18 UNK        -0.5000 
    100 CA        -2.4342  -22.3645  -53.7566 C.3       18 UNK         0.1400 
    101 CB        -1.1650  -21.8773  -53.0421 C.3       18 UNK        -0.1800 
    102 C         -3.3244  -21.1735  -54.1592 C.2       18 UNK         0.5000 
    103 O         -3.0928  -20.5758  -55.2106 O.2       18 UNK        -0.5000 
    104 N         -4.3447  -20.8490  -53.3500 N.am      19 UNK        -0.5000 
    105 CA        -5.2784  -19.7478  -53.6084 C.3       19 UNK         0.1400 
    106 CB        -6.1674  -19.5118  -52.3784 C.3       19 UNK        -0.1800 
    107 C         -6.1347  -19.9698  -54.8694 C.2       19 UNK         0.5000 
    108 O         -6.5457  -18.9961  -55.4981 O.2       19 UNK        -0.5000 
    109 N         -6.3389  -21.2373  -55.2544 N.am      20 UNK        -0.5000 
    110 CA        -6.9807  -21.6272  -56.5097 C.3       20 UNK         0.1400 
    111 CB        -7.3025  -23.1285  -56.4626 C.3       20 UNK        -0.1800 
    112 C         -6.1326  -21.2934  -57.7552 C.2       20 UNK         0.5000 
    113 O         -6.7004  -21.1176  -58.8339 O.2       20 UNK        -0.5000 
    114 N         -4.8037  -21.2085  -57.5931 N.am      21 UNK        -0.5000 
    115 CA        -3.8671  -20.8299  -58.6488 C.3       21 UNK         0.1400 
    116 CB        -2.5224  -21.5446  -58.4343 C.3       21 UNK        -0.1800 
    117 C         -3.6813  -19.3048  -58.7040 C.2       21 UNK         0.5000 
    118 O         -3.7664  -18.7284  -59.7895 O.2       21 UNK        -0.5000 
    119 N         -3.4335  -18.6795  -57.5441 N.am      22 UNK        -0.5000 
    120 CA        -3.2322  -17.2231  -57.4297 C.3       22 UNK         0.1400 
    121 C         -4.5321  -16.3729  -57.5259 C.2       22 UNK         0.5000 
    122 N         -5.7148  -16.9073  -57.2546 N.am      22 UNK        -0.7600 
    123 O         -4.4660  -15.1962  -57.8713 O.2       22 UNK        -0.5000 
    124 C124       -2.4074  -16.8436  -56.1732 C.3       23 UNK        -0.0398 
    125 S125       -0.6256  -17.1698  -56.4054 S.3       23 UNK        -0.2404 
    126 C126       -0.2741  -18.4306  -55.1441 C.3       23 UNK        -0.0205 
    127 H127        6.3840  -16.9286  -44.4782 H         1 UNK         0.0600 
    128 H128        7.1017  -16.2053  -45.9198 H         1 UNK         0.0600 
    129 H129        7.1265  -17.9588  -45.7035 H         1 UNK         0.0600 
    130 H130        5.6698  -15.7235  -47.5820 H         1 UNK         0.3000 
    131 H131        3.4417  -17.4753  -48.1730 H         1 UNK         0.0600 
    132 H132        3.7770  -14.8760  -49.6962 H         1 UNK         0.0800 
    133 H133        5.0761  -16.0211  -49.8028 H         1 UNK         0.0800 
    134 H134        2.2000  -15.1447  -52.0844 H         1 UNK         0.0800 
    135 H135        1.4736  -15.2301  -50.4963 H         1 UNK         0.0800 
    136 H136        1.5640  -16.9072  -53.8314 H         1 UNK         0.1150 
    137 H137       -2.2744  -18.7386  -53.3073 H         1 UNK         0.1150 
    138 H138       -0.4914  -16.5535  -50.0861 H         1 UNK         0.1150 
    139 H139       -2.8088  -17.2824  -49.9162 H         1 UNK         0.0800 
    140 H140       -3.6297  -17.9048  -51.3232 H         1 UNK         0.0800 
    141 H141       -1.6237  -18.8706  -48.0079 H         1 UNK         0.0800 
    142 H142       -0.4756  -18.9899  -49.3127 H         1 UNK         0.0800 
    143 H143       -0.6800  -21.5535  -49.1511 H         1 UNK         0.0600 
    144 H144        0.9060  -19.8043  -47.5553 H         1 UNK         0.3000 
    145 H145        2.9914  -22.2670  -46.0750 H         1 UNK         0.0600 
    146 H146        4.7643  -20.9578  -47.2147 H         1 UNK         0.0600 
    147 H147        3.9415  -21.9884  -48.3761 H         1 UNK         0.0600 
    148 H148        3.5831  -20.2654  -48.3244 H         1 UNK         0.0600 
    149 H149        3.1994  -19.4680  -45.9773 H         1 UNK         0.3000 
    150 H150        2.6265  -18.3499  -44.0466 H         1 UNK         0.0600 
    151 H151       -0.2601  -18.0618  -45.0456 H         1 UNK         0.0600 
    152 H152        1.1334  -17.9043  -46.1033 H         1 UNK         0.0600 
    153 H153        0.9331  -16.7895  -44.7737 H         1 UNK         0.0600 
    154 H154        0.0916  -18.3016  -42.7489 H         1 UNK         0.3000 
    155 H155        0.3481  -20.0222  -40.1363 H         1 UNK         0.0600 
    156 H156        2.2137  -17.6711  -39.5186 H         1 UNK         0.0600 
    157 H157        2.4486  -19.3499  -39.0507 H         1 UNK         0.0600 
    158 H158        1.1360  -18.4252  -38.3421 H         1 UNK         0.0600 
    159 H159       -0.0084  -17.1232  -40.8291 H         1 UNK         0.3000 
    160 H160       -3.5092  -17.5013  -40.9726 H         1 UNK         0.0600 
    161 H161       -2.0348  -16.1932  -38.6337 H         1 UNK         0.0600 
    162 H162       -3.4424  -17.2389  -38.5446 H         1 UNK         0.0600 
    163 H163       -3.5866  -15.6440  -39.2694 H         1 UNK         0.0600 
    164 H164       -1.7348  -15.2138  -40.9861 H         1 UNK         0.3000 
    165 H165       -0.5305  -15.3682  -43.9813 H         1 UNK         0.0600 
    166 H166       -1.9057  -13.8396  -45.3965 H         1 UNK         0.0600 
    167 H167       -3.3509  -14.3218  -44.5063 H         1 UNK         0.0600 
    168 H168       -2.4713  -15.4993  -45.4677 H         1 UNK         0.0600 
    169 H169       -0.1063  -13.6631  -42.7212 H         1 UNK         0.3000 
    170 H170       -0.7152  -11.1481  -42.1553 H         1 UNK         0.0600 
    171 H171       -2.8322  -10.4783  -41.0860 H         1 UNK         0.0600 
    172 H172       -2.5853  -11.6158  -39.7698 H         1 UNK         0.0600 
    173 H173       -1.5065  -10.2346  -39.9606 H         1 UNK         0.0600 
    174 H174        0.9008  -12.0765  -40.9492 H         1 UNK         0.3000 
    175 H175        1.6713  -13.0810  -38.5554 H         1 UNK         0.0600 
    176 H176        0.5822  -15.9305  -38.8162 H         1 UNK         0.0600 
    177 H177        2.0483  -15.4966  -37.9371 H         1 UNK         0.0600 
    178 H178        0.4869  -14.8932  -37.4041 H         1 UNK         0.0600 
    179 H179        3.0854  -13.5880  -40.1732 H         1 UNK         0.3000 
    180 H180        3.8998  -14.0938  -42.1015 H         1 UNK         0.0600 
    181 H181        3.6000  -17.1369  -42.2733 H         1 UNK         0.0600 
    182 H182        4.4800  -16.2806  -41.0182 H         1 UNK         0.0600 
    183 H183        5.0370  -16.2008  -42.6800 H         1 UNK         0.0600 
    184 H184        3.1328  -15.7015  -44.2658 H         1 UNK         0.3000 
    185 H185        0.8515  -14.5329  -45.8103 H         1 UNK         0.0600 
    186 H186        1.4346  -12.7632  -47.4724 H         1 UNK         0.0600 
    187 H187        0.9149  -12.0641  -45.9501 H         1 UNK         0.0600 
    188 H188        2.6282  -12.1005  -46.3565 H         1 UNK         0.0600 
    189 H189        3.7858  -14.7166  -46.1761 H         1 UNK         0.3000 
    190 H190       -0.9612  -20.4515  -45.7565 H         1 UNK         0.3000 
    191 H191       -3.5142  -21.7082  -45.2578 H         1 UNK         0.0600 
    192 H192       -3.0171  -21.1474  -42.8868 H         1 UNK         0.0600 
    193 H193       -2.7580  -19.7613  -43.9311 H         1 UNK         0.0600 
    194 H194       -1.3816  -20.6706  -43.3122 H         1 UNK         0.0600 
    195 H195       -0.0898  -22.6054  -44.7143 H         1 UNK         0.3000 
    196 H196       -0.5228  -25.1257  -43.4900 H         1 UNK         0.0600 
    197 H197        1.8106  -24.2185  -45.2573 H         1 UNK         0.0600 
    198 H198        1.6680  -23.9180  -43.5263 H         1 UNK         0.0600 
    199 H199        1.8310  -25.5629  -44.1255 H         1 UNK         0.0600 
    200 H200       -0.4500  -24.1878  -46.9178 H         1 UNK         0.3000 
    201 H201       -0.8492  -26.8736  -47.9586 H         1 UNK         0.0600 
    202 H202       -1.0990  -24.1233  -49.2895 H         1 UNK         0.0600 
    203 H203       -1.0325  -25.6710  -50.1230 H         1 UNK         0.0600 
    204 H204        0.3659  -25.1008  -49.2310 H         1 UNK         0.0600 
    205 H205       -2.9331  -25.0890  -46.1488 H         1 UNK         0.3000 
    206 H206       -5.0979  -24.9808  -45.7785 H         1 UNK         0.0600 
    207 H207       -4.9099  -27.4784  -45.8121 H         1 UNK         0.0600 
    208 H208       -6.5044  -26.9318  -46.3023 H         1 UNK         0.0600 
    209 H209       -5.3621  -27.4902  -47.5164 H         1 UNK         0.0600 
    210 H210       -4.1072  -23.3682  -47.8713 H         1 UNK         0.3000 
    211 H211       -4.6916  -21.8861  -49.3448 H         1 UNK         0.0600 
    212 H212       -7.0001  -21.1092  -49.5664 H         1 UNK         0.0600 
    213 H213       -6.6849  -21.4878  -47.8823 H         1 UNK         0.0600 
    214 H214       -7.6288  -22.5977  -48.8770 H         1 UNK         0.0600 
    215 H215       -4.3502  -24.8309  -50.1761 H         1 UNK         0.3000 
    216 H216       -5.7887  -25.2340  -52.5834 H         1 UNK         0.0600 
    217 H217       -3.0141  -26.2475  -51.7666 H         1 UNK         0.0600 
    218 H218       -3.9905  -26.8933  -53.0805 H         1 UNK         0.0600 
    219 H219       -4.5517  -27.0394  -51.4225 H         1 UNK         0.0600 
    220 H220       -2.8643  -23.3532  -51.9300 H         1 UNK         0.3000 
    221 H221       -2.1320  -22.8698  -54.6764 H         1 UNK         0.0600 
    222 H222       -0.4956  -22.7078  -52.8171 H         1 UNK         0.0600 
    223 H223       -1.3963  -21.3714  -52.1053 H         1 UNK         0.0600 
    224 H224       -0.6097  -21.1750  -53.6644 H         1 UNK         0.0600 
    225 H225       -4.5283  -21.4159  -52.5341 H         1 UNK         0.3000 
    226 H226       -4.6853  -18.8455  -53.7707 H         1 UNK         0.0600 
    227 H227       -6.8984  -20.3094  -52.2481 H         1 UNK         0.0600 
    228 H228       -5.5789  -19.4419  -51.4637 H         1 UNK         0.0600 
    229 H229       -6.7244  -18.5798  -52.4801 H         1 UNK         0.0600 
    230 H230       -5.9617  -21.9820  -54.6846 H         1 UNK         0.3000 
    231 H231       -7.9217  -21.0794  -56.5942 H         1 UNK         0.0600 
    232 H232       -6.3967  -23.7316  -56.3926 H         1 UNK         0.0600 
    233 H233       -7.8355  -23.4414  -57.3613 H         1 UNK         0.0600 
    234 H234       -7.9350  -23.3713  -55.6085 H         1 UNK         0.0600 
    235 H235       -4.4136  -21.3140  -56.6651 H         1 UNK         0.3000 
    236 H236       -4.2590  -21.1563  -59.6146 H         1 UNK         0.0600 
    237 H237       -2.6516  -22.6267  -58.4103 H         1 UNK         0.0600 
    238 H238       -1.8307  -21.3178  -59.2463 H         1 UNK         0.0600 
    239 H239       -2.0394  -21.2451  -57.5044 H         1 UNK         0.0600 
    240 H240       -3.3538  -19.2279  -56.6946 H         1 UNK         0.3000 
    241 H241       -2.6448  -16.9137  -58.2971 H         1 UNK         0.0600 
    242 H242       -6.5372  -16.3316  -57.3372 H         1 UNK         0.3800 
    243 H243       -5.8089  -17.8394  -56.8655 H         1 UNK         0.3800 
    244 H244       -2.7899  -17.3643  -55.2953 H         1 UNK         0.0800 
    245 H245       -2.4942  -15.7786  -55.9497 H         1 UNK         0.0800 
    246 H246        0.7279  -18.8258  -55.3166 H         1 UNK         0.0800 
    247 H247       -0.9515  -19.2717  -55.2758 H         1 UNK         0.0800 
@<TRIPOS>BOND
     1    1    2 1    
     2    1  127 1    
     3    1  128 1    
     4    1  129 1    
     5    2    3 2    
     6    2    4 am   BACKBONE|DICT|INTERRES
     7    4    5 1    
     8    4  130 1    
     9    5    6 1    
    10    5   65 1    
    11    5  131 1    
    12    6    7 1    
    13    6  132 1    
    14    6  133 1    
    15    7    8 1    
    16    8    9 1    
    17    8  134 1    
    18    8  135 1    
    19    9   10 ar   
    20    9   14 ar   
    21   10   11 ar   
    22   10  136 1    
    23   11   12 ar   
    24   11  126 1    
    25   12   13 ar   
    26   12  137 1    
    27   13   14 ar   
    28   13   15 1    
    29   14  138 1    
    30   15   16 1    
    31   15  139 1    
    32   15  140 1    
    33   16   17 1    
    34   17   18 1    
    35   17  141 1    
    36   17  142 1    
    37   18   19 1    
    38   18   67 1    
    39   18  143 1    
    40   19   20 am   BACKBONE|DICT|INTERRES
    41   19  144 1    
    42   20   21 2    
    43   20   22 1    
    44   22   23 1    
    45   22   24 1    
    46   22  145 1    
    47   23  146 1    
    48   23  147 1    
    49   23  148 1    
    50   24   25 am   BACKBONE|DICT|INTERRES
    51   24  149 1    
    52   25   26 2    
    53   25   27 1    
    54   27   28 1    
    55   27   29 1    
    56   27  150 1    
    57   28  151 1    
    58   28  152 1    
    59   28  153 1    
    60   29   30 am   BACKBONE|DICT|INTERRES
    61   29  154 1    
    62   30   31 2    
    63   30   32 1    
    64   32   33 1    
    65   32   34 1    
    66   32  155 1    
    67   33  156 1    
    68   33  157 1    
    69   33  158 1    
    70   34   35 am   BACKBONE|DICT|INTERRES
    71   34  159 1    
    72   35   36 2    
    73   35   37 1    
    74   37   38 1    
    75   37   39 1    
    76   37  160 1    
    77   38  161 1    
    78   38  162 1    
    79   38  163 1    
    80   39   40 am   BACKBONE|DICT|INTERRES
    81   39  164 1    
    82   40   41 2    
    83   40   42 1    
    84   42   43 1    
    85   42   44 1    
    86   42  165 1    
    87   43  166 1    
    88   43  167 1    
    89   43  168 1    
    90   44   45 am   BACKBONE|DICT|INTERRES
    91   44  169 1    
    92   45   46 2    
    93   45   47 1    
    94   47   48 1    
    95   47   49 1    
    96   47  170 1    
    97   48  171 1    
    98   48  172 1    
    99   48  173 1    
   100   49   50 am   BACKBONE|DICT|INTERRES
   101   49  174 1    
   102   50   51 2    
   103   50   52 1    
   104   52   53 1    
   105   52   54 1    
   106   52  175 1    
   107   53  176 1    
   108   53  177 1    
   109   53  178 1    
   110   54   55 am   BACKBONE|DICT|INTERRES
   111   54  179 1    
   112   55   56 2    
   113   55   57 1    
   114   57   58 1    
   115   57   59 1    
   116   57  180 1    
   117   58  181 1    
   118   58  182 1    
   119   58  183 1    
   120   59   60 am   BACKBONE|DICT|INTERRES
   121   59  184 1    
   122   60   61 2    
   123   60   62 1    
   124   62   63 1    
   125   62   64 1    
   126   62  185 1    
   127   63  186 1    
   128   63  187 1    
   129   63  188 1    
   130   64   65 am   BACKBONE|DICT|INTERRES
   131   64  189 1    
   132   65   66 2    
   133   67   68 2    
   134   67   69 am   BACKBONE|DICT|INTERRES
   135   69   70 1    
   136   69  190 1    
   137   70   71 1    
   138   70   72 1    
   139   70  191 1    
   140   71  192 1    
   141   71  193 1    
   142   71  194 1    
   143   72   73 2    
   144   72   74 am   BACKBONE|DICT|INTERRES
   145   74   75 1    
   146   74  195 1    
   147   75   76 1    
   148   75   77 1    
   149   75  196 1    
   150   76  197 1    
   151   76  198 1    
   152   76  199 1    
   153   77   78 2    
   154   77   79 am   BACKBONE|DICT|INTERRES
   155   79   80 1    
   156   79  200 1    
   157   80   81 1    
   158   80   82 1    
   159   80  201 1    
   160   81  202 1    
   161   81  203 1    
   162   81  204 1    
   163   82   83 2    
   164   82   84 am   BACKBONE|DICT|INTERRES
   165   84   85 1    
   166   84  205 1    
   167   85   86 1    
   168   85   87 1    
   169   85  206 1    
   170   86  207 1    
   171   86  208 1    
   172   86  209 1    
   173   87   88 2    
   174   87   89 am   BACKBONE|DICT|INTERRES
   175   89   90 1    
   176   89  210 1    
   177   90   91 1    
   178   90   92 1    
   179   90  211 1    
   180   91  212 1    
   181   91  213 1    
   182   91  214 1    
   183   92   93 2    
   184   92   94 am   BACKBONE|DICT|INTERRES
   185   94   95 1    
   186   94  215 1    
   187   95   96 1    
   188   95   97 1    
   189   95  216 1    
   190   96  217 1    
   191   96  218 1    
   192   96  219 1    
   193   97   98 2    
   194   97   99 am   BACKBONE|DICT|INTERRES
   195   99  100 1    
   196   99  220 1    
   197  100  101 1    
   198  100  102 1    
   199  100  221 1    
   200  101  222 1    
   201  101  223 1    
   202  101  224 1    
   203  102  103 2    
   204  102  104 am   BACKBONE|DICT|INTERRES
   205  104  105 1    
   206  104  225 1    
   207  105  106 1    
   208  105  107 1    
   209  105  226 1    
   210  106  227 1    
   211  106  228 1    
   212  106  229 1    
   213  107  108 2    
   214  107  109 am   BACKBONE|DICT|INTERRES
   215  109  110 1    
   216  109  230 1    
   217  110  111 1    
   218  110  112 1    
   219  110  231 1    
   220  111  232 1    
   221  111  233 1    
   222  111  234 1    
   223  112  113 2    
   224  112  114 am   BACKBONE|DICT|INTERRES
   225  114  115 1    
   226  114  235 1    
   227  115  116 1    
   228  115  117 1    
   229  115  236 1    
   230  116  237 1    
   231  116  238 1    
   232  116  239 1    
   233  117  118 2    
   234  117  119 am   BACKBONE|DICT|INTERRES
   235  119  120 1    
   236  119  240 1    
   237  120  121 1    
   238  120  124 1    
   239  120  241 1    
   240  121  122 am   BACKBONE|DICT|INTERRES
   241  121  123 2    
   242  122  242 1    
   243  122  243 1    
   244  124  125 1    
   245  124  244 1    
   246  124  245 1    
   247  125  126 1    
   248  126  246 1    
   249  126  247 1    
@<TRIPOS>SUBSTRUCTURE
     1 UNK         1 GROUP             0       ****    0 ROOT    
