@<TRIPOS>MOLECULE
3R540
247   249    1
SMALL
USER_CHARGES


@<TRIPOS>ATOM
      1 CA         -1.0862  -12.3747  -45.7744 C.3       0 UNK        -0.1800 
      2 C           0.3657  -12.4960  -46.2132 C.2       0 UNK         0.5000 
      3 O           1.2029  -12.9311  -45.4253 O.2       0 UNK        -0.5000 
      4 N           0.6702  -12.1002  -47.4573 N.am      1 UNK        -0.5000 
      5 CA          1.9750  -12.1614  -48.1447 C.3       1 UNK         0.1400 
      6 C6          2.5638  -13.5936  -48.2642 C.3       23 UNK        -0.0398 
      7 S7          1.4406  -14.7478  -49.1211 S.3       23 UNK        -0.2404 
      8 C8          2.3610  -16.3156  -48.9349 C.3       23 UNK        -0.0205 
      9 C9          1.6554  -17.5771  -49.4436 C.ar      23 UNK        -0.0193 
     10 C10         0.3760  -17.5652  -50.0200 C.ar      23 UNK        -0.1150 
     11 C11        -0.2179  -18.7489  -50.4657 C.ar      23 UNK        -0.0193 
     12 C12         0.4633  -19.9583  -50.3176 C.ar      23 UNK        -0.1150 
     13 C13         1.7341  -19.9959  -49.7408 C.ar      23 UNK        -0.0193 
     14 C14         2.3276  -18.7992  -49.3221 C.ar      23 UNK        -0.1150 
     15 C15         2.4493  -21.3384  -49.6047 C.3       23 UNK        -0.0205 
     16 S16         3.2768  -21.6249  -47.9994 S.3       23 UNK        -0.2404 
     17 C17         2.0354  -21.1146  -46.7628 C.3       23 UNK        -0.0398 
     18 CA          1.0555  -22.2310  -46.3270 C.3       11 UNK         0.1400 
     19 N           0.5207  -21.9741  -44.9870 N.am      11 UNK        -0.5000 
     20 C          -0.2859  -22.7883  -44.2927 C.2       10 UNK         0.5000 
     21 O          -0.6259  -23.9077  -44.6757 O.2       10 UNK        -0.5000 
     22 CA         -0.8514  -22.2322  -42.9713 C.3       10 UNK         0.1400 
     23 CB          0.1658  -22.3750  -41.8295 C.3       10 UNK        -0.1800 
     24 N          -1.2718  -20.8335  -43.0883 N.am      10 UNK        -0.5000 
     25 C          -2.2784  -20.4147  -43.8696 C.2       9 UNK         0.5000 
     26 O          -2.9940  -21.1733  -44.5229 O.2       9 UNK        -0.5000 
     27 CA         -2.4931  -18.8944  -43.9825 C.3       9 UNK         0.1400 
     28 CB         -3.2827  -18.3606  -42.7784 C.3       9 UNK        -0.1800 
     29 N          -1.2371  -18.1562  -44.1221 N.am      9 UNK        -0.5000 
     30 C          -0.3950  -18.2849  -45.1574 C.2       8 UNK         0.5000 
     31 O          -0.6195  -19.0010  -46.1305 O.2       8 UNK        -0.5000 
     32 CA          0.9475  -17.5384  -45.0710 C.3       8 UNK         0.1400 
     33 CB          0.7861  -16.0802  -45.5078 C.3       8 UNK        -0.1800 
     34 N           1.5416  -17.5927  -43.7348 N.am      8 UNK        -0.5000 
     35 C           1.9269  -18.7237  -43.1266 C.2       7 UNK         0.5000 
     36 O           1.8714  -19.8342  -43.6511 O.2       7 UNK        -0.5000 
     37 CA          2.3946  -18.6044  -41.6684 C.3       7 UNK         0.1400 
     38 CB          3.8620  -18.1580  -41.5942 C.3       7 UNK        -0.1800 
     39 N           1.5476  -17.6834  -40.9117 N.am      7 UNK        -0.5000 
     40 C           0.2825  -17.9512  -40.5567 C.2       6 UNK         0.5000 
     41 O          -0.2796  -19.0219  -40.7904 O.2       6 UNK        -0.5000 
     42 CA         -0.4949  -16.8186  -39.8597 C.3       6 UNK         0.1400 
     43 CB         -0.2093  -16.8145  -38.3508 C.3       6 UNK        -0.1800 
     44 N          -0.1879  -15.4990  -40.4157 N.am      6 UNK        -0.5000 
     45 C          -0.5196  -15.1063  -41.6539 C.2       5 UNK         0.5000 
     46 O          -1.1596  -15.8040  -42.4389 O.2       5 UNK        -0.5000 
     47 CA         -0.0155  -13.7243  -42.1092 C.3       5 UNK         0.1400 
     48 CB         -1.0403  -12.6309  -41.7764 C.3       5 UNK        -0.1800 
     49 N           1.2866  -13.3550  -41.5493 N.am      5 UNK        -0.5000 
     50 C           2.4301  -14.0212  -41.7525 C.2       4 UNK         0.5000 
     51 O           2.4952  -15.0698  -42.3976 O.2       4 UNK        -0.5000 
     52 CA          3.6996  -13.4119  -41.1194 C.3       4 UNK         0.1400 
     53 CB          4.9670  -14.2288  -41.4277 C.3       4 UNK        -0.1800 
     54 N           3.9198  -12.0307  -41.5509 N.am      4 UNK        -0.5000 
     55 C           3.3067  -10.9444  -41.0605 C.2       3 UNK         0.5000 
     56 O           2.4550  -10.9898  -40.1717 O.2       3 UNK        -0.5000 
     57 CA          3.6946   -9.5854  -41.6792 C.3       3 UNK         0.1400 
     58 CB          4.8020   -8.9153  -40.8519 C.3       3 UNK        -0.1800 
     59 N           4.1378   -9.6982  -43.0724 N.am      3 UNK        -0.5000 
     60 C           3.3263   -9.9904  -44.0973 C.2       2 UNK         0.5000 
     61 O           2.1046  -10.1090  -43.9741 O.2       2 UNK        -0.5000 
     62 CA          3.9787  -10.1976  -45.4779 C.3       2 UNK         0.1400 
     63 CB          5.4024  -10.7904  -45.4047 C.3       2 UNK        -0.1800 
     64 N           3.1149  -11.0784  -46.2523 N.am      2 UNK        -0.5000 
     65 C           3.0300  -11.1804  -47.5796 C.2       1 UNK         0.5000 
     66 O           3.7315  -10.5305  -48.3563 O.2       1 UNK        -0.5000 
     67 C          -0.0768  -22.4218  -47.3566 C.2       11 UNK         0.5000 
     68 O          -0.0762  -23.4133  -48.0854 O.2       11 UNK        -0.5000 
     69 N          -1.0460  -21.4952  -47.3634 N.am      12 UNK        -0.5000 
     70 CA         -2.2336  -21.5334  -48.2129 C.3       12 UNK         0.1400 
     71 CB         -3.0353  -20.2340  -48.0510 C.3       12 UNK        -0.1800 
     72 C          -3.1178  -22.7604  -47.9437 C.2       12 UNK         0.5000 
     73 O          -3.5668  -23.3906  -48.8989 O.2       12 UNK        -0.5000 
     74 N          -3.3183  -23.1056  -46.6644 N.am      13 UNK        -0.5000 
     75 CA         -4.0476  -24.3001  -46.2370 C.3       13 UNK         0.1400 
     76 CB         -4.2290  -24.2850  -44.7119 C.3       13 UNK        -0.1800 
     77 C          -3.3714  -25.6028  -46.7018 C.2       13 UNK         0.5000 
     78 O          -4.0521  -26.4770  -47.2392 O.2       13 UNK        -0.5000 
     79 N          -2.0430  -25.6883  -46.5387 N.am      14 UNK        -0.5000 
     80 CA         -1.2171  -26.8079  -46.9997 C.3       14 UNK         0.1400 
     81 CB          0.2115  -26.6460  -46.4587 C.3       14 UNK        -0.1800 
     82 C          -1.2068  -26.9592  -48.5337 C.2       14 UNK         0.5000 
     83 O          -1.2254  -28.0833  -49.0359 O.2       14 UNK        -0.5000 
     84 N          -1.2131  -25.8259  -49.2468 N.am      15 UNK        -0.5000 
     85 CA         -1.2914  -25.7436  -50.7059 C.3       15 UNK         0.1400 
     86 CB         -0.7548  -24.3705  -51.1473 C.3       15 UNK        -0.1800 
     87 C          -2.7109  -25.9636  -51.2696 C.2       15 UNK         0.5000 
     88 O          -2.8650  -25.9692  -52.4917 O.2       15 UNK        -0.5000 
     89 N          -3.7272  -26.0780  -50.3980 N.am      16 UNK        -0.5000 
     90 CA         -5.1627  -26.1428  -50.7118 C.3       16 UNK         0.1400 
     91 CB         -5.5122  -27.4853  -51.3852 C.3       16 UNK        -0.1800 
     92 C          -5.6370  -24.9189  -51.5274 C.2       16 UNK         0.5000 
     93 O          -6.4038  -25.0550  -52.4841 O.2       16 UNK        -0.5000 
     94 N          -5.0880  -23.7475  -51.1725 N.am      17 UNK        -0.5000 
     95 CA         -5.2045  -22.4462  -51.8348 C.3       17 UNK         0.1400 
     96 CB         -6.6248  -21.8766  -51.6494 C.3       17 UNK        -0.1800 
     97 C          -4.7624  -22.4537  -53.3140 C.2       17 UNK         0.5000 
     98 O          -5.1824  -21.5770  -54.0685 O.2       17 UNK        -0.5000 
     99 N          -3.9558  -23.4492  -53.7169 N.am      18 UNK        -0.5000 
    100 CA        -3.5571  -23.7600  -55.0938 C.3       18 UNK         0.1400 
    101 CB        -2.5978  -22.6822  -55.6395 C.3       18 UNK        -0.1800 
    102 C         -4.7736  -24.0104  -56.0131 C.2       18 UNK         0.5000 
    103 O         -4.7822  -23.5598  -57.1584 O.2       18 UNK        -0.5000 
    104 N         -5.8038  -24.6816  -55.4712 N.am      19 UNK        -0.5000 
    105 CA        -7.1288  -24.8865  -56.0710 C.3       19 UNK         0.1400 
    106 CB        -7.0461  -25.7728  -57.3317 C.3       19 UNK        -0.1800 
    107 C         -7.8633  -23.5477  -56.3051 C.2       19 UNK         0.5000 
    108 O         -8.4425  -23.3252  -57.3689 O.2       19 UNK        -0.5000 
    109 N         -7.7848  -22.6759  -55.2899 N.am      20 UNK        -0.5000 
    110 CA        -8.3172  -21.3115  -55.1899 C.3       20 UNK         0.1400 
    111 CB        -9.8349  -21.2683  -55.4601 C.3       20 UNK        -0.1800 
    112 C         -7.5521  -20.2483  -56.0064 C.2       20 UNK         0.5000 
    113 O         -7.8834  -19.0664  -55.8943 O.2       20 UNK        -0.5000 
    114 N         -6.5211  -20.6423  -56.7690 N.am      21 UNK        -0.5000 
    115 CA        -5.6853  -19.7361  -57.5644 C.3       21 UNK         0.1400 
    116 CB        -4.8042  -20.5543  -58.5191 C.3       21 UNK        -0.1800 
    117 C         -4.8203  -18.7822  -56.7148 C.2       21 UNK         0.5000 
    118 O         -4.4604  -17.7073  -57.1965 O.2       21 UNK        -0.5000 
    119 N         -4.5192  -19.1762  -55.4709 N.am      22 UNK        -0.5000 
    120 CA        -3.8224  -18.3581  -54.4663 C.3       22 UNK         0.1400 
    121 C         -4.7460  -17.3349  -53.7357 C.2       22 UNK         0.5000 
    122 N         -6.0515  -17.3093  -53.9847 N.am      22 UNK        -0.7600 
    123 O         -4.2712  -16.5377  -52.9322 O.2       22 UNK        -0.5000 
    124 C124       -3.0468  -19.2623  -53.4699 C.3       23 UNK        -0.0398 
    125 S125       -1.4531  -18.5655  -52.9220 S.3       23 UNK        -0.2404 
    126 C126       -1.5922  -18.7311  -51.1159 C.3       23 UNK        -0.0205 
    127 H127       -1.7219  -11.9927  -46.5734 H         1 UNK         0.0600 
    128 H128       -1.1631  -11.6986  -44.9228 H         1 UNK         0.0600 
    129 H129       -1.4674  -13.3500  -45.4716 H         1 UNK         0.0600 
    130 H130       -0.0750  -11.7271  -48.0284 H         1 UNK         0.3000 
    131 H131        1.7703  -11.8173  -49.1600 H         1 UNK         0.0600 
    132 H132        3.5032  -13.5723  -48.8198 H         1 UNK         0.0800 
    133 H133        2.8009  -13.9970  -47.2786 H         1 UNK         0.0800 
    134 H134        3.3146  -16.2164  -49.4553 H         1 UNK         0.0800 
    135 H135        2.5962  -16.4566  -47.8793 H         1 UNK         0.0800 
    136 H136       -0.1690  -16.6410  -50.1392 H         1 UNK         0.1150 
    137 H137        0.0036  -20.8736  -50.6632 H         1 UNK         0.1150 
    138 H138        3.3164  -18.8216  -48.8855 H         1 UNK         0.1150 
    139 H139        1.7512  -22.1593  -49.7748 H         1 UNK         0.0800 
    140 H140        3.1965  -21.4115  -50.3956 H         1 UNK         0.0800 
    141 H141        1.5075  -20.2180  -47.0847 H         1 UNK         0.0800 
    142 H142        2.6238  -20.7990  -45.9018 H         1 UNK         0.0800 
    143 H143        1.6076  -23.1710  -46.2643 H         1 UNK         0.0600 
    144 H144        0.7930  -21.0934  -44.5583 H         1 UNK         0.3000 
    145 H145       -1.7318  -22.8241  -42.7132 H         1 UNK         0.0600 
    146 H146       -0.2550  -22.0349  -40.8831 H         1 UNK         0.0600 
    147 H147        0.4612  -23.4168  -41.6996 H         1 UNK         0.0600 
    148 H148        1.0714  -21.7986  -42.0175 H         1 UNK         0.0600 
    149 H149       -0.7505  -20.1503  -42.5507 H         1 UNK         0.3000 
    150 H150       -3.0853  -18.7109  -44.8812 H         1 UNK         0.0600 
    151 H151       -3.5111  -17.3012  -42.8961 H         1 UNK         0.0600 
    152 H152       -4.2314  -18.8875  -42.6693 H         1 UNK         0.0600 
    153 H153       -2.7305  -18.4817  -41.8466 H         1 UNK         0.0600 
    154 H154       -1.0180  -17.4859  -43.3909 H         1 UNK         0.3000 
    155 H155        1.6404  -18.0217  -45.7628 H         1 UNK         0.0600 
    156 H156        0.1205  -15.5308  -44.8432 H         1 UNK         0.0600 
    157 H157        0.3684  -16.0163  -46.5131 H         1 UNK         0.0600 
    158 H158        1.7477  -15.5674  -45.5189 H         1 UNK         0.0600 
    159 H159        1.6619  -16.7111  -43.2458 H         1 UNK         0.3000 
    160 H160        2.3200  -19.5922  -41.2083 H         1 UNK         0.0600 
    161 H161        4.0247  -17.2106  -42.1071 H         1 UNK         0.0600 
    162 H162        4.5130  -18.8957  -42.0647 H         1 UNK         0.0600 
    163 H163        4.1915  -18.0449  -40.5613 H         1 UNK         0.0600 
    164 H164        1.9172  -16.7589  -40.7451 H         1 UNK         0.3000 
    165 H165       -1.5605  -17.0091  -40.0045 H         1 UNK         0.0600 
    166 H166       -0.8130  -16.0659  -37.8374 H         1 UNK         0.0600 
    167 H167       -0.4468  -17.7822  -37.9067 H         1 UNK         0.0600 
    168 H168        0.8396  -16.6042  -38.1382 H         1 UNK         0.0600 
    169 H169        0.3367  -14.8636  -39.8328 H         1 UNK         0.3000 
    170 H170        0.0946  -13.7639  -43.1930 H         1 UNK         0.0600 
    171 H171       -2.0151  -12.8659  -42.2058 H         1 UNK         0.0600 
    172 H172       -1.1720  -12.5161  -40.6999 H         1 UNK         0.0600 
    173 H173       -0.7312  -11.6674  -42.1827 H         1 UNK         0.0600 
    174 H174        1.3329  -12.4945  -41.0147 H         1 UNK         0.3000 
    175 H175        3.5561  -13.4231  -40.0370 H         1 UNK         0.0600 
    176 H176        5.1503  -14.3012  -42.5006 H         1 UNK         0.0600 
    177 H177        5.8474  -13.7812  -40.9662 H         1 UNK         0.0600 
    178 H178        4.8819  -15.2428  -41.0366 H         1 UNK         0.0600 
    179 H179        4.5757  -11.9009  -42.3062 H         1 UNK         0.3000 
    180 H180        2.8110   -8.9441  -41.6482 H         1 UNK         0.0600 
    181 H181        5.7203   -9.5038  -40.8549 H         1 UNK         0.0600 
    182 H182        4.4934   -8.7938  -39.8126 H         1 UNK         0.0600 
    183 H183        5.0369   -7.9229  -41.2374 H         1 UNK         0.0600 
    184 H184        5.1278   -9.5971  -43.2440 H         1 UNK         0.3000 
    185 H185        4.0194   -9.2222  -45.9664 H         1 UNK         0.0600 
    186 H186        6.0959  -10.1091  -44.9112 H         1 UNK         0.0600 
    187 H187        5.4154  -11.7362  -44.8614 H         1 UNK         0.0600 
    188 H188        5.8040  -10.9772  -46.4007 H         1 UNK         0.0600 
    189 H189        2.4570  -11.6272  -45.6989 H         1 UNK         0.3000 
    190 H190       -0.9483  -20.6773  -46.7644 H         1 UNK         0.3000 
    191 H191       -1.8937  -21.5950  -49.2477 H         1 UNK         0.0600 
    192 H192       -2.4238  -19.3618  -48.2821 H         1 UNK         0.0600 
    193 H193       -3.8948  -20.2187  -48.7223 H         1 UNK         0.0600 
    194 H194       -3.4092  -20.1154  -47.0340 H         1 UNK         0.0600 
    195 H195       -2.9608  -22.5006  -45.9301 H         1 UNK         0.3000 
    196 H196       -5.0387  -24.2616  -46.6938 H         1 UNK         0.0600 
    197 H197       -4.7905  -25.1579  -44.3768 H         1 UNK         0.0600 
    198 H198       -4.7796  -23.4009  -44.3902 H         1 UNK         0.0600 
    199 H199       -3.2721  -24.2899  -44.1903 H         1 UNK         0.0600 
    200 H200       -1.5584  -24.9343  -46.0592 H         1 UNK         0.3000 
    201 H201       -1.6366  -27.7248  -46.5806 H         1 UNK         0.0600 
    202 H202        0.2190  -26.6193  -45.3689 H         1 UNK         0.0600 
    203 H203        0.6767  -25.7274  -46.8174 H         1 UNK         0.0600 
    204 H204        0.8443  -27.4785  -46.7687 H         1 UNK         0.0600 
    205 H205       -1.1200  -24.9436  -48.7513 H         1 UNK         0.3000 
    206 H206       -0.6485  -26.5149  -51.1345 H         1 UNK         0.0600 
    207 H207        0.2671  -24.2164  -50.8002 H         1 UNK         0.0600 
    208 H208       -0.7434  -24.2796  -52.2342 H         1 UNK         0.0600 
    209 H209       -1.3664  -23.5568  -50.7564 H         1 UNK         0.0600 
    210 H210       -3.5043  -26.0302  -49.4117 H         1 UNK         0.3000 
    211 H211       -5.6896  -26.0995  -49.7576 H         1 UNK         0.0600 
    212 H212       -5.0556  -27.5765  -52.3712 H         1 UNK         0.0600 
    213 H213       -6.5902  -27.5888  -51.5134 H         1 UNK         0.0600 
    214 H214       -5.1754  -28.3273  -50.7805 H         1 UNK         0.0600 
    215 H215       -4.4737  -23.7494  -50.3572 H         1 UNK         0.3000 
    216 H216       -4.5105  -21.7812  -51.3190 H         1 UNK         0.0600 
    217 H217       -6.6949  -20.8572  -52.0312 H         1 UNK         0.0600 
    218 H218       -6.8976  -21.8428  -50.5947 H         1 UNK         0.0600 
    219 H219       -7.3728  -22.4765  -52.1679 H         1 UNK         0.0600 
    220 H220       -3.6808  -24.1476  -53.0351 H         1 UNK         0.3000 
    221 H221       -3.0077  -24.7013  -55.0503 H         1 UNK         0.0600 
    222 H222       -3.1019  -21.7280  -55.7878 H         1 UNK         0.0600 
    223 H223       -1.7605  -22.5187  -54.9611 H         1 UNK         0.0600 
    224 H224       -2.1821  -22.9822  -56.6020 H         1 UNK         0.0600 
    225 H225       -5.7236  -24.9743  -54.5030 H         1 UNK         0.3000 
    226 H226       -7.7166  -25.4291  -55.3291 H         1 UNK         0.0600 
    227 H227       -6.5225  -26.7058  -57.1234 H         1 UNK         0.0600 
    228 H228       -8.0431  -26.0332  -57.6887 H         1 UNK         0.0600 
    229 H229       -6.5289  -25.2732  -58.1512 H         1 UNK         0.0600 
    230 H230       -7.2262  -22.9597  -54.4974 H         1 UNK         0.3000 
    231 H231       -8.1728  -21.0271  -54.1472 H         1 UNK         0.0600 
    232 H232      -10.0686  -21.4535  -56.5086 H         1 UNK         0.0600 
    233 H233      -10.2471  -20.2909  -55.2068 H         1 UNK         0.0600 
    234 H234      -10.3649  -22.0076  -54.8597 H         1 UNK         0.0600 
    235 H235       -6.2760  -21.6230  -56.7875 H         1 UNK         0.3000 
    236 H236       -6.3525  -19.1190  -58.1698 H         1 UNK         0.0600 
    237 H237       -5.4005  -21.2386  -59.1230 H         1 UNK         0.0600 
    238 H238       -4.2632  -19.9009  -59.2045 H         1 UNK         0.0600 
    239 H239       -4.0627  -21.1417  -57.9780 H         1 UNK         0.0600 
    240 H240       -4.8689  -20.0729  -55.1407 H         1 UNK         0.3000 
    241 H241       -3.0891  -17.7563  -55.0063 H         1 UNK         0.0600 
    242 H242       -6.6291  -16.6359  -53.5069 H         1 UNK         0.3800 
    243 H243       -6.4712  -17.9375  -54.6574 H         1 UNK         0.3800 
    244 H244       -3.6724  -19.5271  -52.6161 H         1 UNK         0.0800 
    245 H245       -2.7902  -20.2090  -53.9448 H         1 UNK         0.0800 
    246 H246       -2.1967  -17.9132  -50.7203 H         1 UNK         0.0800 
    247 H247       -2.1183  -19.6539  -50.8695 H         1 UNK         0.0800 
@<TRIPOS>BOND
     1    1    2 1    
     2    1  127 1    
     3    1  128 1    
     4    1  129 1    
     5    2    3 2    
     6    2    4 am   BACKBONE|DICT|INTERRES
     7    4    5 1    
     8    4  130 1    
     9    5    6 1    
    10    5   65 1    
    11    5  131 1    
    12    6    7 1    
    13    6  132 1    
    14    6  133 1    
    15    7    8 1    
    16    8    9 1    
    17    8  134 1    
    18    8  135 1    
    19    9   10 ar   
    20    9   14 ar   
    21   10   11 ar   
    22   10  136 1    
    23   11   12 ar   
    24   11  126 1    
    25   12   13 ar   
    26   12  137 1    
    27   13   14 ar   
    28   13   15 1    
    29   14  138 1    
    30   15   16 1    
    31   15  139 1    
    32   15  140 1    
    33   16   17 1    
    34   17   18 1    
    35   17  141 1    
    36   17  142 1    
    37   18   19 1    
    38   18   67 1    
    39   18  143 1    
    40   19   20 am   BACKBONE|DICT|INTERRES
    41   19  144 1    
    42   20   21 2    
    43   20   22 1    
    44   22   23 1    
    45   22   24 1    
    46   22  145 1    
    47   23  146 1    
    48   23  147 1    
    49   23  148 1    
    50   24   25 am   BACKBONE|DICT|INTERRES
    51   24  149 1    
    52   25   26 2    
    53   25   27 1    
    54   27   28 1    
    55   27   29 1    
    56   27  150 1    
    57   28  151 1    
    58   28  152 1    
    59   28  153 1    
    60   29   30 am   BACKBONE|DICT|INTERRES
    61   29  154 1    
    62   30   31 2    
    63   30   32 1    
    64   32   33 1    
    65   32   34 1    
    66   32  155 1    
    67   33  156 1    
    68   33  157 1    
    69   33  158 1    
    70   34   35 am   BACKBONE|DICT|INTERRES
    71   34  159 1    
    72   35   36 2    
    73   35   37 1    
    74   37   38 1    
    75   37   39 1    
    76   37  160 1    
    77   38  161 1    
    78   38  162 1    
    79   38  163 1    
    80   39   40 am   BACKBONE|DICT|INTERRES
    81   39  164 1    
    82   40   41 2    
    83   40   42 1    
    84   42   43 1    
    85   42   44 1    
    86   42  165 1    
    87   43  166 1    
    88   43  167 1    
    89   43  168 1    
    90   44   45 am   BACKBONE|DICT|INTERRES
    91   44  169 1    
    92   45   46 2    
    93   45   47 1    
    94   47   48 1    
    95   47   49 1    
    96   47  170 1    
    97   48  171 1    
    98   48  172 1    
    99   48  173 1    
   100   49   50 am   BACKBONE|DICT|INTERRES
   101   49  174 1    
   102   50   51 2    
   103   50   52 1    
   104   52   53 1    
   105   52   54 1    
   106   52  175 1    
   107   53  176 1    
   108   53  177 1    
   109   53  178 1    
   110   54   55 am   BACKBONE|DICT|INTERRES
   111   54  179 1    
   112   55   56 2    
   113   55   57 1    
   114   57   58 1    
   115   57   59 1    
   116   57  180 1    
   117   58  181 1    
   118   58  182 1    
   119   58  183 1    
   120   59   60 am   BACKBONE|DICT|INTERRES
   121   59  184 1    
   122   60   61 2    
   123   60   62 1    
   124   62   63 1    
   125   62   64 1    
   126   62  185 1    
   127   63  186 1    
   128   63  187 1    
   129   63  188 1    
   130   64   65 am   BACKBONE|DICT|INTERRES
   131   64  189 1    
   132   65   66 2    
   133   67   68 2    
   134   67   69 am   BACKBONE|DICT|INTERRES
   135   69   70 1    
   136   69  190 1    
   137   70   71 1    
   138   70   72 1    
   139   70  191 1    
   140   71  192 1    
   141   71  193 1    
   142   71  194 1    
   143   72   73 2    
   144   72   74 am   BACKBONE|DICT|INTERRES
   145   74   75 1    
   146   74  195 1    
   147   75   76 1    
   148   75   77 1    
   149   75  196 1    
   150   76  197 1    
   151   76  198 1    
   152   76  199 1    
   153   77   78 2    
   154   77   79 am   BACKBONE|DICT|INTERRES
   155   79   80 1    
   156   79  200 1    
   157   80   81 1    
   158   80   82 1    
   159   80  201 1    
   160   81  202 1    
   161   81  203 1    
   162   81  204 1    
   163   82   83 2    
   164   82   84 am   BACKBONE|DICT|INTERRES
   165   84   85 1    
   166   84  205 1    
   167   85   86 1    
   168   85   87 1    
   169   85  206 1    
   170   86  207 1    
   171   86  208 1    
   172   86  209 1    
   173   87   88 2    
   174   87   89 am   BACKBONE|DICT|INTERRES
   175   89   90 1    
   176   89  210 1    
   177   90   91 1    
   178   90   92 1    
   179   90  211 1    
   180   91  212 1    
   181   91  213 1    
   182   91  214 1    
   183   92   93 2    
   184   92   94 am   BACKBONE|DICT|INTERRES
   185   94   95 1    
   186   94  215 1    
   187   95   96 1    
   188   95   97 1    
   189   95  216 1    
   190   96  217 1    
   191   96  218 1    
   192   96  219 1    
   193   97   98 2    
   194   97   99 am   BACKBONE|DICT|INTERRES
   195   99  100 1    
   196   99  220 1    
   197  100  101 1    
   198  100  102 1    
   199  100  221 1    
   200  101  222 1    
   201  101  223 1    
   202  101  224 1    
   203  102  103 2    
   204  102  104 am   BACKBONE|DICT|INTERRES
   205  104  105 1    
   206  104  225 1    
   207  105  106 1    
   208  105  107 1    
   209  105  226 1    
   210  106  227 1    
   211  106  228 1    
   212  106  229 1    
   213  107  108 2    
   214  107  109 am   BACKBONE|DICT|INTERRES
   215  109  110 1    
   216  109  230 1    
   217  110  111 1    
   218  110  112 1    
   219  110  231 1    
   220  111  232 1    
   221  111  233 1    
   222  111  234 1    
   223  112  113 2    
   224  112  114 am   BACKBONE|DICT|INTERRES
   225  114  115 1    
   226  114  235 1    
   227  115  116 1    
   228  115  117 1    
   229  115  236 1    
   230  116  237 1    
   231  116  238 1    
   232  116  239 1    
   233  117  118 2    
   234  117  119 am   BACKBONE|DICT|INTERRES
   235  119  120 1    
   236  119  240 1    
   237  120  121 1    
   238  120  124 1    
   239  120  241 1    
   240  121  122 am   BACKBONE|DICT|INTERRES
   241  121  123 2    
   242  122  242 1    
   243  122  243 1    
   244  124  125 1    
   245  124  244 1    
   246  124  245 1    
   247  125  126 1    
   248  126  246 1    
   249  126  247 1    
@<TRIPOS>SUBSTRUCTURE
     1 UNK         1 GROUP             0       ****    0 ROOT    
