@<TRIPOS>MOLECULE
3R540
247   249    1
SMALL
USER_CHARGES


@<TRIPOS>ATOM
      1 CA          2.9013  -13.9365  -45.9541 C.3       0 UNK        -0.1800 
      2 C           2.1992  -15.1249  -46.5916 C.2       0 UNK         0.5000 
      3 O           2.1091  -16.1831  -45.9760 O.2       0 UNK        -0.5000 
      4 N           1.7214  -14.9464  -47.8284 N.am      1 UNK        -0.5000 
      5 CA          1.0629  -15.9655  -48.6549 C.3       1 UNK         0.1400 
      6 C6          0.9427  -15.4504  -50.1117 C.3       23 UNK        -0.0398 
      7 S7          0.3102  -16.6594  -51.3254 S.3       23 UNK        -0.2404 
      8 C8          1.7994  -17.0737  -52.2823 C.3       23 UNK        -0.0205 
      9 C9          2.5048  -18.2968  -51.7206 C.ar      23 UNK        -0.0193 
     10 C10         2.1658  -19.5650  -52.1950 C.ar      23 UNK        -0.1150 
     11 C11         2.8237  -20.7044  -51.7272 C.ar      23 UNK        -0.0193 
     12 C12         3.8421  -20.5633  -50.7807 C.ar      23 UNK        -0.1150 
     13 C13         4.1955  -19.2972  -50.2964 C.ar      23 UNK        -0.0193 
     14 C14         3.5161  -18.1678  -50.7652 C.ar      23 UNK        -0.1150 
     15 C15         5.3569  -19.1350  -49.3239 C.3       23 UNK        -0.0205 
     16 S16         5.2310  -20.2172  -47.8669 S.3       23 UNK        -0.2404 
     17 C17         3.8878  -19.4282  -46.9172 C.3       23 UNK        -0.0398 
     18 CA          2.5252  -20.1632  -47.0167 C.3       11 UNK         0.1400 
     19 N           2.6465  -21.6103  -46.8207 N.am      11 UNK        -0.5000 
     20 C           1.7593  -22.5340  -47.2138 C.2       10 UNK         0.5000 
     21 O           0.7135  -22.2735  -47.8091 O.2       10 UNK        -0.5000 
     22 CA          2.0717  -23.9823  -46.8087 C.3       10 UNK         0.1400 
     23 CB          3.1995  -24.5626  -47.6765 C.3       10 UNK        -0.1800 
     24 N           2.4436  -24.0620  -45.3946 N.am      10 UNK        -0.5000 
     25 C           1.5727  -23.9527  -44.3796 C.2       9 UNK         0.5000 
     26 O           0.3543  -23.8560  -44.5280 O.2       9 UNK        -0.5000 
     27 CA          2.1747  -23.9235  -42.9620 C.3       9 UNK         0.1400 
     28 CB          2.5840  -25.3338  -42.5092 C.3       9 UNK        -0.1800 
     29 N           3.3309  -23.0270  -42.8826 N.am      9 UNK        -0.5000 
     30 C           3.2405  -21.6902  -42.9029 C.2       8 UNK         0.5000 
     31 O           2.1680  -21.0854  -42.8753 O.2       8 UNK        -0.5000 
     32 CA          4.5625  -20.9057  -42.9672 C.3       8 UNK         0.1400 
     33 CB          5.5140  -21.4569  -44.0516 C.3       8 UNK        -0.1800 
     34 N           4.2800  -19.4918  -43.2124 N.am      8 UNK        -0.5000 
     35 C           5.1113  -18.4765  -42.9456 C.2       7 UNK         0.5000 
     36 O           6.2382  -18.6308  -42.4721 O.2       7 UNK        -0.5000 
     37 CA          4.6200  -17.0439  -43.2466 C.3       7 UNK         0.1400 
     38 CB          5.2009  -16.5367  -44.5752 C.3       7 UNK        -0.1800 
     39 N           3.1617  -16.9008  -43.2622 N.am      7 UNK        -0.5000 
     40 C           2.3916  -17.0131  -42.1728 C.2       6 UNK         0.5000 
     41 O           2.8454  -17.1920  -41.0397 O.2       6 UNK        -0.5000 
     42 CA          0.8694  -16.8952  -42.3889 C.3       6 UNK         0.1400 
     43 CB          0.0715  -17.4980  -41.2150 C.3       6 UNK        -0.1800 
     44 N           0.4173  -15.5268  -42.6607 N.am      6 UNK        -0.5000 
     45 C           0.6404  -14.4159  -41.9395 C.2       5 UNK         0.5000 
     46 O           1.3225  -14.3721  -40.9158 O.2       5 UNK        -0.5000 
     47 CA         -0.0602  -13.1342  -42.4225 C.3       5 UNK         0.1400 
     48 CB          0.5908  -12.5875  -43.7010 C.3       5 UNK        -0.1800 
     49 N          -1.4741  -13.3934  -42.6817 N.am      5 UNK        -0.5000 
     50 C          -2.4866  -13.0103  -41.8916 C.2       4 UNK         0.5000 
     51 O          -2.3467  -12.3205  -40.8809 O.2       4 UNK        -0.5000 
     52 CA         -3.9012  -13.4816  -42.2912 C.3       4 UNK         0.1400 
     53 CB         -4.6091  -12.4058  -43.1290 C.3       4 UNK        -0.1800 
     54 N          -3.8935  -14.7374  -43.0428 N.am      4 UNK        -0.5000 
     55 C          -3.5250  -15.9246  -42.5422 C.2       3 UNK         0.5000 
     56 O          -3.2909  -16.1139  -41.3489 O.2       3 UNK        -0.5000 
     57 CA         -3.3650  -17.0925  -43.5376 C.3       3 UNK         0.1400 
     58 CB         -4.5297  -18.0834  -43.3873 C.3       3 UNK        -0.1800 
     59 N          -3.2531  -16.6976  -44.9472 N.am      3 UNK        -0.5000 
     60 C          -2.2885  -15.9355  -45.4792 C.2       2 UNK         0.5000 
     61 O          -1.3862  -15.4131  -44.8209 O.2       2 UNK        -0.5000 
     62 CA         -2.3966  -15.6570  -46.9845 C.3       2 UNK         0.1400 
     63 CB         -3.2555  -14.4061  -47.2257 C.3       2 UNK        -0.1800 
     64 N          -1.0752  -15.4360  -47.5652 N.am      2 UNK        -0.5000 
     65 C          -0.3049  -16.4017  -48.0815 C.2       1 UNK         0.5000 
     66 O          -0.6355  -17.5867  -48.1256 O.2       1 UNK        -0.5000 
     67 C           1.4897  -19.6018  -46.0185 C.2       11 UNK         0.5000 
     68 O           1.8561  -18.9600  -45.0358 O.2       11 UNK        -0.5000 
     69 N           0.2238  -19.9332  -46.2725 N.am      12 UNK        -0.5000 
     70 CA         -0.9766  -19.5893  -45.5192 C.3       12 UNK         0.1400 
     71 CB         -0.9312  -20.1482  -44.0833 C.3       12 UNK        -0.1800 
     72 C          -2.1957  -20.1614  -46.2557 C.2       12 UNK         0.5000 
     73 O          -3.2303  -19.4988  -46.3525 O.2       12 UNK        -0.5000 
     74 N          -2.0383  -21.3854  -46.7846 N.am      13 UNK        -0.5000 
     75 CA         -3.0809  -22.1972  -47.4117 C.3       13 UNK         0.1400 
     76 CB         -2.5140  -23.5943  -47.6990 C.3       13 UNK        -0.1800 
     77 C          -3.7165  -21.5894  -48.6751 C.2       13 UNK         0.5000 
     78 O          -4.8112  -22.0105  -49.0439 O.2       13 UNK        -0.5000 
     79 N          -3.0796  -20.5761  -49.2804 N.am      14 UNK        -0.5000 
     80 CA         -3.6248  -19.7931  -50.3930 C.3       14 UNK         0.1400 
     81 CB         -2.5695  -18.7876  -50.8682 C.3       14 UNK        -0.1800 
     82 C          -4.9342  -19.0582  -50.0465 C.2       14 UNK         0.5000 
     83 O          -5.7466  -18.8271  -50.9419 O.2       14 UNK        -0.5000 
     84 N          -5.1376  -18.7314  -48.7612 N.am      15 UNK        -0.5000 
     85 CA         -6.3832  -18.1498  -48.2587 C.3       15 UNK         0.1400 
     86 CB         -6.1426  -17.5673  -46.8589 C.3       15 UNK        -0.1800 
     87 C          -7.5432  -19.1643  -48.2313 C.2       15 UNK         0.5000 
     88 O          -8.6887  -18.7797  -48.4659 O.2       15 UNK        -0.5000 
     89 N          -7.2266  -20.4369  -47.9560 N.am      16 UNK        -0.5000 
     90 CA         -8.1859  -21.5409  -47.9174 C.3       16 UNK         0.1400 
     91 CB         -7.6582  -22.6381  -46.9793 C.3       16 UNK        -0.1800 
     92 C          -8.4560  -22.1059  -49.3221 C.2       16 UNK         0.5000 
     93 O          -9.6064  -22.3912  -49.6555 O.2       16 UNK        -0.5000 
     94 N          -7.3910  -22.2413  -50.1233 N.am      17 UNK        -0.5000 
     95 CA         -7.4235  -22.7417  -51.4982 C.3       17 UNK         0.1400 
     96 CB         -5.9998  -23.1569  -51.9027 C.3       17 UNK        -0.1800 
     97 C          -8.0043  -21.7357  -52.5122 C.2       17 UNK         0.5000 
     98 O          -8.3524  -22.1469  -53.6195 O.2       17 UNK        -0.5000 
     99 N          -8.0982  -20.4551  -52.1181 N.am      18 UNK        -0.5000 
    100 CA        -8.5165  -19.2989  -52.9170 C.3       18 UNK         0.1400 
    101 CB        -9.9910  -19.4215  -53.3555 C.3       18 UNK        -0.1800 
    102 C         -7.5409  -19.0689  -54.0863 C.2       18 UNK         0.5000 
    103 O         -7.9098  -19.2203  -55.2526 O.2       18 UNK        -0.5000 
    104 N         -6.2928  -18.7517  -53.7180 N.am      19 UNK        -0.5000 
    105 CA        -5.0942  -18.7224  -54.5556 C.3       19 UNK         0.1400 
    106 CB        -5.2150  -17.7127  -55.7205 C.3       19 UNK        -0.1800 
    107 C         -4.7095  -20.1567  -54.9646 C.2       19 UNK         0.5000 
    108 O         -4.5081  -20.9801  -54.0710 O.2       19 UNK        -0.5000 
    109 N         -4.5951  -20.4263  -56.2765 N.am      20 UNK        -0.5000 
    110 CA        -4.1634  -21.6979  -56.8777 C.3       20 UNK         0.1400 
    111 CB        -5.2234  -22.7961  -56.6492 C.3       20 UNK        -0.1800 
    112 C         -2.7582  -22.0989  -56.3824 C.2       20 UNK         0.5000 
    113 O         -2.5677  -23.1978  -55.8537 O.2       20 UNK        -0.5000 
    114 N         -1.8254  -21.1385  -56.4918 N.am      21 UNK        -0.5000 
    115 CA        -0.5408  -21.0695  -55.7901 C.3       21 UNK         0.1400 
    116 CB         0.4196  -22.1984  -56.2283 C.3       21 UNK        -0.1800 
    117 C         -0.8027  -21.0055  -54.2741 C.2       21 UNK         0.5000 
    118 O         -1.1065  -19.9269  -53.7653 O.2       21 UNK        -0.5000 
    119 N         -0.7485  -22.1598  -53.6083 N.am      22 UNK        -0.5000 
    120 CA        -1.2291  -22.3716  -52.2396 C.3       22 UNK         0.1400 
    121 C         -1.9469  -23.7425  -52.0740 C.2       22 UNK         0.5000 
    122 N         -2.4434  -24.3586  -53.1429 N.am      22 UNK        -0.7600 
    123 O         -2.0757  -24.2565  -50.9682 O.2       22 UNK        -0.5000 
    124 C124       -0.1616  -22.0413  -51.1598 C.3       23 UNK        -0.0398 
    125 S125        1.3646  -23.0487  -51.2225 S.3       23 UNK        -0.2404 
    126 C126        2.4724  -22.0740  -52.2945 C.3       23 UNK        -0.0205 
    127 H127        2.9209  -14.0430  -44.8695 H         1 UNK         0.0600 
    128 H128        2.3962  -13.0018  -46.1980 H         1 UNK         0.0600 
    129 H129        3.9303  -13.8754  -46.3076 H         1 UNK         0.0600 
    130 H130        1.8404  -14.0427  -48.2636 H         1 UNK         0.3000 
    131 H131        1.7067  -16.8479  -48.6583 H         1 UNK         0.0600 
    132 H132        1.9151  -15.0906  -50.4494 H         1 UNK         0.0800 
    133 H133        0.2856  -14.5797  -50.1477 H         1 UNK         0.0800 
    134 H134        1.4972  -17.2705  -53.3121 H         1 UNK         0.0800 
    135 H135        2.4819  -16.2246  -52.3341 H         1 UNK         0.0800 
    136 H136        1.3914  -19.6612  -52.9408 H         1 UNK         0.1150 
    137 H137        4.3714  -21.4392  -50.4324 H         1 UNK         0.1150 
    138 H138        3.7915  -17.1848  -50.4097 H         1 UNK         0.1150 
    139 H139        6.2803  -19.3746  -49.8524 H         1 UNK         0.0800 
    140 H140        5.4550  -18.0996  -48.9939 H         1 UNK         0.0800 
    141 H141        3.7725  -18.3903  -47.2342 H         1 UNK         0.0800 
    142 H142        4.2323  -19.3870  -45.8859 H         1 UNK         0.0800 
    143 H143        2.1403  -19.9898  -48.0247 H         1 UNK         0.0600 
    144 H144        3.4696  -21.9169  -46.3280 H         1 UNK         0.3000 
    145 H145        1.1729  -24.5810  -46.9732 H         1 UNK         0.0600 
    146 H146        3.3817  -25.6100  -47.4358 H         1 UNK         0.0600 
    147 H147        2.9386  -24.5133  -48.7347 H         1 UNK         0.0600 
    148 H148        4.1364  -24.0198  -47.5451 H         1 UNK         0.0600 
    149 H149        3.4253  -24.1570  -45.1835 H         1 UNK         0.3000 
    150 H150        1.4039  -23.5609  -42.2781 H         1 UNK         0.0600 
    151 H151        3.3729  -25.7502  -43.1367 H         1 UNK         0.0600 
    152 H152        1.7353  -26.0178  -42.5519 H         1 UNK         0.0600 
    153 H153        2.9429  -25.3274  -41.4798 H         1 UNK         0.0600 
    154 H154        4.2427  -23.4602  -42.8705 H         1 UNK         0.3000 
    155 H155        5.0398  -20.9999  -41.9899 H         1 UNK         0.0600 
    156 H156        5.0302  -21.5065  -45.0259 H         1 UNK         0.0600 
    157 H157        5.8582  -22.4615  -43.8052 H         1 UNK         0.0600 
    158 H158        6.4058  -20.8392  -44.1572 H         1 UNK         0.0600 
    159 H159        3.3450  -19.2960  -43.5634 H         1 UNK         0.3000 
    160 H160        5.0092  -16.4040  -42.4519 H         1 UNK         0.0600 
    161 H161        4.7589  -17.0457  -45.4305 H         1 UNK         0.0600 
    162 H162        6.2795  -16.6924  -44.6202 H         1 UNK         0.0600 
    163 H163        5.0268  -15.4683  -44.6935 H         1 UNK         0.0600 
    164 H164        2.7194  -16.7978  -44.1733 H         1 UNK         0.3000 
    165 H165        0.6273  -17.4711  -43.2816 H         1 UNK         0.0600 
    166 H166       -0.9954  -17.5150  -41.4261 H         1 UNK         0.0600 
    167 H167        0.3776  -18.5278  -41.0262 H         1 UNK         0.0600 
    168 H168        0.2190  -16.9360  -40.2923 H         1 UNK         0.0600 
    169 H169       -0.1459  -15.4343  -43.5035 H         1 UNK         0.3000 
    170 H170        0.0537  -12.3782  -41.6428 H         1 UNK         0.0600 
    171 H171        1.6564  -12.4110  -43.5518 H         1 UNK         0.0600 
    172 H172        0.4761  -13.2777  -44.5370 H         1 UNK         0.0600 
    173 H173        0.1423  -11.6377  -43.9922 H         1 UNK         0.0600 
    174 H174       -1.6752  -13.9984  -43.4703 H         1 UNK         0.3000 
    175 H175       -4.4725  -13.6354  -41.3733 H         1 UNK         0.0600 
    176 H176       -4.0897  -12.2220  -44.0705 H         1 UNK         0.0600 
    177 H177       -5.6338  -12.6967  -43.3611 H         1 UNK         0.0600 
    178 H178       -4.6557  -11.4589  -42.5894 H         1 UNK         0.0600 
    179 H179       -4.0914  -14.6771  -44.0298 H         1 UNK         0.3000 
    180 H180       -2.4413  -17.6091  -43.2748 H         1 UNK         0.0600 
    181 H181       -4.6261  -18.4211  -42.3545 H         1 UNK         0.0600 
    182 H182       -4.3796  -18.9717  -44.0000 H         1 UNK         0.0600 
    183 H183       -5.4801  -17.6320  -43.6743 H         1 UNK         0.0600 
    184 H184       -3.9357  -17.1117  -45.5651 H         1 UNK         0.3000 
    185 H185       -2.8764  -16.5095  -47.4712 H         1 UNK         0.0600 
    186 H186       -3.3592  -14.2013  -48.2914 H         1 UNK         0.0600 
    187 H187       -4.2609  -14.5320  -46.8224 H         1 UNK         0.0600 
    188 H188       -2.8224  -13.5219  -46.7557 H         1 UNK         0.0600 
    189 H189       -0.7002  -14.5022  -47.4926 H         1 UNK         0.3000 
    190 H190        0.0678  -20.5013  -47.0979 H         1 UNK         0.3000 
    191 H191       -1.0602  -18.5040  -45.4860 H         1 UNK         0.0600 
    192 H192       -0.1546  -19.6726  -43.4871 H         1 UNK         0.0600 
    193 H193       -1.8769  -19.9845  -43.5660 H         1 UNK         0.0600 
    194 H194       -0.7361  -21.2213  -44.0775 H         1 UNK         0.0600 
    195 H195       -1.1441  -21.8475  -46.6763 H         1 UNK         0.3000 
    196 H196       -3.8857  -22.3061  -46.6821 H         1 UNK         0.0600 
    197 H197       -3.2642  -24.2370  -48.1619 H         1 UNK         0.0600 
    198 H198       -2.1864  -24.0841  -46.7817 H         1 UNK         0.0600 
    199 H199       -1.6602  -23.5489  -48.3752 H         1 UNK         0.0600 
    200 H200       -2.2055  -20.2587  -48.8879 H         1 UNK         0.3000 
    201 H201       -3.8443  -20.4793  -51.2124 H         1 UNK         0.0600 
    202 H202       -1.6280  -19.2780  -51.1126 H         1 UNK         0.0600 
    203 H203       -2.3649  -18.0317  -50.1099 H         1 UNK         0.0600 
    204 H204       -2.9024  -18.2669  -51.7666 H         1 UNK         0.0600 
    205 H205       -4.4286  -18.9674  -48.0761 H         1 UNK         0.3000 
    206 H206       -6.6746  -17.3312  -48.9205 H         1 UNK         0.0600 
    207 H207       -5.4015  -16.7707  -46.8913 H         1 UNK         0.0600 
    208 H208       -7.0588  -17.1386  -46.4504 H         1 UNK         0.0600 
    209 H209       -5.7981  -18.3312  -46.1610 H         1 UNK         0.0600 
    210 H210       -6.2540  -20.6798  -47.8338 H         1 UNK         0.3000 
    211 H211       -9.1330  -21.1790  -47.5113 H         1 UNK         0.0600 
    212 H212       -6.7079  -23.0467  -47.3247 H         1 UNK         0.0600 
    213 H213       -8.3655  -23.4657  -46.9123 H         1 UNK         0.0600 
    214 H214       -7.5104  -22.2547  -45.9696 H         1 UNK         0.0600 
    215 H215       -6.4672  -22.0417  -49.7434 H         1 UNK         0.3000 
    216 H216       -8.0565  -23.6309  -51.5244 H         1 UNK         0.0600 
    217 H217       -5.9736  -23.5431  -52.9225 H         1 UNK         0.0600 
    218 H218       -5.6129  -23.9379  -51.2478 H         1 UNK         0.0600 
    219 H219       -5.3100  -22.3144  -51.8562 H         1 UNK         0.0600 
    220 H220       -7.7358  -20.2338  -51.2012 H         1 UNK         0.3000 
    221 H221       -8.4416  -18.4275  -52.2643 H         1 UNK         0.0600 
    222 H222      -10.1502  -20.2537  -54.0413 H         1 UNK         0.0600 
    223 H223      -10.6453  -19.5663  -52.4959 H         1 UNK         0.0600 
    224 H224      -10.3183  -18.5147  -53.8652 H         1 UNK         0.0600 
    225 H225       -6.1061  -18.7181  -52.7167 H         1 UNK         0.3000 
    226 H226       -4.2879  -18.3720  -53.9097 H         1 UNK         0.0600 
    227 H227       -4.2636  -17.6061  -56.2429 H         1 UNK         0.0600 
    228 H228       -5.9643  -18.0048  -56.4561 H         1 UNK         0.0600 
    229 H229       -5.4864  -16.7245  -55.3494 H         1 UNK         0.0600 
    230 H230       -4.7974  -19.6807  -56.9275 H         1 UNK         0.3000 
    231 H231       -4.0827  -21.5321  -57.9529 H         1 UNK         0.0600 
    232 H232       -5.3351  -23.0426  -55.5926 H         1 UNK         0.0600 
    233 H233       -4.9518  -23.7142  -57.1713 H         1 UNK         0.0600 
    234 H234       -6.1989  -22.4850  -57.0228 H         1 UNK         0.0600 
    235 H235       -2.1129  -20.2721  -56.9241 H         1 UNK         0.3000 
    236 H236       -0.0799  -20.1205  -56.0683 H         1 UNK         0.0600 
    237 H237        0.6197  -22.1401  -57.2981 H         1 UNK         0.0600 
    238 H238        1.3790  -22.1103  -55.7176 H         1 UNK         0.0600 
    239 H239        0.0299  -23.1952  -56.0240 H         1 UNK         0.0600 
    240 H240       -0.5219  -23.0026  -54.1165 H         1 UNK         0.3000 
    241 H241       -2.0441  -21.6655  -52.0803 H         1 UNK         0.0600 
    242 H242       -2.9078  -25.2436  -53.0203 H         1 UNK         0.3800 
    243 H243       -2.4417  -23.9213  -54.0607 H         1 UNK         0.3800 
    244 H244        0.0974  -20.9861  -51.2148 H         1 UNK         0.0800 
    245 H245       -0.5957  -22.1655  -50.1674 H         1 UNK         0.0800 
    246 H246        3.3907  -22.6427  -52.4472 H         1 UNK         0.0800 
    247 H247        2.0215  -21.9716  -53.2813 H         1 UNK         0.0800 
@<TRIPOS>BOND
     1    1    2 1    
     2    1  127 1    
     3    1  128 1    
     4    1  129 1    
     5    2    3 2    
     6    2    4 am   BACKBONE|DICT|INTERRES
     7    4    5 1    
     8    4  130 1    
     9    5    6 1    
    10    5   65 1    
    11    5  131 1    
    12    6    7 1    
    13    6  132 1    
    14    6  133 1    
    15    7    8 1    
    16    8    9 1    
    17    8  134 1    
    18    8  135 1    
    19    9   10 ar   
    20    9   14 ar   
    21   10   11 ar   
    22   10  136 1    
    23   11   12 ar   
    24   11  126 1    
    25   12   13 ar   
    26   12  137 1    
    27   13   14 ar   
    28   13   15 1    
    29   14  138 1    
    30   15   16 1    
    31   15  139 1    
    32   15  140 1    
    33   16   17 1    
    34   17   18 1    
    35   17  141 1    
    36   17  142 1    
    37   18   19 1    
    38   18   67 1    
    39   18  143 1    
    40   19   20 am   BACKBONE|DICT|INTERRES
    41   19  144 1    
    42   20   21 2    
    43   20   22 1    
    44   22   23 1    
    45   22   24 1    
    46   22  145 1    
    47   23  146 1    
    48   23  147 1    
    49   23  148 1    
    50   24   25 am   BACKBONE|DICT|INTERRES
    51   24  149 1    
    52   25   26 2    
    53   25   27 1    
    54   27   28 1    
    55   27   29 1    
    56   27  150 1    
    57   28  151 1    
    58   28  152 1    
    59   28  153 1    
    60   29   30 am   BACKBONE|DICT|INTERRES
    61   29  154 1    
    62   30   31 2    
    63   30   32 1    
    64   32   33 1    
    65   32   34 1    
    66   32  155 1    
    67   33  156 1    
    68   33  157 1    
    69   33  158 1    
    70   34   35 am   BACKBONE|DICT|INTERRES
    71   34  159 1    
    72   35   36 2    
    73   35   37 1    
    74   37   38 1    
    75   37   39 1    
    76   37  160 1    
    77   38  161 1    
    78   38  162 1    
    79   38  163 1    
    80   39   40 am   BACKBONE|DICT|INTERRES
    81   39  164 1    
    82   40   41 2    
    83   40   42 1    
    84   42   43 1    
    85   42   44 1    
    86   42  165 1    
    87   43  166 1    
    88   43  167 1    
    89   43  168 1    
    90   44   45 am   BACKBONE|DICT|INTERRES
    91   44  169 1    
    92   45   46 2    
    93   45   47 1    
    94   47   48 1    
    95   47   49 1    
    96   47  170 1    
    97   48  171 1    
    98   48  172 1    
    99   48  173 1    
   100   49   50 am   BACKBONE|DICT|INTERRES
   101   49  174 1    
   102   50   51 2    
   103   50   52 1    
   104   52   53 1    
   105   52   54 1    
   106   52  175 1    
   107   53  176 1    
   108   53  177 1    
   109   53  178 1    
   110   54   55 am   BACKBONE|DICT|INTERRES
   111   54  179 1    
   112   55   56 2    
   113   55   57 1    
   114   57   58 1    
   115   57   59 1    
   116   57  180 1    
   117   58  181 1    
   118   58  182 1    
   119   58  183 1    
   120   59   60 am   BACKBONE|DICT|INTERRES
   121   59  184 1    
   122   60   61 2    
   123   60   62 1    
   124   62   63 1    
   125   62   64 1    
   126   62  185 1    
   127   63  186 1    
   128   63  187 1    
   129   63  188 1    
   130   64   65 am   BACKBONE|DICT|INTERRES
   131   64  189 1    
   132   65   66 2    
   133   67   68 2    
   134   67   69 am   BACKBONE|DICT|INTERRES
   135   69   70 1    
   136   69  190 1    
   137   70   71 1    
   138   70   72 1    
   139   70  191 1    
   140   71  192 1    
   141   71  193 1    
   142   71  194 1    
   143   72   73 2    
   144   72   74 am   BACKBONE|DICT|INTERRES
   145   74   75 1    
   146   74  195 1    
   147   75   76 1    
   148   75   77 1    
   149   75  196 1    
   150   76  197 1    
   151   76  198 1    
   152   76  199 1    
   153   77   78 2    
   154   77   79 am   BACKBONE|DICT|INTERRES
   155   79   80 1    
   156   79  200 1    
   157   80   81 1    
   158   80   82 1    
   159   80  201 1    
   160   81  202 1    
   161   81  203 1    
   162   81  204 1    
   163   82   83 2    
   164   82   84 am   BACKBONE|DICT|INTERRES
   165   84   85 1    
   166   84  205 1    
   167   85   86 1    
   168   85   87 1    
   169   85  206 1    
   170   86  207 1    
   171   86  208 1    
   172   86  209 1    
   173   87   88 2    
   174   87   89 am   BACKBONE|DICT|INTERRES
   175   89   90 1    
   176   89  210 1    
   177   90   91 1    
   178   90   92 1    
   179   90  211 1    
   180   91  212 1    
   181   91  213 1    
   182   91  214 1    
   183   92   93 2    
   184   92   94 am   BACKBONE|DICT|INTERRES
   185   94   95 1    
   186   94  215 1    
   187   95   96 1    
   188   95   97 1    
   189   95  216 1    
   190   96  217 1    
   191   96  218 1    
   192   96  219 1    
   193   97   98 2    
   194   97   99 am   BACKBONE|DICT|INTERRES
   195   99  100 1    
   196   99  220 1    
   197  100  101 1    
   198  100  102 1    
   199  100  221 1    
   200  101  222 1    
   201  101  223 1    
   202  101  224 1    
   203  102  103 2    
   204  102  104 am   BACKBONE|DICT|INTERRES
   205  104  105 1    
   206  104  225 1    
   207  105  106 1    
   208  105  107 1    
   209  105  226 1    
   210  106  227 1    
   211  106  228 1    
   212  106  229 1    
   213  107  108 2    
   214  107  109 am   BACKBONE|DICT|INTERRES
   215  109  110 1    
   216  109  230 1    
   217  110  111 1    
   218  110  112 1    
   219  110  231 1    
   220  111  232 1    
   221  111  233 1    
   222  111  234 1    
   223  112  113 2    
   224  112  114 am   BACKBONE|DICT|INTERRES
   225  114  115 1    
   226  114  235 1    
   227  115  116 1    
   228  115  117 1    
   229  115  236 1    
   230  116  237 1    
   231  116  238 1    
   232  116  239 1    
   233  117  118 2    
   234  117  119 am   BACKBONE|DICT|INTERRES
   235  119  120 1    
   236  119  240 1    
   237  120  121 1    
   238  120  124 1    
   239  120  241 1    
   240  121  122 am   BACKBONE|DICT|INTERRES
   241  121  123 2    
   242  122  242 1    
   243  122  243 1    
   244  124  125 1    
   245  124  244 1    
   246  124  245 1    
   247  125  126 1    
   248  126  246 1    
   249  126  247 1    
@<TRIPOS>SUBSTRUCTURE
     1 UNK         1 GROUP             0       ****    0 ROOT    
