@<TRIPOS>MOLECULE
3R540
247   249    1
SMALL
USER_CHARGES


@<TRIPOS>ATOM
      1 CA         -0.1938  -16.3137  -48.6478 C.3       0 UNK        -0.1800 
      2 C          -0.2038  -15.1534  -47.6689 C.2       0 UNK         0.5000 
      3 O           0.8603  -14.6680  -47.2921 O.2       0 UNK        -0.5000 
      4 N          -1.3930  -14.6776  -47.2772 N.am      1 UNK        -0.5000 
      5 CA         -1.5814  -13.5825  -46.3110 C.3       1 UNK         0.1400 
      6 C6         -3.0663  -13.3741  -45.9252 C.3       23 UNK        -0.0398 
      7 S7         -3.8183  -14.8553  -45.1685 S.3       23 UNK        -0.2404 
      8 C8         -5.1122  -15.2934  -46.3705 C.3       23 UNK        -0.0205 
      9 C9         -4.5247  -15.8123  -47.6724 C.ar      23 UNK        -0.0193 
     10 C10        -4.4690  -14.9867  -48.8001 C.ar      23 UNK        -0.1150 
     11 C11        -3.9193  -15.4619  -49.9920 C.ar      23 UNK        -0.0193 
     12 C12        -3.4498  -16.7727  -50.0566 C.ar      23 UNK        -0.1150 
     13 C13        -3.4931  -17.6090  -48.9414 C.ar      23 UNK        -0.0193 
     14 C14        -4.0285  -17.1184  -47.7453 C.ar      23 UNK        -0.1150 
     15 C15        -2.9111  -19.0114  -49.0607 C.3       23 UNK        -0.0205 
     16 S16        -3.9362  -20.3028  -48.2911 S.3       23 UNK        -0.2404 
     17 C17        -3.1305  -20.4473  -46.6643 C.3       23 UNK        -0.0398 
     18 CA         -2.6690  -21.9014  -46.3835 C.3       11 UNK         0.1400 
     19 N          -1.3269  -21.9557  -45.7970 N.am      11 UNK        -0.5000 
     20 C          -0.6244  -23.0760  -45.5794 C.2       10 UNK         0.5000 
     21 O          -1.0046  -24.1949  -45.9190 O.2       10 UNK        -0.5000 
     22 CA          0.6970  -22.9327  -44.7995 C.3       10 UNK         0.1400 
     23 CB          1.8671  -22.6540  -45.7534 C.3       10 UNK        -0.1800 
     24 N           0.6346  -21.8965  -43.7652 N.am      10 UNK        -0.5000 
     25 C          -0.1889  -21.9373  -42.7072 C.2       9 UNK         0.5000 
     26 O          -0.9267  -22.8900  -42.4584 O.2       9 UNK        -0.5000 
     27 CA         -0.2526  -20.6843  -41.8157 C.3       9 UNK         0.1400 
     28 CB          0.8890  -20.6805  -40.7890 C.3       9 UNK        -0.1800 
     29 N          -0.2334  -19.4407  -42.5879 N.am      9 UNK        -0.5000 
     30 C          -1.1849  -19.0666  -43.4563 C.2       8 UNK         0.5000 
     31 O          -2.2100  -19.7160  -43.6659 O.2       8 UNK        -0.5000 
     32 CA         -0.9170  -17.7817  -44.2648 C.3       8 UNK         0.1400 
     33 CB         -1.1946  -16.5387  -43.4087 C.3       8 UNK        -0.1800 
     34 N           0.4523  -17.7312  -44.7835 N.am      8 UNK        -0.5000 
     35 C           0.9636  -18.6100  -45.6581 C.2       7 UNK         0.5000 
     36 O           0.2971  -19.4886  -46.2034 O.2       7 UNK        -0.5000 
     37 CA          2.4807  -18.5469  -45.9150 C.3       7 UNK         0.1400 
     38 CB          2.8334  -17.5763  -47.0490 C.3       7 UNK        -0.1800 
     39 N           3.2226  -18.1826  -44.7096 N.am      7 UNK        -0.5000 
     40 C           3.4258  -19.0102  -43.6756 C.2       6 UNK         0.5000 
     41 O           3.0405  -20.1786  -43.6533 O.2       6 UNK        -0.5000 
     42 CA          4.1441  -18.4200  -42.4477 C.3       6 UNK         0.1400 
     43 CB          5.6677  -18.4831  -42.6308 C.3       6 UNK        -0.1800 
     44 N           3.7459  -17.0374  -42.1783 N.am      6 UNK        -0.5000 
     45 C           2.5197  -16.6665  -41.7827 C.2       5 UNK         0.5000 
     46 O           1.6173  -17.4649  -41.5361 O.2       5 UNK        -0.5000 
     47 CA          2.2410  -15.1521  -41.6984 C.3       5 UNK         0.1400 
     48 CB          2.5447  -14.6264  -40.2880 C.3       5 UNK        -0.1800 
     49 N           3.0002  -14.3732  -42.6819 N.am      5 UNK        -0.5000 
     50 C           2.8572  -14.4829  -44.0093 C.2       4 UNK         0.5000 
     51 O           2.0376  -15.2300  -44.5455 O.2       4 UNK        -0.5000 
     52 CA          3.8688  -13.7072  -44.8611 C.3       4 UNK         0.1400 
     53 CB          5.1918  -14.5001  -44.9289 C.3       4 UNK        -0.1800 
     54 N           3.3524  -13.4759  -46.2102 N.am      4 UNK        -0.5000 
     55 C           3.9076  -12.6317  -47.0915 C.2       3 UNK         0.5000 
     56 O           4.8570  -11.8936  -46.8228 O.2       3 UNK        -0.5000 
     57 CA          3.3219  -12.5995  -48.5105 C.3       3 UNK         0.1400 
     58 CB          3.5409  -13.9388  -49.2362 C.3       3 UNK        -0.1800 
     59 N           1.8990  -12.2761  -48.4892 N.am      3 UNK        -0.5000 
     60 C           1.3909  -11.0486  -48.6697 C.2       2 UNK         0.5000 
     61 O           2.0834  -10.0454  -48.8472 O.2       2 UNK        -0.5000 
     62 CA         -0.1455  -10.9033  -48.6862 C.3       2 UNK         0.1400 
     63 CB         -0.6463  -10.7241  -50.1279 C.3       2 UNK        -0.1800 
     64 N          -0.8367  -12.0440  -48.0858 N.am      2 UNK        -0.5000 
     65 C          -0.9569  -12.2448  -46.7662 C.2       1 UNK         0.5000 
     66 O          -0.5768  -11.4363  -45.9183 O.2       1 UNK        -0.5000 
     67 C          -3.7122  -22.6339  -45.5168 C.2       11 UNK         0.5000 
     68 O          -4.5491  -23.3594  -46.0511 O.2       11 UNK        -0.5000 
     69 N          -3.6376  -22.4291  -44.1945 N.am      12 UNK        -0.5000 
     70 CA         -4.5016  -23.0802  -43.2114 C.3       12 UNK         0.1400 
     71 CB         -4.3860  -22.3479  -41.8656 C.3       12 UNK        -0.1800 
     72 C          -4.1859  -24.5793  -43.0552 C.2       12 UNK         0.5000 
     73 O          -5.1101  -25.3851  -42.9390 O.2       12 UNK        -0.5000 
     74 N          -2.8912  -24.9241  -43.0579 N.am      13 UNK        -0.5000 
     75 CA         -2.3953  -26.2947  -42.9378 C.3       13 UNK         0.1400 
     76 CB         -0.8944  -26.2612  -42.6115 C.3       13 UNK        -0.1800 
     77 C          -2.6519  -27.1501  -44.1926 C.2       13 UNK         0.5000 
     78 O          -2.9432  -28.3399  -44.0601 O.2       13 UNK        -0.5000 
     79 N          -2.5263  -26.5414  -45.3770 N.am      14 UNK        -0.5000 
     80 CA         -2.6508  -27.1923  -46.6747 C.3       14 UNK         0.1400 
     81 CB         -1.2521  -27.6174  -47.1689 C.3       14 UNK        -0.1800 
     82 C          -3.4055  -26.2658  -47.6422 C.2       14 UNK         0.5000 
     83 O          -4.6350  -26.2205  -47.5878 O.2       14 UNK        -0.5000 
     84 N          -2.6715  -25.5760  -48.5224 N.am      15 UNK        -0.5000 
     85 CA         -3.1571  -24.7248  -49.6063 C.3       15 UNK         0.1400 
     86 CB         -3.8976  -25.5806  -50.6566 C.3       15 UNK        -0.1800 
     87 C          -1.9462  -24.0293  -50.2516 C.2       15 UNK         0.5000 
     88 O          -0.8071  -24.4296  -49.9929 O.2       15 UNK        -0.5000 
     89 N          -2.2084  -23.0382  -51.1105 N.am      16 UNK        -0.5000 
     90 CA         -1.2153  -22.3986  -51.9718 C.3       16 UNK         0.1400 
     91 CB         -1.0850  -20.9135  -51.6080 C.3       16 UNK        -0.1800 
     92 C          -1.6852  -22.5684  -53.4209 C.2       16 UNK         0.5000 
     93 O          -2.7295  -22.0228  -53.7841 O.2       16 UNK        -0.5000 
     94 N          -0.9363  -23.3583  -54.2037 N.am      17 UNK        -0.5000 
     95 CA         -1.2205  -23.7390  -55.5963 C.3       17 UNK         0.1400 
     96 CB         -1.1122  -22.5160  -56.5303 C.3       17 UNK        -0.1800 
     97 C          -2.5605  -24.4940  -55.7509 C.2       17 UNK         0.5000 
     98 O          -3.2740  -24.2983  -56.7358 O.2       17 UNK        -0.5000 
     99 N          -2.8786  -25.3267  -54.7465 N.am      18 UNK        -0.5000 
    100 CA        -4.1182  -26.0979  -54.5773 C.3       18 UNK         0.1400 
    101 CB        -4.2965  -27.1249  -55.7155 C.3       18 UNK        -0.1800 
    102 C         -5.3782  -25.2290  -54.3557 C.2       18 UNK         0.5000 
    103 O         -6.4952  -25.7272  -54.5060 O.2       18 UNK        -0.5000 
    104 N         -5.1861  -23.9612  -53.9741 N.am      19 UNK        -0.5000 
    105 CA        -6.2309  -23.0000  -53.6440 C.3       19 UNK         0.1400 
    106 CB        -6.7204  -22.3055  -54.9334 C.3       19 UNK        -0.1800 
    107 C         -5.6779  -22.0398  -52.5754 C.2       19 UNK         0.5000 
    108 O         -4.9806  -22.4874  -51.6612 O.2       19 UNK        -0.5000 
    109 N         -5.9664  -20.7431  -52.7146 N.am      20 UNK        -0.5000 
    110 CA        -5.4255  -19.6699  -51.8885 C.3       20 UNK         0.1400 
    111 CB        -6.5272  -19.1257  -50.9609 C.3       20 UNK        -0.1800 
    112 C         -4.8245  -18.6023  -52.8148 C.2       20 UNK         0.5000 
    113 O         -5.2831  -17.4594  -52.8300 O.2       20 UNK        -0.5000 
    114 N         -3.8370  -19.0117  -53.6205 N.am      21 UNK        -0.5000 
    115 CA        -3.1339  -18.1394  -54.5586 C.3       21 UNK         0.1400 
    116 CB        -2.3904  -19.0109  -55.5813 C.3       21 UNK        -0.1800 
    117 C         -2.1512  -17.1913  -53.8439 C.2       21 UNK         0.5000 
    118 O         -1.3779  -17.6441  -52.9979 O.2       21 UNK        -0.5000 
    119 N         -2.1725  -15.9132  -54.2395 N.am      22 UNK        -0.5000 
    120 CA        -1.2009  -14.8726  -53.8488 C.3       22 UNK         0.1400 
    121 C         -0.3274  -14.3904  -55.0475 C.2       22 UNK         0.5000 
    122 N         -0.4396  -14.9669  -56.2390 N.am      22 UNK        -0.7600 
    123 O          0.4909  -13.4878  -54.8935 O.2       22 UNK        -0.5000 
    124 C124       -1.8946  -13.6823  -53.1221 C.3       23 UNK        -0.0398 
    125 S125       -2.0628  -13.9794  -51.3326 S.3       23 UNK        -0.2404 
    126 C126       -3.7774  -14.5653  -51.2074 C.3       23 UNK        -0.0205 
    127 H127       -0.4211  -17.2452  -48.1314 H         1 UNK         0.0600 
    128 H128        0.7849  -16.4085  -49.1172 H         1 UNK         0.0600 
    129 H129       -0.9200  -16.1572  -49.4418 H         1 UNK         0.0600 
    130 H130       -2.2405  -15.1135  -47.6164 H         1 UNK         0.3000 
    131 H131       -1.0402  -13.8678  -45.4075 H         1 UNK         0.0600 
    132 H132       -3.1564  -12.5670  -45.1958 H         1 UNK         0.0800 
    133 H133       -3.6487  -13.0581  -46.7914 H         1 UNK         0.0800 
    134 H134       -5.7550  -14.4299  -46.5488 H         1 UNK         0.0800 
    135 H135       -5.7514  -16.0620  -45.9336 H         1 UNK         0.0800 
    136 H136       -4.8370  -13.9717  -48.7473 H         1 UNK         0.1150 
    137 H137       -3.0101  -17.1271  -50.9771 H         1 UNK         0.1150 
    138 H138       -4.0585  -17.7464  -46.8670 H         1 UNK         0.1150 
    139 H139       -2.8144  -19.2636  -50.1124 H         1 UNK         0.0800 
    140 H140       -1.8953  -19.0266  -48.6662 H         1 UNK         0.0800 
    141 H141       -3.8168  -20.0693  -45.9034 H         1 UNK         0.0800 
    142 H142       -2.2820  -19.7659  -46.6238 H         1 UNK         0.0800 
    143 H143       -2.5970  -22.4457  -47.3279 H         1 UNK         0.0600 
    144 H144       -0.9080  -21.0695  -45.5391 H         1 UNK         0.3000 
    145 H145        0.8916  -23.8837  -44.3006 H         1 UNK         0.0600 
    146 H146        2.8102  -22.5790  -45.2119 H         1 UNK         0.0600 
    147 H147        1.9726  -23.4585  -46.4822 H         1 UNK         0.0600 
    148 H148        1.7240  -21.7286  -46.3096 H         1 UNK         0.0600 
    149 H149        1.2657  -21.1082  -43.8657 H         1 UNK         0.3000 
    150 H150       -1.1972  -20.7180  -41.2688 H         1 UNK         0.0600 
    151 H151        0.8695  -21.5860  -40.1813 H         1 UNK         0.0600 
    152 H152        0.8055  -19.8313  -40.1106 H         1 UNK         0.0600 
    153 H153        1.8657  -20.6291  -41.2695 H         1 UNK         0.0600 
    154 H154        0.5498  -18.8152  -42.4221 H         1 UNK         0.3000 
    155 H155       -1.5976  -17.7656  -45.1187 H         1 UNK         0.0600 
    156 H156       -0.6132  -16.5361  -42.4884 H         1 UNK         0.0600 
    157 H157       -2.2461  -16.4941  -43.1239 H         1 UNK         0.0600 
    158 H158       -0.9614  -15.6246  -43.9515 H         1 UNK         0.0600 
    159 H159        1.0483  -16.9832  -44.4447 H         1 UNK         0.3000 
    160 H160        2.8019  -19.5430  -46.2258 H         1 UNK         0.0600 
    161 H161        2.5700  -16.5502  -46.7996 H         1 UNK         0.0600 
    162 H162        2.3084  -17.8440  -47.9659 H         1 UNK         0.0600 
    163 H163        3.9006  -17.5998  -47.2692 H         1 UNK         0.0600 
    164 H164        3.5135  -17.2199  -44.6308 H         1 UNK         0.3000 
    165 H165        3.8776  -19.0278  -41.5804 H         1 UNK         0.0600 
    166 H166        6.1867  -18.1354  -41.7374 H         1 UNK         0.0600 
    167 H167        5.9955  -19.5065  -42.8182 H         1 UNK         0.0600 
    168 H168        5.9997  -17.8726  -43.4716 H         1 UNK         0.0600 
    169 H169        4.4364  -16.3210  -42.3441 H         1 UNK         0.3000 
    170 H170        1.1788  -14.9990  -41.8983 H         1 UNK         0.0600 
    171 H171        1.9741  -15.1740  -39.5366 H         1 UNK         0.0600 
    172 H172        3.6012  -14.7294  -40.0375 H         1 UNK         0.0600 
    173 H173        2.2772  -13.5738  -40.1932 H         1 UNK         0.0600 
    174 H174        3.7026  -13.7480  -42.3133 H         1 UNK         0.3000 
    175 H175        4.0439  -12.7412  -44.3829 H         1 UNK         0.0600 
    176 H176        5.0622  -15.4489  -45.4514 H         1 UNK         0.0600 
    177 H177        5.9709  -13.9410  -45.4465 H         1 UNK         0.0600 
    178 H178        5.5750  -14.7226  -43.9325 H         1 UNK         0.0600 
    179 H179        2.5314  -14.0227  -46.4665 H         1 UNK         0.3000 
    180 H180        3.8633  -11.8377  -49.0757 H         1 UNK         0.0600 
    181 H181        3.0451  -14.7690  -48.7337 H         1 UNK         0.0600 
    182 H182        4.6030  -14.1804  -49.2907 H         1 UNK         0.0600 
    183 H183        3.1646  -13.8968  -50.2584 H         1 UNK         0.0600 
    184 H184        1.2776  -13.0421  -48.2509 H         1 UNK         0.3000 
    185 H185       -0.4001  -10.0018  -48.1247 H         1 UNK         0.0600 
    186 H186       -0.2264   -9.8231  -50.5767 H         1 UNK         0.0600 
    187 H187       -0.3601  -11.5656  -50.7595 H         1 UNK         0.0600 
    188 H188       -1.7317  -10.6293  -50.1636 H         1 UNK         0.0600 
    189 H189       -1.1698  -12.7592  -48.7170 H         1 UNK         0.3000 
    190 H190       -2.9390  -21.7859  -43.8407 H         1 UNK         0.3000 
    191 H191       -5.5345  -22.9911  -43.5548 H         1 UNK         0.0600 
    192 H192       -3.3751  -22.3986  -41.4609 H         1 UNK         0.0600 
    193 H193       -5.0571  -22.7857  -41.1257 H         1 UNK         0.0600 
    194 H194       -4.6529  -21.2955  -41.9656 H         1 UNK         0.0600 
    195 H195       -2.1925  -24.1863  -43.0823 H         1 UNK         0.3000 
    196 H196       -2.9118  -26.7691  -42.1007 H         1 UNK         0.0600 
    197 H197       -0.5015  -27.2693  -42.4738 H         1 UNK         0.0600 
    198 H198       -0.7021  -25.7079  -41.6920 H         1 UNK         0.0600 
    199 H199       -0.3213  -25.7915  -43.4112 H         1 UNK         0.0600 
    200 H200       -2.2496  -25.5636  -45.4071 H         1 UNK         0.3000 
    201 H201       -3.2616  -28.0928  -46.5825 H         1 UNK         0.0600 
    202 H202       -0.8232  -28.3751  -46.5130 H         1 UNK         0.0600 
    203 H203       -0.5561  -26.7780  -47.1981 H         1 UNK         0.0600 
    204 H204       -1.3014  -28.0491  -48.1694 H         1 UNK         0.0600 
    205 H205       -1.6602  -25.6285  -48.4793 H         1 UNK         0.3000 
    206 H206       -3.8251  -23.9637  -49.1977 H         1 UNK         0.0600 
    207 H207       -3.2715  -26.3950  -51.0226 H         1 UNK         0.0600 
    208 H208       -4.8103  -26.0160  -50.2510 H         1 UNK         0.0600 
    209 H209       -4.1923  -24.9847  -51.5180 H         1 UNK         0.0600 
    210 H210       -3.1794  -22.7900  -51.2993 H         1 UNK         0.3000 
    211 H211       -0.2348  -22.8649  -51.8562 H         1 UNK         0.0600 
    212 H212       -2.0020  -20.3682  -51.8249 H         1 UNK         0.0600 
    213 H213       -0.2881  -20.4411  -52.1833 H         1 UNK         0.0600 
    214 H214       -0.8486  -20.7831  -50.5520 H         1 UNK         0.0600 
    215 H215       -0.1026  -23.7707  -53.8076 H         1 UNK         0.3000 
    216 H216       -0.4403  -24.4438  -55.8871 H         1 UNK         0.0600 
    217 H217       -1.1432  -22.8208  -57.5769 H         1 UNK         0.0600 
    218 H218       -0.1764  -21.9793  -56.3759 H         1 UNK         0.0600 
    219 H219       -1.9323  -21.8163  -56.3723 H         1 UNK         0.0600 
    220 H220       -2.2146  -25.4078  -53.9898 H         1 UNK         0.3000 
    221 H221       -3.9888  -26.6634  -53.6536 H         1 UNK         0.0600 
    222 H222       -4.5248  -26.6430  -56.6664 H         1 UNK         0.0600 
    223 H223       -3.3971  -27.7257  -55.8500 H         1 UNK         0.0600 
    224 H224       -5.1137  -27.8131  -55.4968 H         1 UNK         0.0600 
    225 H225       -4.2415  -23.6117  -53.8630 H         1 UNK         0.3000 
    226 H226       -7.0717  -23.5231  -53.1842 H         1 UNK         0.0600 
    227 H227       -7.0695  -23.0364  -55.6630 H         1 UNK         0.0600 
    228 H228       -7.5575  -21.6355  -54.7348 H         1 UNK         0.0600 
    229 H229       -5.9245  -21.7263  -55.4043 H         1 UNK         0.0600 
    230 H230       -6.5120  -20.4509  -53.5132 H         1 UNK         0.3000 
    231 H231       -4.6111  -20.0422  -51.2675 H         1 UNK         0.0600 
    232 H232       -6.8920  -19.9038  -50.2904 H         1 UNK         0.0600 
    233 H233       -7.3775  -18.7407  -51.5247 H         1 UNK         0.0600 
    234 H234       -6.1472  -18.3149  -50.3380 H         1 UNK         0.0600 
    235 H235       -3.5182  -19.9729  -53.5717 H         1 UNK         0.3000 
    236 H236       -3.8755  -17.5453  -55.0973 H         1 UNK         0.0600 
    237 H237       -1.6447  -19.6451  -55.0998 H         1 UNK         0.0600 
    238 H238       -3.0818  -19.6572  -56.1221 H         1 UNK         0.0600 
    239 H239       -1.8730  -18.3973  -56.3195 H         1 UNK         0.0600 
    240 H240       -2.8519  -15.6284  -54.9305 H         1 UNK         0.3000 
    241 H241       -0.4695  -15.3044  -53.1630 H         1 UNK         0.0600 
    242 H242       -1.0718  -15.7354  -56.3905 H         1 UNK         0.3800 
    243 H243        0.1417  -14.6440  -56.9970 H         1 UNK         0.3800 
    244 H244       -1.3146  -12.7622  -53.2107 H         1 UNK         0.0800 
    245 H245       -2.8657  -13.4579  -53.5656 H         1 UNK         0.0800 
    246 H246       -4.0500  -15.1254  -52.1028 H         1 UNK         0.0800 
    247 H247       -4.4552  -13.7126  -51.1503 H         1 UNK         0.0800 
@<TRIPOS>BOND
     1    1    2 1    
     2    1  127 1    
     3    1  128 1    
     4    1  129 1    
     5    2    3 2    
     6    2    4 am   BACKBONE|DICT|INTERRES
     7    4    5 1    
     8    4  130 1    
     9    5    6 1    
    10    5   65 1    
    11    5  131 1    
    12    6    7 1    
    13    6  132 1    
    14    6  133 1    
    15    7    8 1    
    16    8    9 1    
    17    8  134 1    
    18    8  135 1    
    19    9   10 ar   
    20    9   14 ar   
    21   10   11 ar   
    22   10  136 1    
    23   11   12 ar   
    24   11  126 1    
    25   12   13 ar   
    26   12  137 1    
    27   13   14 ar   
    28   13   15 1    
    29   14  138 1    
    30   15   16 1    
    31   15  139 1    
    32   15  140 1    
    33   16   17 1    
    34   17   18 1    
    35   17  141 1    
    36   17  142 1    
    37   18   19 1    
    38   18   67 1    
    39   18  143 1    
    40   19   20 am   BACKBONE|DICT|INTERRES
    41   19  144 1    
    42   20   21 2    
    43   20   22 1    
    44   22   23 1    
    45   22   24 1    
    46   22  145 1    
    47   23  146 1    
    48   23  147 1    
    49   23  148 1    
    50   24   25 am   BACKBONE|DICT|INTERRES
    51   24  149 1    
    52   25   26 2    
    53   25   27 1    
    54   27   28 1    
    55   27   29 1    
    56   27  150 1    
    57   28  151 1    
    58   28  152 1    
    59   28  153 1    
    60   29   30 am   BACKBONE|DICT|INTERRES
    61   29  154 1    
    62   30   31 2    
    63   30   32 1    
    64   32   33 1    
    65   32   34 1    
    66   32  155 1    
    67   33  156 1    
    68   33  157 1    
    69   33  158 1    
    70   34   35 am   BACKBONE|DICT|INTERRES
    71   34  159 1    
    72   35   36 2    
    73   35   37 1    
    74   37   38 1    
    75   37   39 1    
    76   37  160 1    
    77   38  161 1    
    78   38  162 1    
    79   38  163 1    
    80   39   40 am   BACKBONE|DICT|INTERRES
    81   39  164 1    
    82   40   41 2    
    83   40   42 1    
    84   42   43 1    
    85   42   44 1    
    86   42  165 1    
    87   43  166 1    
    88   43  167 1    
    89   43  168 1    
    90   44   45 am   BACKBONE|DICT|INTERRES
    91   44  169 1    
    92   45   46 2    
    93   45   47 1    
    94   47   48 1    
    95   47   49 1    
    96   47  170 1    
    97   48  171 1    
    98   48  172 1    
    99   48  173 1    
   100   49   50 am   BACKBONE|DICT|INTERRES
   101   49  174 1    
   102   50   51 2    
   103   50   52 1    
   104   52   53 1    
   105   52   54 1    
   106   52  175 1    
   107   53  176 1    
   108   53  177 1    
   109   53  178 1    
   110   54   55 am   BACKBONE|DICT|INTERRES
   111   54  179 1    
   112   55   56 2    
   113   55   57 1    
   114   57   58 1    
   115   57   59 1    
   116   57  180 1    
   117   58  181 1    
   118   58  182 1    
   119   58  183 1    
   120   59   60 am   BACKBONE|DICT|INTERRES
   121   59  184 1    
   122   60   61 2    
   123   60   62 1    
   124   62   63 1    
   125   62   64 1    
   126   62  185 1    
   127   63  186 1    
   128   63  187 1    
   129   63  188 1    
   130   64   65 am   BACKBONE|DICT|INTERRES
   131   64  189 1    
   132   65   66 2    
   133   67   68 2    
   134   67   69 am   BACKBONE|DICT|INTERRES
   135   69   70 1    
   136   69  190 1    
   137   70   71 1    
   138   70   72 1    
   139   70  191 1    
   140   71  192 1    
   141   71  193 1    
   142   71  194 1    
   143   72   73 2    
   144   72   74 am   BACKBONE|DICT|INTERRES
   145   74   75 1    
   146   74  195 1    
   147   75   76 1    
   148   75   77 1    
   149   75  196 1    
   150   76  197 1    
   151   76  198 1    
   152   76  199 1    
   153   77   78 2    
   154   77   79 am   BACKBONE|DICT|INTERRES
   155   79   80 1    
   156   79  200 1    
   157   80   81 1    
   158   80   82 1    
   159   80  201 1    
   160   81  202 1    
   161   81  203 1    
   162   81  204 1    
   163   82   83 2    
   164   82   84 am   BACKBONE|DICT|INTERRES
   165   84   85 1    
   166   84  205 1    
   167   85   86 1    
   168   85   87 1    
   169   85  206 1    
   170   86  207 1    
   171   86  208 1    
   172   86  209 1    
   173   87   88 2    
   174   87   89 am   BACKBONE|DICT|INTERRES
   175   89   90 1    
   176   89  210 1    
   177   90   91 1    
   178   90   92 1    
   179   90  211 1    
   180   91  212 1    
   181   91  213 1    
   182   91  214 1    
   183   92   93 2    
   184   92   94 am   BACKBONE|DICT|INTERRES
   185   94   95 1    
   186   94  215 1    
   187   95   96 1    
   188   95   97 1    
   189   95  216 1    
   190   96  217 1    
   191   96  218 1    
   192   96  219 1    
   193   97   98 2    
   194   97   99 am   BACKBONE|DICT|INTERRES
   195   99  100 1    
   196   99  220 1    
   197  100  101 1    
   198  100  102 1    
   199  100  221 1    
   200  101  222 1    
   201  101  223 1    
   202  101  224 1    
   203  102  103 2    
   204  102  104 am   BACKBONE|DICT|INTERRES
   205  104  105 1    
   206  104  225 1    
   207  105  106 1    
   208  105  107 1    
   209  105  226 1    
   210  106  227 1    
   211  106  228 1    
   212  106  229 1    
   213  107  108 2    
   214  107  109 am   BACKBONE|DICT|INTERRES
   215  109  110 1    
   216  109  230 1    
   217  110  111 1    
   218  110  112 1    
   219  110  231 1    
   220  111  232 1    
   221  111  233 1    
   222  111  234 1    
   223  112  113 2    
   224  112  114 am   BACKBONE|DICT|INTERRES
   225  114  115 1    
   226  114  235 1    
   227  115  116 1    
   228  115  117 1    
   229  115  236 1    
   230  116  237 1    
   231  116  238 1    
   232  116  239 1    
   233  117  118 2    
   234  117  119 am   BACKBONE|DICT|INTERRES
   235  119  120 1    
   236  119  240 1    
   237  120  121 1    
   238  120  124 1    
   239  120  241 1    
   240  121  122 am   BACKBONE|DICT|INTERRES
   241  121  123 2    
   242  122  242 1    
   243  122  243 1    
   244  124  125 1    
   245  124  244 1    
   246  124  245 1    
   247  125  126 1    
   248  126  246 1    
   249  126  247 1    
@<TRIPOS>SUBSTRUCTURE
     1 UNK         1 GROUP             0       ****    0 ROOT    
