@<TRIPOS>MOLECULE
3R540
247   249    1
SMALL
USER_CHARGES


@<TRIPOS>ATOM
      1 CA          4.8422  -13.2947  -44.4629 C.3       0 UNK        -0.1800 
      2 C           3.8552  -13.8837  -45.4589 C.2       0 UNK         0.5000 
      3 O           2.6735  -14.0267  -45.1450 O.2       0 UNK        -0.5000 
      4 N           4.3198  -14.2216  -46.6668 N.am      1 UNK        -0.5000 
      5 CA          3.5242  -14.8347  -47.7376 C.3       1 UNK         0.1400 
      6 C6          4.3581  -15.8165  -48.6010 C.3       23 UNK        -0.0398 
      7 S7          5.1327  -17.1493  -47.6147 S.3       23 UNK        -0.2404 
      8 C8          3.7264  -18.2297  -47.1881 C.3       23 UNK        -0.0205 
      9 C9          3.3875  -19.2196  -48.2937 C.ar      23 UNK        -0.0193 
     10 C10         2.5784  -18.8426  -49.3704 C.ar      23 UNK        -0.1150 
     11 C11         2.2710  -19.7567  -50.3806 C.ar      23 UNK        -0.0193 
     12 C12         2.7469  -21.0676  -50.2882 C.ar      23 UNK        -0.1150 
     13 C13         3.5391  -21.4702  -49.2091 C.ar      23 UNK        -0.0193 
     14 C14         3.8676  -20.5311  -48.2231 C.ar      23 UNK        -0.1150 
     15 C15         4.0634  -22.9062  -49.1789 C.3       23 UNK        -0.0205 
     16 S16         4.4326  -23.5734  -47.5182 S.3       23 UNK        -0.2404 
     17 C17         2.7765  -23.7400  -46.7692 C.3       23 UNK        -0.0398 
     18 CA          2.4879  -25.1907  -46.2943 C.3       11 UNK         0.1400 
     19 N           1.6923  -25.1953  -45.0631 N.am      11 UNK        -0.5000 
     20 C           1.6650  -26.1976  -44.1734 C.2       10 UNK         0.5000 
     21 O           2.3600  -27.2111  -44.2710 O.2       10 UNK        -0.5000 
     22 CA          0.6966  -26.0377  -42.9790 C.3       10 UNK         0.1400 
     23 CB          1.1082  -26.8827  -41.7549 C.3       10 UNK        -0.1800 
     24 N           0.4638  -24.6405  -42.5905 N.am      10 UNK        -0.5000 
     25 C           1.3749  -23.7540  -42.1631 C.2       9 UNK         0.5000 
     26 O           2.5742  -23.9997  -42.0215 O.2       9 UNK        -0.5000 
     27 CA          0.8516  -22.3316  -41.8925 C.3       9 UNK         0.1400 
     28 CB          1.4160  -21.7562  -40.5832 C.3       9 UNK        -0.1800 
     29 N           1.1816  -21.4239  -42.9891 N.am      9 UNK        -0.5000 
     30 C           0.7257  -21.5074  -44.2439 C.2       8 UNK         0.5000 
     31 O          -0.0494  -22.3872  -44.6267 O.2       8 UNK        -0.5000 
     32 CA          1.1872  -20.4025  -45.2172 C.3       8 UNK         0.1400 
     33 CB          0.5108  -20.5146  -46.5929 C.3       8 UNK        -0.1800 
     34 N           0.9076  -19.0699  -44.6858 N.am      8 UNK        -0.5000 
     35 C           1.6327  -18.4025  -43.7820 C.2       7 UNK         0.5000 
     36 O           2.6518  -18.8660  -43.2672 O.2       7 UNK        -0.5000 
     37 CA          1.1269  -16.9933  -43.3998 C.3       7 UNK         0.1400 
     38 CB          2.1204  -16.2348  -42.5018 C.3       7 UNK        -0.1800 
     39 N           0.8398  -16.1687  -44.5750 N.am      7 UNK        -0.5000 
     40 C          -0.2316  -16.2701  -45.3707 C.2       6 UNK         0.5000 
     41 O          -1.1420  -17.0840  -45.1997 O.2       6 UNK        -0.5000 
     42 CA         -0.2392  -15.3594  -46.6084 C.3       6 UNK         0.1400 
     43 CB          0.0342  -16.1850  -47.8756 C.3       6 UNK        -0.1800 
     44 N          -1.4719  -14.5907  -46.7652 N.am      6 UNK        -0.5000 
     45 C          -1.9255  -13.6898  -45.8787 C.2       5 UNK         0.5000 
     46 O          -1.3455  -13.4325  -44.8227 O.2       5 UNK        -0.5000 
     47 CA         -3.2164  -12.9224  -46.2294 C.3       5 UNK         0.1400 
     48 CB         -3.1360  -11.4471  -45.7966 C.3       5 UNK        -0.1800 
     49 N          -3.4919  -12.9631  -47.6632 N.am      5 UNK        -0.5000 
     50 C          -4.4829  -13.6467  -48.2477 C.2       4 UNK         0.5000 
     51 O          -5.3098  -14.3191  -47.6317 O.2       4 UNK        -0.5000 
     52 CA         -4.5640  -13.5812  -49.7861 C.3       4 UNK         0.1400 
     53 CB         -5.6317  -12.5673  -50.2234 C.3       4 UNK        -0.1800 
     54 N          -3.2956  -13.2463  -50.4424 N.am      4 UNK        -0.5000 
     55 C          -2.1805  -13.9887  -50.3978 C.2       3 UNK         0.5000 
     56 O          -2.1158  -15.0651  -49.8079 O.2       3 UNK        -0.5000 
     57 CA         -0.9230  -13.4389  -51.1049 C.3       3 UNK         0.1400 
     58 CB         -1.2258  -12.3101  -52.1146 C.3       3 UNK        -0.1800 
     59 N           0.1160  -12.9992  -50.1646 N.am      3 UNK        -0.5000 
     60 C          -0.0139  -12.1428  -49.1415 C.2       2 UNK         0.5000 
     61 O          -1.0934  -11.6595  -48.7927 O.2       2 UNK        -0.5000 
     62 CA          1.2831  -11.7504  -48.3951 C.3       2 UNK         0.1400 
     63 CB          1.0138  -10.7869  -47.2245 C.3       2 UNK        -0.1800 
     64 N           2.0400  -12.8904  -47.8742 N.am      2 UNK        -0.5000 
     65 C           2.7856  -13.7594  -48.5687 C.2       1 UNK         0.5000 
     66 O           2.8967  -13.7263  -49.7950 O.2       1 UNK        -0.5000 
     67 C           1.8232  -26.0506  -47.3954 C.2       11 UNK         0.5000 
     68 O           0.7369  -26.5972  -47.1909 O.2       11 UNK        -0.5000 
     69 N           2.4690  -26.1282  -48.5678 N.am      12 UNK        -0.5000 
     70 CA          1.9590  -26.8054  -49.7679 C.3       12 UNK         0.1400 
     71 CB          3.0357  -26.7612  -50.8627 C.3       12 UNK        -0.1800 
     72 C           0.6307  -26.2181  -50.2933 C.2       12 UNK         0.5000 
     73 O          -0.1809  -26.9530  -50.8563 O.2       12 UNK        -0.5000 
     74 N           0.4256  -24.9166  -50.0600 N.am      13 UNK        -0.5000 
     75 CA         -0.8227  -24.1933  -50.2718 C.3       13 UNK         0.1400 
     76 CB         -0.5736  -23.0464  -51.2656 C.3       13 UNK        -0.1800 
     77 C          -1.3073  -23.6974  -48.8999 C.2       13 UNK         0.5000 
     78 O          -1.3207  -22.4921  -48.6452 O.2       13 UNK        -0.5000 
     79 N          -1.6459  -24.6513  -48.0213 N.am      14 UNK        -0.5000 
     80 CA         -2.0147  -24.4504  -46.6173 C.3       14 UNK         0.1400 
     81 CB         -2.4740  -25.7865  -46.0139 C.3       14 UNK        -0.1800 
     82 C          -3.0940  -23.3723  -46.4079 C.2       14 UNK         0.5000 
     83 O          -4.1580  -23.4472  -47.0271 O.2       14 UNK        -0.5000 
     84 N          -2.7816  -22.3840  -45.5584 N.am      15 UNK        -0.5000 
     85 CA         -3.6120  -21.2209  -45.2203 C.3       15 UNK         0.1400 
     86 CB         -4.8373  -21.6564  -44.3900 C.3       15 UNK        -0.1800 
     87 C          -3.9941  -20.3780  -46.4569 C.2       15 UNK         0.5000 
     88 O          -5.1414  -19.9498  -46.5863 O.2       15 UNK        -0.5000 
     89 N          -3.0243  -20.1983  -47.3644 N.am      16 UNK        -0.5000 
     90 CA         -3.1324  -19.5268  -48.6620 C.3       16 UNK         0.1400 
     91 CB         -3.5152  -18.0412  -48.4925 C.3       16 UNK        -0.1800 
     92 C          -4.0732  -20.2852  -49.6183 C.2       16 UNK         0.5000 
     93 O          -4.8718  -19.6629  -50.3197 O.2       16 UNK        -0.5000 
     94 N          -3.9765  -21.6216  -49.6010 N.am      17 UNK        -0.5000 
     95 CA         -4.8703  -22.5915  -50.2452 C.3       17 UNK         0.1400 
     96 CB         -4.7184  -22.5580  -51.7799 C.3       17 UNK        -0.1800 
     97 C          -6.3301  -22.4299  -49.7712 C.2       17 UNK         0.5000 
     98 O          -7.2486  -22.3846  -50.5898 O.2       17 UNK        -0.5000 
     99 N          -6.4964  -22.3203  -48.4450 N.am      18 UNK        -0.5000 
    100 CA        -7.7389  -22.0233  -47.7260 C.3       18 UNK         0.1400 
    101 CB        -8.7286  -23.2020  -47.8334 C.3       18 UNK        -0.1800 
    102 C         -8.3494  -20.6690  -48.1496 C.2       18 UNK         0.5000 
    103 O         -9.5081  -20.6096  -48.5663 O.2       18 UNK        -0.5000 
    104 N         -7.5379  -19.6082  -48.0277 N.am      19 UNK        -0.5000 
    105 CA        -7.8463  -18.2060  -48.3288 C.3       19 UNK         0.1400 
    106 CB        -8.8921  -17.6553  -47.3368 C.3       19 UNK        -0.1800 
    107 C         -8.2220  -17.9599  -49.8066 C.2       19 UNK         0.5000 
    108 O         -9.1541  -17.2058  -50.0922 O.2       19 UNK        -0.5000 
    109 N         -7.4738  -18.5892  -50.7202 N.am      20 UNK        -0.5000 
    110 CA        -7.6225  -18.4741  -52.1732 C.3       20 UNK         0.1400 
    111 CB        -7.9056  -19.8696  -52.7532 C.3       20 UNK        -0.1800 
    112 C         -6.3747  -17.8362  -52.8170 C.2       20 UNK         0.5000 
    113 O         -6.1655  -17.9867  -54.0220 O.2       20 UNK        -0.5000 
    114 N         -5.5488  -17.1614  -52.0019 N.am      21 UNK        -0.5000 
    115 CA        -4.2928  -16.4896  -52.3585 C.3       21 UNK         0.1400 
    116 CB        -4.5758  -15.2292  -53.2016 C.3       21 UNK        -0.1800 
    117 C         -3.2509  -17.4253  -53.0056 C.2       21 UNK         0.5000 
    118 O         -2.5066  -17.0025  -53.8915 O.2       21 UNK        -0.5000 
    119 N         -3.2449  -18.6877  -52.5593 N.am      22 UNK        -0.5000 
    120 CA        -2.4586  -19.8060  -53.1052 C.3       22 UNK         0.1400 
    121 C         -2.9155  -20.2852  -54.5191 C.2       22 UNK         0.5000 
    122 N         -4.0618  -19.8593  -55.0390 N.am      22 UNK        -0.7600 
    123 O         -2.2369  -21.0914  -55.1491 O.2       22 UNK        -0.5000 
    124 C124       -0.9198  -19.5985  -53.0111 C.3       23 UNK        -0.0398 
    125 S125       -0.3253  -19.3998  -51.2975 S.3       23 UNK        -0.2404 
    126 C126        1.4663  -19.3211  -51.5960 C.3       23 UNK        -0.0205 
    127 H127        5.8494  -13.2379  -44.8761 H         1 UNK         0.0600 
    128 H128        4.8765  -13.9095  -43.5635 H         1 UNK         0.0600 
    129 H129        4.5319  -12.2893  -44.1787 H         1 UNK         0.0600 
    130 H130        5.2946  -14.0668  -46.8825 H         1 UNK         0.3000 
    131 H131        2.7370  -15.4259  -47.2734 H         1 UNK         0.0600 
    132 H132        5.1559  -15.2768  -49.1137 H         1 UNK         0.0800 
    133 H133        3.7521  -16.2610  -49.3892 H         1 UNK         0.0800 
    134 H134        3.9889  -18.7746  -46.2799 H         1 UNK         0.0800 
    135 H135        2.8500  -17.6431  -46.9219 H         1 UNK         0.0800 
    136 H136        2.1911  -17.8375  -49.4357 H         1 UNK         0.1150 
    137 H137        2.5149  -21.7733  -51.0733 H         1 UNK         0.1150 
    138 H138        4.5006  -20.8140  -47.3948 H         1 UNK         0.1150 
    139 H139        3.3577  -23.5709  -49.6775 H         1 UNK         0.0800 
    140 H140        4.9805  -22.9392  -49.7682 H         1 UNK         0.0800 
    141 H141        2.0044  -23.3723  -47.4467 H         1 UNK         0.0800 
    142 H142        2.7701  -23.0579  -45.9186 H         1 UNK         0.0800 
    143 H143        3.4403  -25.6703  -46.0568 H         1 UNK         0.0600 
    144 H144        1.0746  -24.4085  -44.9159 H         1 UNK         0.3000 
    145 H145       -0.2649  -26.4172  -43.3280 H         1 UNK         0.0600 
    146 H146        1.1354  -27.9445  -42.0023 H         1 UNK         0.0600 
    147 H147        2.0972  -26.6080  -41.3870 H         1 UNK         0.0600 
    148 H148        0.3997  -26.7612  -40.9356 H         1 UNK         0.0600 
    149 H149       -0.4840  -24.3127  -42.7149 H         1 UNK         0.3000 
    150 H150       -0.2359  -22.3688  -41.7988 H         1 UNK         0.0600 
    151 H151        0.9785  -20.7828  -40.3601 H         1 UNK         0.0600 
    152 H152        2.4988  -21.6328  -40.6288 H         1 UNK         0.0600 
    153 H153        1.1947  -22.4130  -39.7410 H         1 UNK         0.0600 
    154 H154        1.8283  -20.6716  -42.7780 H         1 UNK         0.3000 
    155 H155        2.2642  -20.5125  -45.3582 H         1 UNK         0.0600 
    156 H156       -0.5711  -20.4920  -46.4975 H         1 UNK         0.0600 
    157 H157        0.7768  -21.4432  -47.0957 H         1 UNK         0.0600 
    158 H158        0.7978  -19.6958  -47.2510 H         1 UNK         0.0600 
    159 H159        0.0602  -18.6181  -45.0161 H         1 UNK         0.3000 
    160 H160        0.2017  -17.1271  -42.8356 H         1 UNK         0.0600 
    161 H161        2.3119  -16.7808  -41.5772 H         1 UNK         0.0600 
    162 H162        1.7317  -15.2548  -42.2242 H         1 UNK         0.0600 
    163 H163        3.0783  -16.0842  -43.0014 H         1 UNK         0.0600 
    164 H164        1.5292  -15.4488  -44.7811 H         1 UNK         0.3000 
    165 H165        0.5636  -14.6347  -46.4960 H         1 UNK         0.0600 
    166 H166        0.2649  -15.5446  -48.7258 H         1 UNK         0.0600 
    167 H167        0.8788  -16.8563  -47.7375 H         1 UNK         0.0600 
    168 H168       -0.8172  -16.8066  -48.1473 H         1 UNK         0.0600 
    169 H169       -1.9963  -14.7509  -47.6165 H         1 UNK         0.3000 
    170 H170       -4.0255  -13.3948  -45.6693 H         1 UNK         0.0600 
    171 H171       -4.0511  -10.9122  -46.0511 H         1 UNK         0.0600 
    172 H172       -3.0001  -11.3571  -44.7183 H         1 UNK         0.0600 
    173 H173       -2.3031  -10.9334  -46.2787 H         1 UNK         0.0600 
    174 H174       -2.8243  -12.4665  -48.2476 H         1 UNK         0.3000 
    175 H175       -4.8754  -14.5682  -50.1289 H         1 UNK         0.0600 
    176 H176       -5.3734  -11.5541  -49.9127 H         1 UNK         0.0600 
    177 H177       -5.7572  -12.5646  -51.3062 H         1 UNK         0.0600 
    178 H178       -6.6018  -12.8076  -49.7862 H         1 UNK         0.0600 
    179 H179       -3.2573  -12.3566  -50.9180 H         1 UNK         0.3000 
    180 H180       -0.5020  -14.2765  -51.6630 H         1 UNK         0.0600 
    181 H181       -0.3292  -12.0412  -52.6733 H         1 UNK         0.0600 
    182 H182       -1.5893  -11.4052  -51.6262 H         1 UNK         0.0600 
    183 H183       -1.9738  -12.6221  -52.8448 H         1 UNK         0.0600 
    184 H184        1.0486  -13.3645  -50.3340 H         1 UNK         0.3000 
    185 H185        1.9131  -11.2262  -49.1164 H         1 UNK         0.0600 
    186 H186        0.3946  -11.2526  -46.4563 H         1 UNK         0.0600 
    187 H187        1.9440  -10.4656  -46.7554 H         1 UNK         0.0600 
    188 H188        0.4977   -9.8879  -47.5641 H         1 UNK         0.0600 
    189 H189        2.0216  -13.0061  -46.8675 H         1 UNK         0.3000 
    190 H190        3.3721  -25.6828  -48.6530 H         1 UNK         0.3000 
    191 H191        1.7756  -27.8498  -49.5076 H         1 UNK         0.0600 
    192 H192        3.2776  -25.7373  -51.1504 H         1 UNK         0.0600 
    193 H193        2.7010  -27.2833  -51.7602 H         1 UNK         0.0600 
    194 H194        3.9555  -27.2442  -50.5323 H         1 UNK         0.0600 
    195 H195        1.1437  -24.4089  -49.5672 H         1 UNK         0.3000 
    196 H196       -1.5974  -24.8443  -50.6821 H         1 UNK         0.0600 
    197 H197       -0.2697  -23.4261  -52.2409 H         1 UNK         0.0600 
    198 H198        0.2046  -22.3720  -50.9105 H         1 UNK         0.0600 
    199 H199       -1.4746  -22.4521  -51.4107 H         1 UNK         0.0600 
    200 H200       -1.5648  -25.6143  -48.3143 H         1 UNK         0.3000 
    201 H201       -1.1043  -24.1484  -46.1011 H         1 UNK         0.0600 
    202 H202       -1.6873  -26.5387  -46.0648 H         1 UNK         0.0600 
    203 H203       -3.3491  -26.1803  -46.5323 H         1 UNK         0.0600 
    204 H204       -2.7398  -25.6695  -44.9625 H         1 UNK         0.0600 
    205 H205       -1.8561  -22.3998  -45.1350 H         1 UNK         0.3000 
    206 H206       -2.9976  -20.5751  -44.5912 H         1 UNK         0.0600 
    207 H207       -5.4003  -20.7906  -44.0393 H         1 UNK         0.0600 
    208 H208       -5.5208  -22.2777  -44.9693 H         1 UNK         0.0600 
    209 H209       -4.5344  -22.2233  -43.5098 H         1 UNK         0.0600 
    210 H210       -2.1457  -20.6730  -47.2075 H         1 UNK         0.3000 
    211 H211       -2.1364  -19.5669  -49.1001 H         1 UNK         0.0600 
    212 H212       -4.5621  -17.9166  -48.2190 H         1 UNK         0.0600 
    213 H213       -3.3514  -17.4929  -49.4197 H         1 UNK         0.0600 
    214 H214       -2.9184  -17.5616  -47.7177 H         1 UNK         0.0600 
    215 H215       -3.2649  -22.0165  -48.9957 H         1 UNK         0.3000 
    216 H216       -4.5512  -23.5782  -49.9063 H         1 UNK         0.0600 
    217 H217       -5.3672  -23.2955  -52.2535 H         1 UNK         0.0600 
    218 H218       -3.6996  -22.7957  -52.0810 H         1 UNK         0.0600 
    219 H219       -4.9763  -21.5845  -52.1953 H         1 UNK         0.0600 
    220 H220       -5.6692  -22.4253  -47.8650 H         1 UNK         0.3000 
    221 H221       -7.4659  -21.9211  -46.6747 H         1 UNK         0.0600 
    222 H222       -9.0727  -23.3544  -48.8567 H         1 UNK         0.0600 
    223 H223       -8.2721  -24.1308  -47.4914 H         1 UNK         0.0600 
    224 H224       -9.6100  -23.0267  -47.2157 H         1 UNK         0.0600 
    225 H225       -6.6105  -19.7700  -47.6367 H         1 UNK         0.3000 
    226 H226       -6.9226  -17.6520  -48.1598 H         1 UNK         0.0600 
    227 H227       -8.5799  -17.8189  -46.3053 H         1 UNK         0.0600 
    228 H228       -9.0263  -16.5808  -47.4666 H         1 UNK         0.0600 
    229 H229       -9.8666  -18.1255  -47.4715 H         1 UNK         0.0600 
    230 H230       -6.6955  -19.1669  -50.4094 H         1 UNK         0.3000 
    231 H231       -8.4659  -17.8279  -52.4227 H         1 UNK         0.0600 
    232 H232       -7.0533  -20.5359  -52.6227 H         1 UNK         0.0600 
    233 H233       -8.7661  -20.3311  -52.2683 H         1 UNK         0.0600 
    234 H234       -8.1228  -19.8180  -53.8206 H         1 UNK         0.0600 
    235 H235       -5.7913  -17.1494  -51.0223 H         1 UNK         0.3000 
    236 H236       -3.8484  -16.1732  -51.4183 H         1 UNK         0.0600 
    237 H237       -4.9582  -15.4841  -54.1904 H         1 UNK         0.0600 
    238 H238       -5.3085  -14.5853  -52.7165 H         1 UNK         0.0600 
    239 H239       -3.6695  -14.6394  -53.3421 H         1 UNK         0.0600 
    240 H240       -3.9155  -18.9395  -51.8397 H         1 UNK         0.3000 
    241 H241       -2.6939  -20.6471  -52.4561 H         1 UNK         0.0600 
    242 H242       -4.3394  -20.1943  -55.9475 H         1 UNK         0.3800 
    243 H243       -4.6512  -19.1885  -54.5579 H         1 UNK         0.3800 
    244 H244       -0.4009  -20.4634  -53.4275 H         1 UNK         0.0800 
    245 H245       -0.6005  -18.7411  -53.6041 H         1 UNK         0.0800 
    246 H246        1.7281  -19.9509  -52.4475 H         1 UNK         0.0800 
    247 H247        1.7363  -18.3024  -51.8781 H         1 UNK         0.0800 
@<TRIPOS>BOND
     1    1    2 1    
     2    1  127 1    
     3    1  128 1    
     4    1  129 1    
     5    2    3 2    
     6    2    4 am   BACKBONE|DICT|INTERRES
     7    4    5 1    
     8    4  130 1    
     9    5    6 1    
    10    5   65 1    
    11    5  131 1    
    12    6    7 1    
    13    6  132 1    
    14    6  133 1    
    15    7    8 1    
    16    8    9 1    
    17    8  134 1    
    18    8  135 1    
    19    9   10 ar   
    20    9   14 ar   
    21   10   11 ar   
    22   10  136 1    
    23   11   12 ar   
    24   11  126 1    
    25   12   13 ar   
    26   12  137 1    
    27   13   14 ar   
    28   13   15 1    
    29   14  138 1    
    30   15   16 1    
    31   15  139 1    
    32   15  140 1    
    33   16   17 1    
    34   17   18 1    
    35   17  141 1    
    36   17  142 1    
    37   18   19 1    
    38   18   67 1    
    39   18  143 1    
    40   19   20 am   BACKBONE|DICT|INTERRES
    41   19  144 1    
    42   20   21 2    
    43   20   22 1    
    44   22   23 1    
    45   22   24 1    
    46   22  145 1    
    47   23  146 1    
    48   23  147 1    
    49   23  148 1    
    50   24   25 am   BACKBONE|DICT|INTERRES
    51   24  149 1    
    52   25   26 2    
    53   25   27 1    
    54   27   28 1    
    55   27   29 1    
    56   27  150 1    
    57   28  151 1    
    58   28  152 1    
    59   28  153 1    
    60   29   30 am   BACKBONE|DICT|INTERRES
    61   29  154 1    
    62   30   31 2    
    63   30   32 1    
    64   32   33 1    
    65   32   34 1    
    66   32  155 1    
    67   33  156 1    
    68   33  157 1    
    69   33  158 1    
    70   34   35 am   BACKBONE|DICT|INTERRES
    71   34  159 1    
    72   35   36 2    
    73   35   37 1    
    74   37   38 1    
    75   37   39 1    
    76   37  160 1    
    77   38  161 1    
    78   38  162 1    
    79   38  163 1    
    80   39   40 am   BACKBONE|DICT|INTERRES
    81   39  164 1    
    82   40   41 2    
    83   40   42 1    
    84   42   43 1    
    85   42   44 1    
    86   42  165 1    
    87   43  166 1    
    88   43  167 1    
    89   43  168 1    
    90   44   45 am   BACKBONE|DICT|INTERRES
    91   44  169 1    
    92   45   46 2    
    93   45   47 1    
    94   47   48 1    
    95   47   49 1    
    96   47  170 1    
    97   48  171 1    
    98   48  172 1    
    99   48  173 1    
   100   49   50 am   BACKBONE|DICT|INTERRES
   101   49  174 1    
   102   50   51 2    
   103   50   52 1    
   104   52   53 1    
   105   52   54 1    
   106   52  175 1    
   107   53  176 1    
   108   53  177 1    
   109   53  178 1    
   110   54   55 am   BACKBONE|DICT|INTERRES
   111   54  179 1    
   112   55   56 2    
   113   55   57 1    
   114   57   58 1    
   115   57   59 1    
   116   57  180 1    
   117   58  181 1    
   118   58  182 1    
   119   58  183 1    
   120   59   60 am   BACKBONE|DICT|INTERRES
   121   59  184 1    
   122   60   61 2    
   123   60   62 1    
   124   62   63 1    
   125   62   64 1    
   126   62  185 1    
   127   63  186 1    
   128   63  187 1    
   129   63  188 1    
   130   64   65 am   BACKBONE|DICT|INTERRES
   131   64  189 1    
   132   65   66 2    
   133   67   68 2    
   134   67   69 am   BACKBONE|DICT|INTERRES
   135   69   70 1    
   136   69  190 1    
   137   70   71 1    
   138   70   72 1    
   139   70  191 1    
   140   71  192 1    
   141   71  193 1    
   142   71  194 1    
   143   72   73 2    
   144   72   74 am   BACKBONE|DICT|INTERRES
   145   74   75 1    
   146   74  195 1    
   147   75   76 1    
   148   75   77 1    
   149   75  196 1    
   150   76  197 1    
   151   76  198 1    
   152   76  199 1    
   153   77   78 2    
   154   77   79 am   BACKBONE|DICT|INTERRES
   155   79   80 1    
   156   79  200 1    
   157   80   81 1    
   158   80   82 1    
   159   80  201 1    
   160   81  202 1    
   161   81  203 1    
   162   81  204 1    
   163   82   83 2    
   164   82   84 am   BACKBONE|DICT|INTERRES
   165   84   85 1    
   166   84  205 1    
   167   85   86 1    
   168   85   87 1    
   169   85  206 1    
   170   86  207 1    
   171   86  208 1    
   172   86  209 1    
   173   87   88 2    
   174   87   89 am   BACKBONE|DICT|INTERRES
   175   89   90 1    
   176   89  210 1    
   177   90   91 1    
   178   90   92 1    
   179   90  211 1    
   180   91  212 1    
   181   91  213 1    
   182   91  214 1    
   183   92   93 2    
   184   92   94 am   BACKBONE|DICT|INTERRES
   185   94   95 1    
   186   94  215 1    
   187   95   96 1    
   188   95   97 1    
   189   95  216 1    
   190   96  217 1    
   191   96  218 1    
   192   96  219 1    
   193   97   98 2    
   194   97   99 am   BACKBONE|DICT|INTERRES
   195   99  100 1    
   196   99  220 1    
   197  100  101 1    
   198  100  102 1    
   199  100  221 1    
   200  101  222 1    
   201  101  223 1    
   202  101  224 1    
   203  102  103 2    
   204  102  104 am   BACKBONE|DICT|INTERRES
   205  104  105 1    
   206  104  225 1    
   207  105  106 1    
   208  105  107 1    
   209  105  226 1    
   210  106  227 1    
   211  106  228 1    
   212  106  229 1    
   213  107  108 2    
   214  107  109 am   BACKBONE|DICT|INTERRES
   215  109  110 1    
   216  109  230 1    
   217  110  111 1    
   218  110  112 1    
   219  110  231 1    
   220  111  232 1    
   221  111  233 1    
   222  111  234 1    
   223  112  113 2    
   224  112  114 am   BACKBONE|DICT|INTERRES
   225  114  115 1    
   226  114  235 1    
   227  115  116 1    
   228  115  117 1    
   229  115  236 1    
   230  116  237 1    
   231  116  238 1    
   232  116  239 1    
   233  117  118 2    
   234  117  119 am   BACKBONE|DICT|INTERRES
   235  119  120 1    
   236  119  240 1    
   237  120  121 1    
   238  120  124 1    
   239  120  241 1    
   240  121  122 am   BACKBONE|DICT|INTERRES
   241  121  123 2    
   242  122  242 1    
   243  122  243 1    
   244  124  125 1    
   245  124  244 1    
   246  124  245 1    
   247  125  126 1    
   248  126  246 1    
   249  126  247 1    
@<TRIPOS>SUBSTRUCTURE
     1 UNK         1 GROUP             0       ****    0 ROOT    
