@<TRIPOS>MOLECULE
3R540
247   249    1
SMALL
USER_CHARGES


@<TRIPOS>ATOM
      1 CA          3.6401  -15.2064  -50.0148 C.3       0 UNK        -0.1800 
      2 C           2.7389  -14.3844  -49.1042 C.2       0 UNK         0.5000 
      3 O           2.3149  -13.2947  -49.4872 O.2       0 UNK        -0.5000 
      4 N           2.4503  -14.9053  -47.9020 N.am      1 UNK        -0.5000 
      5 CA          1.6023  -14.2928  -46.8637 C.3       1 UNK         0.1400 
      6 C6          0.1089  -14.1469  -47.2675 C.3       23 UNK        -0.0398 
      7 S7         -0.6592  -15.7683  -47.6144 S.3       23 UNK        -0.2404 
      8 C8         -0.7194  -15.7690  -49.4344 C.3       23 UNK        -0.0205 
      9 C9         -0.4676  -17.1591  -49.9974 C.ar      23 UNK        -0.0193 
     10 C10        -1.4953  -17.8789  -50.6129 C.ar      23 UNK        -0.1150 
     11 C11        -1.2551  -19.1514  -51.1412 C.ar      23 UNK        -0.0193 
     12 C12         0.0306  -19.6999  -51.0485 C.ar      23 UNK        -0.1150 
     13 C13         1.0712  -18.9823  -50.4513 C.ar      23 UNK        -0.0193 
     14 C14         0.8104  -17.7176  -49.9211 C.ar      23 UNK        -0.1150 
     15 C15         2.4901  -19.5371  -50.4276 C.3       23 UNK        -0.0205 
     16 S16         2.6449  -21.1040  -49.5153 S.3       23 UNK        -0.2404 
     17 C17         2.3268  -20.5915  -47.7912 C.3       23 UNK        -0.0398 
     18 CA          1.6168  -21.7124  -46.9911 C.3       11 UNK         0.1400 
     19 N           1.7357  -21.5201  -45.5457 N.am      11 UNK        -0.5000 
     20 C           1.9680  -22.5106  -44.6727 C.2       10 UNK         0.5000 
     21 O           1.9936  -23.7030  -44.9779 O.2       10 UNK        -0.5000 
     22 CA          2.2487  -22.1040  -43.2159 C.3       10 UNK         0.1400 
     23 CB          3.5837  -21.3512  -43.0914 C.3       10 UNK        -0.1800 
     24 N           1.1719  -21.2871  -42.6683 N.am      10 UNK        -0.5000 
     25 C           0.0329  -21.7798  -42.1644 C.2       9 UNK         0.5000 
     26 O          -0.2002  -22.9835  -42.0518 O.2       9 UNK        -0.5000 
     27 CA         -1.0289  -20.7604  -41.7059 C.3       9 UNK         0.1400 
     28 CB         -0.9059  -20.5034  -40.1965 C.3       9 UNK        -0.1800 
     29 N          -0.9592  -19.4847  -42.4229 N.am      9 UNK        -0.5000 
     30 C          -1.2037  -19.3431  -43.7328 C.2       8 UNK         0.5000 
     31 O          -1.5638  -20.2704  -44.4540 O.2       8 UNK        -0.5000 
     32 CA         -0.9402  -17.9587  -44.3548 C.3       8 UNK         0.1400 
     33 CB         -2.1354  -17.0220  -44.1374 C.3       8 UNK        -0.1800 
     34 N           0.2806  -17.3400  -43.8360 N.am      8 UNK        -0.5000 
     35 C           1.5123  -17.8306  -44.0323 C.2       7 UNK         0.5000 
     36 O           1.7450  -18.8135  -44.7365 O.2       7 UNK        -0.5000 
     37 CA          2.6712  -17.1535  -43.2815 C.3       7 UNK         0.1400 
     38 CB          3.2907  -16.0133  -44.0993 C.3       7 UNK        -0.1800 
     39 N           2.2556  -16.6508  -41.9731 N.am      7 UNK        -0.5000 
     40 C           2.1541  -17.4146  -40.8777 C.2       6 UNK         0.5000 
     41 O           2.4360  -18.6126  -40.8501 O.2       6 UNK        -0.5000 
     42 CA          1.6196  -16.7277  -39.6078 C.3       6 UNK         0.1400 
     43 CB          2.7538  -16.0127  -38.8589 C.3       6 UNK        -0.1800 
     44 N           0.5438  -15.7744  -39.8879 N.am      6 UNK        -0.5000 
     45 C          -0.6725  -16.1270  -40.3283 C.2       5 UNK         0.5000 
     46 O          -1.0035  -17.2897  -40.5528 O.2       5 UNK        -0.5000 
     47 CA         -1.6824  -14.9974  -40.6015 C.3       5 UNK         0.1400 
     48 CB         -2.4809  -14.6757  -39.3297 C.3       5 UNK        -0.1800 
     49 N          -1.0860  -13.7652  -41.1180 N.am      5 UNK        -0.5000 
     50 C          -0.3273  -13.6576  -42.2169 C.2       4 UNK         0.5000 
     51 O           0.0101  -14.6166  -42.9153 O.2       4 UNK        -0.5000 
     52 CA          0.1681  -12.2485  -42.5949 C.3       4 UNK         0.1400 
     53 CB         -0.3203  -11.1192  -41.6590 C.3       4 UNK        -0.1800 
     54 N           1.6254  -12.2200  -42.7170 N.am      4 UNK        -0.5000 
     55 C           2.5292  -12.5233  -41.7717 C.2       3 UNK         0.5000 
     56 O           2.2261  -12.8646  -40.6270 O.2       3 UNK        -0.5000 
     57 CA          4.0183  -12.4640  -42.1759 C.3       3 UNK         0.1400 
     58 CB          4.8265  -13.6068  -41.5355 C.3       3 UNK        -0.1800 
     59 N           4.1964  -12.5036  -43.6310 N.am      3 UNK        -0.5000 
     60 C           4.2833  -11.4290  -44.4262 C.2       2 UNK         0.5000 
     61 O           4.2913  -10.2691  -44.0140 O.2       2 UNK        -0.5000 
     62 CA          4.3259  -11.6970  -45.9422 C.3       2 UNK         0.1400 
     63 CB          5.7767  -11.8575  -46.4208 C.3       2 UNK        -0.1800 
     64 N           3.5531  -12.8730  -46.3554 N.am      2 UNK        -0.5000 
     65 C           2.2169  -12.9906  -46.2896 C.2       1 UNK         0.5000 
     66 O           1.4926  -12.1328  -45.7834 O.2       1 UNK        -0.5000 
     67 C           0.1507  -21.8997  -47.4169 C.2       11 UNK         0.5000 
     68 O          -0.2083  -22.9842  -47.8748 O.2       11 UNK        -0.5000 
     69 N          -0.6686  -20.8480  -47.2791 N.am      12 UNK        -0.5000 
     70 CA         -2.0253  -20.7699  -47.8335 C.3       12 UNK         0.1400 
     71 CB         -2.6089  -19.3712  -47.5834 C.3       12 UNK        -0.1800 
     72 C          -2.9889  -21.8566  -47.3244 C.2       12 UNK         0.5000 
     73 O          -3.8260  -22.3318  -48.0888 O.2       12 UNK        -0.5000 
     74 N          -2.8367  -22.2486  -46.0553 N.am      13 UNK        -0.5000 
     75 CA         -3.5954  -23.3258  -45.4226 C.3       13 UNK         0.1400 
     76 CB         -3.4132  -23.2268  -43.9012 C.3       13 UNK        -0.1800 
     77 C          -3.2072  -24.7336  -45.9218 C.2       13 UNK         0.5000 
     78 O          -4.0166  -25.6537  -45.7962 O.2       13 UNK        -0.5000 
     79 N          -1.9873  -24.8879  -46.4544 N.am      14 UNK        -0.5000 
     80 CA         -1.4458  -26.1577  -46.9396 C.3       14 UNK         0.1400 
     81 CB          0.0273  -26.2636  -46.5147 C.3       14 UNK        -0.1800 
     82 C          -1.5725  -26.3022  -48.4662 C.2       14 UNK         0.5000 
     83 O          -1.7594  -27.4197  -48.9500 O.2       14 UNK        -0.5000 
     84 N          -1.4441  -25.1864  -49.1967 N.am      15 UNK        -0.5000 
     85 CA         -1.4787  -25.1124  -50.6564 C.3       15 UNK         0.1400 
     86 CB         -1.1621  -23.6713  -51.0878 C.3       15 UNK        -0.1800 
     87 C          -2.8259  -25.5658  -51.2493 C.2       15 UNK         0.5000 
     88 O          -3.8757  -25.0713  -50.8365 O.2       15 UNK        -0.5000 
     89 N          -2.7725  -26.4672  -52.2388 N.am      16 UNK        -0.5000 
     90 CA         -3.9466  -26.9723  -52.9589 C.3       16 UNK         0.1400 
     91 CB         -3.5539  -28.2375  -53.7366 C.3       16 UNK        -0.1800 
     92 C          -4.5647  -25.9266  -53.9076 C.2       16 UNK         0.5000 
     93 O          -5.7698  -25.9625  -54.1576 O.2       16 UNK        -0.5000 
     94 N          -3.7331  -24.9963  -54.3974 N.am      17 UNK        -0.5000 
     95 CA         -4.1196  -23.8977  -55.2853 C.3       17 UNK         0.1400 
     96 CB         -2.8653  -23.3737  -56.0009 C.3       17 UNK        -0.1800 
     97 C          -4.8721  -22.7550  -54.5729 C.2       17 UNK         0.5000 
     98 O          -5.3350  -21.8309  -55.2443 O.2       17 UNK        -0.5000 
     99 N          -5.0137  -22.8305  -53.2403 N.am      18 UNK        -0.5000 
    100 CA        -5.7256  -21.8619  -52.4015 C.3       18 UNK         0.1400 
    101 CB        -5.5503  -22.2467  -50.9289 C.3       18 UNK        -0.1800 
    102 C         -7.2205  -21.7078  -52.7442 C.2       18 UNK         0.5000 
    103 O         -7.7943  -20.6559  -52.4638 O.2       18 UNK        -0.5000 
    104 N         -7.8081  -22.7138  -53.4090 N.am      19 UNK        -0.5000 
    105 CA        -9.1464  -22.6639  -54.0062 C.3       19 UNK         0.1400 
    106 CB        -9.4982  -24.0573  -54.5484 C.3       19 UNK        -0.1800 
    107 C         -9.2864  -21.6004  -55.1191 C.2       19 UNK         0.5000 
    108 O        -10.3918  -21.1104  -55.3507 O.2       19 UNK        -0.5000 
    109 N         -8.1645  -21.2450  -55.7597 N.am      20 UNK        -0.5000 
    110 CA        -8.0313  -20.1606  -56.7332 C.3       20 UNK         0.1400 
    111 CB        -7.4172  -20.7382  -58.0208 C.3       20 UNK        -0.1800 
    112 C         -7.1719  -19.0121  -56.1607 C.2       20 UNK         0.5000 
    113 O         -6.6098  -18.2283  -56.9288 O.2       20 UNK        -0.5000 
    114 N         -7.0417  -18.9562  -54.8240 N.am      21 UNK        -0.5000 
    115 CA        -6.2406  -18.0130  -54.0320 C.3       21 UNK         0.1400 
    116 CB        -6.8517  -16.5990  -54.1095 C.3       21 UNK        -0.1800 
    117 C         -4.7331  -18.0234  -54.3727 C.2       21 UNK         0.5000 
    118 O         -4.0445  -17.0355  -54.1132 O.2       21 UNK        -0.5000 
    119 N         -4.2526  -19.1289  -54.9599 N.am      22 UNK        -0.5000 
    120 CA        -2.9117  -19.2910  -55.5450 C.3       22 UNK         0.1400 
    121 C         -2.6214  -18.3440  -56.7521 C.2       22 UNK         0.5000 
    122 N         -3.6317  -17.8052  -57.4275 N.am      22 UNK        -0.7600 
    123 O         -1.4687  -18.1168  -57.1100 O.2       22 UNK        -0.5000 
    124 C124       -1.7790  -19.3106  -54.4808 C.3       23 UNK        -0.0398 
    125 S125       -1.9416  -20.7342  -53.3505 S.3       23 UNK        -0.2404 
    126 C126       -2.3996  -19.9284  -51.7836 C.3       23 UNK        -0.0205 
    127 H127        3.1006  -15.4893  -50.9187 H         1 UNK         0.0600 
    128 H128        3.9893  -16.1172  -49.5277 H         1 UNK         0.0600 
    129 H129        4.5128  -14.6219  -50.3061 H         1 UNK         0.0600 
    130 H130        2.8319  -15.8088  -47.6614 H         1 UNK         0.3000 
    131 H131        1.6098  -14.9954  -46.0334 H         1 UNK         0.0600 
    132 H132       -0.4634  -13.7026  -46.4514 H         1 UNK         0.0800 
    133 H133       -0.0094  -13.4741  -48.1175 H         1 UNK         0.0800 
    134 H134       -1.6889  -15.3865  -49.7566 H         1 UNK         0.0800 
    135 H135        0.0268  -15.0889  -49.8443 H         1 UNK         0.0800 
    136 H136       -2.4851  -17.4490  -50.6756 H         1 UNK         0.1150 
    137 H137        0.2279  -20.6825  -51.4534 H         1 UNK         0.1150 
    138 H138        1.6057  -17.1581  -49.4540 H         1 UNK         0.1150 
    139 H139        2.8127  -19.7023  -51.4563 H         1 UNK         0.0800 
    140 H140        3.1874  -18.8124  -50.0043 H         1 UNK         0.0800 
    141 H141        1.7652  -19.6565  -47.7610 H         1 UNK         0.0800 
    142 H142        3.2945  -20.3710  -47.3385 H         1 UNK         0.0800 
    143 H143        2.1317  -22.6420  -47.2463 H         1 UNK         0.0600 
    144 H144        1.7150  -20.5584  -45.2112 H         1 UNK         0.3000 
    145 H145        2.3348  -23.0182  -42.6242 H         1 UNK         0.0600 
    146 H146        3.7995  -21.1047  -42.0515 H         1 UNK         0.0600 
    147 H147        3.5873  -20.4216  -43.6598 H         1 UNK         0.0600 
    148 H148        4.4092  -21.9617  -43.4593 H         1 UNK         0.0600 
    149 H149        1.2825  -20.2850  -42.7225 H         1 UNK         0.3000 
    150 H150       -2.0096  -21.2003  -41.8972 H         1 UNK         0.0600 
    151 H151       -0.9513  -21.4367  -39.6339 H         1 UNK         0.0600 
    152 H152       -1.7170  -19.8696  -39.8378 H         1 UNK         0.0600 
    153 H153        0.0370  -20.0141  -39.9488 H         1 UNK         0.0600 
    154 H154       -0.7348  -18.6643  -41.8668 H         1 UNK         0.3000 
    155 H155       -0.8099  -18.0940  -45.4301 H         1 UNK         0.0600 
    156 H156       -3.0346  -17.4256  -44.6040 H         1 UNK         0.0600 
    157 H157       -1.9532  -16.0402  -44.5753 H         1 UNK         0.0600 
    158 H158       -2.3495  -16.8857  -43.0784 H         1 UNK         0.0600 
    159 H159        0.1693  -16.4822  -43.3029 H         1 UNK         0.3000 
    160 H160        3.4450  -17.9119  -43.1436 H         1 UNK         0.0600 
    161 H161        2.6774  -15.1140  -44.0545 H         1 UNK         0.0600 
    162 H162        3.4146  -16.2972  -45.1450 H         1 UNK         0.0600 
    163 H163        4.2821  -15.7636  -43.7238 H         1 UNK         0.0600 
    164 H164        1.9311  -15.6951  -41.9266 H         1 UNK         0.3000 
    165 H165        1.2200  -17.5066  -38.9545 H         1 UNK         0.0600 
    166 H166        2.3998  -15.5890  -37.9190 H         1 UNK         0.0600 
    167 H167        3.5615  -16.7056  -38.6194 H         1 UNK         0.0600 
    168 H168        3.1807  -15.2031  -39.4511 H         1 UNK         0.0600 
    169 H169        0.7548  -14.7928  -39.7661 H         1 UNK         0.3000 
    170 H170       -2.3836  -15.3573  -41.3552 H         1 UNK         0.0600 
    171 H171       -1.8417  -14.2681  -38.5454 H         1 UNK         0.0600 
    172 H172       -3.2703  -13.9512  -39.5310 H         1 UNK         0.0600 
    173 H173       -2.9589  -15.5718  -38.9312 H         1 UNK         0.0600 
    174 H174       -1.2819  -12.9235  -40.5962 H         1 UNK         0.3000 
    175 H175       -0.2301  -12.0472  -43.5902 H         1 UNK         0.0600 
    176 H176        0.0275  -11.2502  -40.6336 H         1 UNK         0.0600 
    177 H177        0.0394  -10.1498  -42.0042 H         1 UNK         0.0600 
    178 H178       -1.4095  -11.0639  -41.6403 H         1 UNK         0.0600 
    179 H179        1.9634  -11.9962  -43.6444 H         1 UNK         0.3000 
    180 H180        4.4148  -11.5242  -41.7864 H         1 UNK         0.0600 
    181 H181        5.8583  -13.6098  -41.8874 H         1 UNK         0.0600 
    182 H182        4.3932  -14.5829  -41.7486 H         1 UNK         0.0600 
    183 H183        4.8581  -13.4983  -40.4508 H         1 UNK         0.0600 
    184 H184        4.1955  -13.4149  -44.0631 H         1 UNK         0.3000 
    185 H185        3.8973  -10.8254  -46.4413 H         1 UNK         0.0600 
    186 H186        5.8252  -11.9605  -47.5051 H         1 UNK         0.0600 
    187 H187        6.3756  -10.9864  -46.1517 H         1 UNK         0.0600 
    188 H188        6.2532  -12.7330  -45.9779 H         1 UNK         0.0600 
    189 H189        4.0720  -13.6190  -46.7950 H         1 UNK         0.3000 
    190 H190       -0.3217  -20.0160  -46.8276 H         1 UNK         0.3000 
    191 H191       -1.9254  -20.9083  -48.9102 H         1 UNK         0.0600 
    192 H192       -1.9151  -18.5892  -47.8877 H         1 UNK         0.0600 
    193 H193       -2.8493  -19.2130  -46.5326 H         1 UNK         0.0600 
    194 H194       -3.5288  -19.2299  -48.1518 H         1 UNK         0.0600 
    195 H195       -2.1782  -21.7353  -45.4737 H         1 UNK         0.3000 
    196 H196       -4.6532  -23.1766  -45.6491 H         1 UNK         0.0600 
    197 H197       -3.7337  -22.2542  -43.5273 H         1 UNK         0.0600 
    198 H198       -2.3707  -23.3696  -43.6167 H         1 UNK         0.0600 
    199 H199       -4.0023  -23.9856  -43.3847 H         1 UNK         0.0600 
    200 H200       -1.4015  -24.0711  -46.5832 H         1 UNK         0.3000 
    201 H201       -1.9822  -26.9920  -46.4827 H         1 UNK         0.0600 
    202 H202        0.1296  -26.2110  -45.4306 H         1 UNK         0.0600 
    203 H203        0.6312  -25.4631  -46.9441 H         1 UNK         0.0600 
    204 H204        0.4605  -27.2111  -46.8374 H         1 UNK         0.0600 
    205 H205       -1.2330  -24.3190  -48.7121 H         1 UNK         0.3000 
    206 H206       -0.6887  -25.7633  -51.0361 H         1 UNK         0.0600 
    207 H207       -1.8913  -22.9664  -50.6868 H         1 UNK         0.0600 
    208 H208       -0.1757  -23.3608  -50.7420 H         1 UNK         0.0600 
    209 H209       -1.1717  -23.5732  -52.1739 H         1 UNK         0.0600 
    210 H210       -1.8768  -26.8406  -52.5186 H         1 UNK         0.3000 
    211 H211       -4.7093  -27.2454  -52.2263 H         1 UNK         0.0600 
    212 H212       -2.7811  -28.0319  -54.4784 H         1 UNK         0.0600 
    213 H213       -4.4131  -28.6536  -54.2644 H         1 UNK         0.0600 
    214 H214       -3.1799  -29.0120  -53.0666 H         1 UNK         0.0600 
    215 H215       -2.7603  -25.0400  -54.1325 H         1 UNK         0.3000 
    216 H216       -4.7968  -24.2932  -56.0451 H         1 UNK         0.0600 
    217 H217       -3.1177  -22.5819  -56.7069 H         1 UNK         0.0600 
    218 H218       -2.3782  -24.1657  -56.5698 H         1 UNK         0.0600 
    219 H219       -2.1365  -22.9716  -55.2973 H         1 UNK         0.0600 
    220 H220       -4.6109  -23.6229  -52.7596 H         1 UNK         0.3000 
    221 H221       -5.2553  -20.8895  -52.5581 H         1 UNK         0.0600 
    222 H222       -6.0149  -23.2077  -50.7052 H         1 UNK         0.0600 
    223 H223       -4.4953  -22.3200  -50.6672 H         1 UNK         0.0600 
    224 H224       -5.9974  -21.5017  -50.2696 H         1 UNK         0.0600 
    225 H225       -7.2635  -23.5451  -53.5917 H         1 UNK         0.3000 
    226 H226       -9.8572  -22.4102  -53.2171 H         1 UNK         0.0600 
    227 H227       -9.4806  -24.8054  -53.7555 H         1 UNK         0.0600 
    228 H228      -10.4993  -24.0677  -54.9816 H         1 UNK         0.0600 
    229 H229       -8.8003  -24.3745  -55.3245 H         1 UNK         0.0600 
    230 H230       -7.2889  -21.6846  -55.4930 H         1 UNK         0.3000 
    231 H231       -9.0080  -19.7383  -56.9764 H         1 UNK         0.0600 
    232 H232       -7.3545  -19.9809  -58.8031 H         1 UNK         0.0600 
    233 H233       -8.0219  -21.5565  -58.4120 H         1 UNK         0.0600 
    234 H234       -6.4096  -21.1190  -57.8480 H         1 UNK         0.0600 
    235 H235       -7.5398  -19.6465  -54.2742 H         1 UNK         0.3000 
    236 H236       -6.3137  -18.3463  -52.9961 H         1 UNK         0.0600 
    237 H237       -6.7546  -16.1713  -55.1078 H         1 UNK         0.0600 
    238 H238       -7.9106  -16.6128  -53.8516 H         1 UNK         0.0600 
    239 H239       -6.3600  -15.9188  -53.4130 H         1 UNK         0.0600 
    240 H240       -4.8789  -19.9119  -55.1146 H         1 UNK         0.3000 
    241 H241       -2.9260  -20.2796  -56.0029 H         1 UNK         0.0600 
    242 H242       -4.5952  -17.9838  -57.1641 H         1 UNK         0.3800 
    243 H243       -3.4355  -17.2046  -58.2122 H         1 UNK         0.3800 
    244 H244       -1.7495  -18.3763  -53.9192 H         1 UNK         0.0800 
    245 H245       -0.8026  -19.4042  -54.9579 H         1 UNK         0.0800 
    246 H246       -3.2578  -19.2794  -51.9616 H         1 UNK         0.0800 
    247 H247       -2.7355  -20.6951  -51.0871 H         1 UNK         0.0800 
@<TRIPOS>BOND
     1    1    2 1    
     2    1  127 1    
     3    1  128 1    
     4    1  129 1    
     5    2    3 2    
     6    2    4 am   BACKBONE|DICT|INTERRES
     7    4    5 1    
     8    4  130 1    
     9    5    6 1    
    10    5   65 1    
    11    5  131 1    
    12    6    7 1    
    13    6  132 1    
    14    6  133 1    
    15    7    8 1    
    16    8    9 1    
    17    8  134 1    
    18    8  135 1    
    19    9   10 ar   
    20    9   14 ar   
    21   10   11 ar   
    22   10  136 1    
    23   11   12 ar   
    24   11  126 1    
    25   12   13 ar   
    26   12  137 1    
    27   13   14 ar   
    28   13   15 1    
    29   14  138 1    
    30   15   16 1    
    31   15  139 1    
    32   15  140 1    
    33   16   17 1    
    34   17   18 1    
    35   17  141 1    
    36   17  142 1    
    37   18   19 1    
    38   18   67 1    
    39   18  143 1    
    40   19   20 am   BACKBONE|DICT|INTERRES
    41   19  144 1    
    42   20   21 2    
    43   20   22 1    
    44   22   23 1    
    45   22   24 1    
    46   22  145 1    
    47   23  146 1    
    48   23  147 1    
    49   23  148 1    
    50   24   25 am   BACKBONE|DICT|INTERRES
    51   24  149 1    
    52   25   26 2    
    53   25   27 1    
    54   27   28 1    
    55   27   29 1    
    56   27  150 1    
    57   28  151 1    
    58   28  152 1    
    59   28  153 1    
    60   29   30 am   BACKBONE|DICT|INTERRES
    61   29  154 1    
    62   30   31 2    
    63   30   32 1    
    64   32   33 1    
    65   32   34 1    
    66   32  155 1    
    67   33  156 1    
    68   33  157 1    
    69   33  158 1    
    70   34   35 am   BACKBONE|DICT|INTERRES
    71   34  159 1    
    72   35   36 2    
    73   35   37 1    
    74   37   38 1    
    75   37   39 1    
    76   37  160 1    
    77   38  161 1    
    78   38  162 1    
    79   38  163 1    
    80   39   40 am   BACKBONE|DICT|INTERRES
    81   39  164 1    
    82   40   41 2    
    83   40   42 1    
    84   42   43 1    
    85   42   44 1    
    86   42  165 1    
    87   43  166 1    
    88   43  167 1    
    89   43  168 1    
    90   44   45 am   BACKBONE|DICT|INTERRES
    91   44  169 1    
    92   45   46 2    
    93   45   47 1    
    94   47   48 1    
    95   47   49 1    
    96   47  170 1    
    97   48  171 1    
    98   48  172 1    
    99   48  173 1    
   100   49   50 am   BACKBONE|DICT|INTERRES
   101   49  174 1    
   102   50   51 2    
   103   50   52 1    
   104   52   53 1    
   105   52   54 1    
   106   52  175 1    
   107   53  176 1    
   108   53  177 1    
   109   53  178 1    
   110   54   55 am   BACKBONE|DICT|INTERRES
   111   54  179 1    
   112   55   56 2    
   113   55   57 1    
   114   57   58 1    
   115   57   59 1    
   116   57  180 1    
   117   58  181 1    
   118   58  182 1    
   119   58  183 1    
   120   59   60 am   BACKBONE|DICT|INTERRES
   121   59  184 1    
   122   60   61 2    
   123   60   62 1    
   124   62   63 1    
   125   62   64 1    
   126   62  185 1    
   127   63  186 1    
   128   63  187 1    
   129   63  188 1    
   130   64   65 am   BACKBONE|DICT|INTERRES
   131   64  189 1    
   132   65   66 2    
   133   67   68 2    
   134   67   69 am   BACKBONE|DICT|INTERRES
   135   69   70 1    
   136   69  190 1    
   137   70   71 1    
   138   70   72 1    
   139   70  191 1    
   140   71  192 1    
   141   71  193 1    
   142   71  194 1    
   143   72   73 2    
   144   72   74 am   BACKBONE|DICT|INTERRES
   145   74   75 1    
   146   74  195 1    
   147   75   76 1    
   148   75   77 1    
   149   75  196 1    
   150   76  197 1    
   151   76  198 1    
   152   76  199 1    
   153   77   78 2    
   154   77   79 am   BACKBONE|DICT|INTERRES
   155   79   80 1    
   156   79  200 1    
   157   80   81 1    
   158   80   82 1    
   159   80  201 1    
   160   81  202 1    
   161   81  203 1    
   162   81  204 1    
   163   82   83 2    
   164   82   84 am   BACKBONE|DICT|INTERRES
   165   84   85 1    
   166   84  205 1    
   167   85   86 1    
   168   85   87 1    
   169   85  206 1    
   170   86  207 1    
   171   86  208 1    
   172   86  209 1    
   173   87   88 2    
   174   87   89 am   BACKBONE|DICT|INTERRES
   175   89   90 1    
   176   89  210 1    
   177   90   91 1    
   178   90   92 1    
   179   90  211 1    
   180   91  212 1    
   181   91  213 1    
   182   91  214 1    
   183   92   93 2    
   184   92   94 am   BACKBONE|DICT|INTERRES
   185   94   95 1    
   186   94  215 1    
   187   95   96 1    
   188   95   97 1    
   189   95  216 1    
   190   96  217 1    
   191   96  218 1    
   192   96  219 1    
   193   97   98 2    
   194   97   99 am   BACKBONE|DICT|INTERRES
   195   99  100 1    
   196   99  220 1    
   197  100  101 1    
   198  100  102 1    
   199  100  221 1    
   200  101  222 1    
   201  101  223 1    
   202  101  224 1    
   203  102  103 2    
   204  102  104 am   BACKBONE|DICT|INTERRES
   205  104  105 1    
   206  104  225 1    
   207  105  106 1    
   208  105  107 1    
   209  105  226 1    
   210  106  227 1    
   211  106  228 1    
   212  106  229 1    
   213  107  108 2    
   214  107  109 am   BACKBONE|DICT|INTERRES
   215  109  110 1    
   216  109  230 1    
   217  110  111 1    
   218  110  112 1    
   219  110  231 1    
   220  111  232 1    
   221  111  233 1    
   222  111  234 1    
   223  112  113 2    
   224  112  114 am   BACKBONE|DICT|INTERRES
   225  114  115 1    
   226  114  235 1    
   227  115  116 1    
   228  115  117 1    
   229  115  236 1    
   230  116  237 1    
   231  116  238 1    
   232  116  239 1    
   233  117  118 2    
   234  117  119 am   BACKBONE|DICT|INTERRES
   235  119  120 1    
   236  119  240 1    
   237  120  121 1    
   238  120  124 1    
   239  120  241 1    
   240  121  122 am   BACKBONE|DICT|INTERRES
   241  121  123 2    
   242  122  242 1    
   243  122  243 1    
   244  124  125 1    
   245  124  244 1    
   246  124  245 1    
   247  125  126 1    
   248  126  246 1    
   249  126  247 1    
@<TRIPOS>SUBSTRUCTURE
     1 UNK         1 GROUP             0       ****    0 ROOT    
