@<TRIPOS>MOLECULE
3R540
247   249    1
SMALL
USER_CHARGES


@<TRIPOS>ATOM
      1 CA          3.1173  -10.8152  -47.5363 C.3       0 UNK        -0.1800 
      2 C           2.6805  -12.2615  -47.3558 C.2       0 UNK         0.5000 
      3 O           2.1661  -12.6171  -46.2968 O.2       0 UNK        -0.5000 
      4 N           2.8677  -13.0912  -48.3905 N.am      1 UNK        -0.5000 
      5 CA          2.5386  -14.5228  -48.4154 C.3       1 UNK         0.1400 
      6 C6          3.0069  -15.1625  -49.7456 C.3       23 UNK        -0.0398 
      7 S7          3.0071  -16.9848  -49.7392 S.3       23 UNK        -0.2404 
      8 C8          3.2596  -17.2907  -51.5172 C.3       23 UNK        -0.0205 
      9 C9          3.1334  -18.7652  -51.8688 C.ar      23 UNK        -0.0193 
     10 C10         2.1345  -19.2038  -52.7424 C.ar      23 UNK        -0.1150 
     11 C11         2.0283  -20.5562  -53.0800 C.ar      23 UNK        -0.0193 
     12 C12         2.9176  -21.4791  -52.5176 C.ar      23 UNK        -0.1150 
     13 C13         3.9231  -21.0513  -51.6445 C.ar      23 UNK        -0.0193 
     14 C14         4.0352  -19.6913  -51.3412 C.ar      23 UNK        -0.1150 
     15 C15         4.9095  -22.0437  -51.0406 C.3       23 UNK        -0.0205 
     16 S16         4.1993  -23.0408  -49.6864 S.3       23 UNK        -0.2404 
     17 C17         3.5313  -21.7798  -48.5468 C.3       23 UNK        -0.0398 
     18 CA          2.0330  -22.0468  -48.2613 C.3       11 UNK         0.1400 
     19 N           1.8607  -23.0124  -47.1730 N.am      11 UNK        -0.5000 
     20 C           0.7002  -23.5840  -46.8243 C.2       10 UNK         0.5000 
     21 O          -0.3502  -23.4243  -47.4415 O.2       10 UNK        -0.5000 
     22 CA          0.7069  -24.4276  -45.5340 C.3       10 UNK         0.1400 
     23 CB          1.0331  -25.8946  -45.8492 C.3       10 UNK        -0.1800 
     24 N           1.6529  -23.9207  -44.5343 N.am      10 UNK        -0.5000 
     25 C           1.5557  -22.7217  -43.9454 C.2       9 UNK         0.5000 
     26 O           0.6210  -21.9389  -44.1346 O.2       9 UNK        -0.5000 
     27 CA          2.7506  -22.2896  -43.0880 C.3       9 UNK         0.1400 
     28 CB          3.8680  -21.7434  -44.0028 C.3       9 UNK        -0.1800 
     29 N           2.3159  -21.2671  -42.1419 N.am      9 UNK        -0.5000 
     30 C           3.0487  -20.7656  -41.1400 C.2       8 UNK         0.5000 
     31 O           4.1954  -21.1300  -40.8764 O.2       8 UNK        -0.5000 
     32 CA          2.3856  -19.6816  -40.2735 C.3       8 UNK         0.1400 
     33 CB          2.4867  -18.3072  -40.9551 C.3       8 UNK        -0.1800 
     34 N           0.9864  -19.9868  -39.9680 N.am      8 UNK        -0.5000 
     35 C           0.6018  -20.9396  -39.1024 C.2       7 UNK         0.5000 
     36 O           1.3949  -21.6525  -38.4857 O.2       7 UNK        -0.5000 
     37 CA         -0.9091  -21.1282  -38.8515 C.3       7 UNK         0.1400 
     38 CB         -1.3108  -20.4987  -37.5082 C.3       7 UNK        -0.1800 
     39 N          -1.7510  -20.5596  -39.9009 N.am      7 UNK        -0.5000 
     40 C          -1.8971  -21.0691  -41.1306 C.2       6 UNK         0.5000 
     41 O          -1.4038  -22.1384  -41.4869 O.2       6 UNK        -0.5000 
     42 CA         -2.7127  -20.2290  -42.1357 C.3       6 UNK         0.1400 
     43 CB         -4.1349  -20.7925  -42.2805 C.3       6 UNK        -0.1800 
     44 N          -2.8009  -18.8033  -41.8002 N.am      6 UNK        -0.5000 
     45 C          -1.7543  -17.9720  -41.7219 C.2       5 UNK         0.5000 
     46 O          -0.5880  -18.3292  -41.8957 O.2       5 UNK        -0.5000 
     47 CA         -2.0607  -16.5294  -41.2857 C.3       5 UNK         0.1400 
     48 CB         -2.1184  -16.4454  -39.7519 C.3       5 UNK        -0.1800 
     49 N          -1.0538  -15.5859  -41.7672 N.am      5 UNK        -0.5000 
     50 C          -0.9076  -15.2206  -43.0457 C.2       4 UNK         0.5000 
     51 O          -1.6284  -15.6237  -43.9615 O.2       4 UNK        -0.5000 
     52 CA          0.2458  -14.2410  -43.3377 C.3       4 UNK         0.1400 
     53 CB          1.5317  -15.0026  -43.6945 C.3       4 UNK        -0.1800 
     54 N          -0.0753  -13.3182  -44.4240 N.am      4 UNK        -0.5000 
     55 C          -1.0465  -12.3951  -44.3945 C.2       3 UNK         0.5000 
     56 O          -1.7278  -12.1485  -43.3980 O.2       3 UNK        -0.5000 
     57 CA         -1.3030  -11.6133  -45.6957 C.3       3 UNK         0.1400 
     58 CB         -0.4881  -10.3107  -45.7170 C.3       3 UNK        -0.1800 
     59 N          -0.9885  -12.4041  -46.8870 N.am      3 UNK        -0.5000 
     60 C          -1.8004  -13.3313  -47.4152 C.2       2 UNK         0.5000 
     61 O          -2.9293  -13.5712  -46.9869 O.2       2 UNK        -0.5000 
     62 CA         -1.2856  -14.1052  -48.6446 C.3       2 UNK         0.1400 
     63 CB         -1.9580  -13.5886  -49.9257 C.3       2 UNK        -0.1800 
     64 N           0.1668  -14.0263  -48.8117 N.am      2 UNK        -0.5000 
     65 C           1.0413  -14.7873  -48.1388 C.2       1 UNK         0.5000 
     66 O           0.7129  -15.6276  -47.3031 O.2       1 UNK        -0.5000 
     67 C           1.2624  -20.7382  -47.9939 C.2       11 UNK         0.5000 
     68 O           0.6184  -20.2287  -48.9082 O.2       11 UNK        -0.5000 
     69 N           1.2879  -20.2474  -46.7451 N.am      12 UNK        -0.5000 
     70 CA          0.5158  -19.0771  -46.3206 C.3       12 UNK         0.1400 
     71 CB          0.9891  -18.6019  -44.9382 C.3       12 UNK        -0.1800 
     72 C          -0.9969  -19.3588  -46.3259 C.2       12 UNK         0.5000 
     73 O          -1.7673  -18.5292  -46.8069 O.2       12 UNK        -0.5000 
     74 N          -1.3859  -20.5527  -45.8516 N.am      13 UNK        -0.5000 
     75 CA         -2.7617  -21.0554  -45.8831 C.3       13 UNK         0.1400 
     76 CB         -2.8305  -22.4160  -45.1696 C.3       13 UNK        -0.1800 
     77 C          -3.3262  -21.1741  -47.3114 C.2       13 UNK         0.5000 
     78 O          -4.4889  -20.8388  -47.5337 O.2       13 UNK        -0.5000 
     79 N          -2.4894  -21.6407  -48.2470 N.am      14 UNK        -0.5000 
     80 CA         -2.8086  -21.7543  -49.6659 C.3       14 UNK         0.1400 
     81 CB         -1.7747  -22.6641  -50.3438 C.3       14 UNK        -0.1800 
     82 C          -2.8877  -20.3832  -50.3620 C.2       14 UNK         0.5000 
     83 O          -3.8254  -20.1430  -51.1229 O.2       14 UNK        -0.5000 
     84 N          -1.9138  -19.5047  -50.0862 N.am      15 UNK        -0.5000 
     85 CA         -1.8257  -18.1643  -50.6641 C.3       15 UNK         0.1400 
     86 CB         -0.4681  -17.5414  -50.3201 C.3       15 UNK        -0.1800 
     87 C          -2.9672  -17.2339  -50.2249 C.2       15 UNK         0.5000 
     88 O          -3.4316  -16.4351  -51.0392 O.2       15 UNK        -0.5000 
     89 N          -3.4070  -17.3542  -48.9636 N.am      16 UNK        -0.5000 
     90 CA         -4.5305  -16.6197  -48.3817 C.3       16 UNK         0.1400 
     91 CB         -4.6949  -17.0187  -46.9068 C.3       16 UNK        -0.1800 
     92 C          -5.8317  -16.8444  -49.1763 C.2       16 UNK         0.5000 
     93 O          -6.3877  -17.9432  -49.1490 O.2       16 UNK        -0.5000 
     94 N          -6.2512  -15.8004  -49.9051 N.am      17 UNK        -0.5000 
     95 CA         -7.3804  -15.7583  -50.8422 C.3       17 UNK         0.1400 
     96 CB         -8.7168  -16.0258  -50.1172 C.3       17 UNK        -0.1800 
     97 C          -7.1995  -16.6386  -52.1016 C.2       17 UNK         0.5000 
     98 O          -8.1836  -16.8801  -52.8022 O.2       17 UNK        -0.5000 
     99 N          -5.9562  -17.0629  -52.3872 N.am      18 UNK        -0.5000 
    100 CA        -5.5171  -17.8688  -53.5333 C.3       18 UNK         0.1400 
    101 CB        -5.5083  -17.0060  -54.8114 C.3       18 UNK        -0.1800 
    102 C         -6.3275  -19.1719  -53.6959 C.2       18 UNK         0.5000 
    103 O         -7.0695  -19.3311  -54.6687 O.2       18 UNK        -0.5000 
    104 N         -6.1968  -20.0667  -52.7105 N.am      19 UNK        -0.5000 
    105 CA        -6.8714  -21.3618  -52.6689 C.3       19 UNK         0.1400 
    106 CB        -6.7455  -21.9388  -51.2501 C.3       19 UNK        -0.1800 
    107 C         -6.3029  -22.3512  -53.7036 C.2       19 UNK         0.5000 
    108 O         -5.1789  -22.1816  -54.1855 O.2       19 UNK        -0.5000 
    109 N         -7.0795  -23.4082  -53.9811 N.am      20 UNK        -0.5000 
    110 CA        -6.7711  -24.4768  -54.9399 C.3       20 UNK         0.1400 
    111 CB        -7.9604  -25.4470  -55.0032 C.3       20 UNK        -0.1800 
    112 C         -5.4650  -25.2465  -54.6549 C.2       20 UNK         0.5000 
    113 O         -4.8934  -25.8270  -55.5780 O.2       20 UNK        -0.5000 
    114 N         -4.9876  -25.1997  -53.4035 N.am      21 UNK        -0.5000 
    115 CA        -3.6956  -25.7289  -52.9626 C.3       21 UNK         0.1400 
    116 CB        -3.5991  -25.5839  -51.4366 C.3       21 UNK        -0.1800 
    117 C         -2.4763  -25.0864  -53.6626 C.2       21 UNK         0.5000 
    118 O         -1.4406  -25.7437  -53.7726 O.2       21 UNK        -0.5000 
    119 N         -2.6242  -23.8472  -54.1539 N.am      22 UNK        -0.5000 
    120 CA        -1.6535  -23.1816  -55.0403 C.3       22 UNK         0.1400 
    121 C         -1.8210  -23.5453  -56.5480 C.2       22 UNK         0.5000 
    122 N         -2.7734  -24.3777  -56.9519 N.am      22 UNK        -0.7600 
    123 O         -1.0487  -23.0758  -57.3794 O.2       22 UNK        -0.5000 
    124 C124       -1.6316  -21.6432  -54.8226 C.3       23 UNK        -0.0398 
    125 S125       -0.6695  -21.1662  -53.3487 S.3       23 UNK        -0.2404 
    126 C126        0.9834  -21.0031  -54.0907 C.3       23 UNK        -0.0205 
    127 H127        2.2496  -10.1560  -47.5227 H         1 UNK         0.0600 
    128 H128        3.6445  -10.6654  -48.4787 H         1 UNK         0.0600 
    129 H129        3.7829  -10.5211  -46.7249 H         1 UNK         0.0600 
    130 H130        3.2928  -12.7261  -49.2310 H         1 UNK         0.3000 
    131 H131        3.1027  -14.9851  -47.6023 H         1 UNK         0.0600 
    132 H132        2.3973  -14.8046  -50.5772 H         1 UNK         0.0800 
    133 H133        4.0286  -14.8484  -49.9645 H         1 UNK         0.0800 
    134 H134        2.5376  -16.7044  -52.0876 H         1 UNK         0.0800 
    135 H135        4.2491  -16.9355  -51.8084 H         1 UNK         0.0800 
    136 H136        1.4424  -18.4928  -53.1714 H         1 UNK         0.1150 
    137 H137        2.8376  -22.5277  -52.7681 H         1 UNK         0.1150 
    138 H138        4.8157  -19.3498  -50.6757 H         1 UNK         0.1150 
    139 H139        5.2653  -22.7165  -51.8221 H         1 UNK         0.0800 
    140 H140        5.7930  -21.5236  -50.6670 H         1 UNK         0.0800 
    141 H141        3.6867  -20.7873  -48.9663 H         1 UNK         0.0800 
    142 H142        4.1157  -21.7895  -47.6256 H         1 UNK         0.0800 
    143 H143        1.5772  -22.4779  -49.1562 H         1 UNK         0.0600 
    144 H144        2.6802  -23.2273  -46.6263 H         1 UNK         0.3000 
    145 H145       -0.2950  -24.3840  -45.1023 H         1 UNK         0.0600 
    146 H146        0.9700  -26.5139  -44.9543 H         1 UNK         0.0600 
    147 H147        0.3287  -26.3025  -46.5756 H         1 UNK         0.0600 
    148 H148        2.0351  -26.0053  -46.2657 H         1 UNK         0.0600 
    149 H149        2.4506  -24.5064  -44.3319 H         1 UNK         0.3000 
    150 H150        3.1139  -23.1548  -42.5300 H         1 UNK         0.0600 
    151 H151        4.1538  -22.4735  -44.7606 H         1 UNK         0.0600 
    152 H152        4.7709  -21.5081  -43.4402 H         1 UNK         0.0600 
    153 H153        3.5548  -20.8357  -44.5201 H         1 UNK         0.0600 
    154 H154        1.3660  -20.9448  -42.2822 H         1 UNK         0.3000 
    155 H155        2.9332  -19.6247  -39.3302 H         1 UNK         0.0600 
    156 H156        3.5293  -18.0130  -41.0802 H         1 UNK         0.0600 
    157 H157        2.0312  -18.3107  -41.9458 H         1 UNK         0.0600 
    158 H158        1.9976  -17.5330  -40.3638 H         1 UNK         0.0600 
    159 H159        0.2881  -19.4534  -40.4756 H         1 UNK         0.3000 
    160 H160       -1.1017  -22.2018  -38.7980 H         1 UNK         0.0600 
    161 H161       -1.1498  -19.4198  -37.5054 H         1 UNK         0.0600 
    162 H162       -0.7272  -20.9197  -36.6884 H         1 UNK         0.0600 
    163 H163       -2.3616  -20.6829  -37.2842 H         1 UNK         0.0600 
    164 H164       -2.2021  -19.6817  -39.6932 H         1 UNK         0.3000 
    165 H165       -2.2027  -20.3041  -43.0967 H         1 UNK         0.0600 
    166 H166       -4.6789  -20.2916  -43.0813 H         1 UNK         0.0600 
    167 H167       -4.1161  -21.8568  -42.5178 H         1 UNK         0.0600 
    168 H168       -4.7078  -20.6758  -41.3598 H         1 UNK         0.0600 
    169 H169       -3.7272  -18.4431  -41.6205 H         1 UNK         0.3000 
    170 H170       -3.0310  -16.2371  -41.6929 H         1 UNK         0.0600 
    171 H171       -1.1704  -16.7360  -39.2965 H         1 UNK         0.0600 
    172 H172       -2.3532  -15.4335  -39.4208 H         1 UNK         0.0600 
    173 H173       -2.8905  -17.1024  -39.3497 H         1 UNK         0.0600 
    174 H174       -0.3989  -15.2430  -41.0804 H         1 UNK         0.3000 
    175 H175        0.4332  -13.6470  -42.4409 H         1 UNK         0.0600 
    176 H176        2.3758  -14.3209  -43.8006 H         1 UNK         0.0600 
    177 H177        1.4262  -15.5469  -44.6332 H         1 UNK         0.0600 
    178 H178        1.7905  -15.7266  -42.9207 H         1 UNK         0.0600 
    179 H179        0.4671  -13.4194  -45.2732 H         1 UNK         0.3000 
    180 H180       -2.3617  -11.3460  -45.7207 H         1 UNK         0.0600 
    181 H181        0.5822  -10.5008  -45.6382 H         1 UNK         0.0600 
    182 H182       -0.7656   -9.6673  -44.8812 H         1 UNK         0.0600 
    183 H183       -0.6647   -9.7472  -46.6333 H         1 UNK         0.0600 
    184 H184       -0.0638  -12.2932  -47.2752 H         1 UNK         0.3000 
    185 H185       -1.5680  -15.1509  -48.5090 H         1 UNK         0.0600 
    186 H186       -3.0433  -13.6741  -49.8594 H         1 UNK         0.0600 
    187 H187       -1.7211  -12.5404  -50.1118 H         1 UNK         0.0600 
    188 H188       -1.6436  -14.1650  -50.7960 H         1 UNK         0.0600 
    189 H189        0.5146  -13.3401  -49.4656 H         1 UNK         0.3000 
    190 H190        1.7784  -20.7527  -46.0239 H         1 UNK         0.3000 
    191 H191        0.7052  -18.2736  -47.0349 H         1 UNK         0.0600 
    192 H192        2.0402  -18.3144  -44.9553 H         1 UNK         0.0600 
    193 H193        0.4173  -17.7305  -44.6177 H         1 UNK         0.0600 
    194 H194        0.8598  -19.3657  -44.1727 H         1 UNK         0.0600 
    195 H195       -0.6849  -21.1581  -45.4362 H         1 UNK         0.3000 
    196 H196       -3.3807  -20.3427  -45.3348 H         1 UNK         0.0600 
    197 H197       -3.8668  -22.7078  -44.9973 H         1 UNK         0.0600 
    198 H198       -2.3292  -22.3958  -44.2028 H         1 UNK         0.0600 
    199 H199       -2.3682  -23.2068  -45.7591 H         1 UNK         0.0600 
    200 H200       -1.5743  -21.9733  -47.9597 H         1 UNK         0.3000 
    201 H201       -3.7840  -22.2349  -49.7506 H         1 UNK         0.0600 
    202 H202       -1.7254  -23.6390  -49.8590 H         1 UNK         0.0600 
    203 H203       -2.0363  -22.8345  -51.3875 H         1 UNK         0.0600 
    204 H204       -0.7747  -22.2295  -50.3204 H         1 UNK         0.0600 
    205 H205       -1.1389  -19.7918  -49.4936 H         1 UNK         0.3000 
    206 H206       -1.8831  -18.2686  -51.7497 H         1 UNK         0.0600 
    207 H207        0.3471  -18.1501  -50.7089 H         1 UNK         0.0600 
    208 H208       -0.3665  -16.5452  -50.7520 H         1 UNK         0.0600 
    209 H209       -0.3300  -17.4513  -49.2421 H         1 UNK         0.0600 
    210 H210       -2.9352  -18.0091  -48.3469 H         1 UNK         0.3000 
    211 H211       -4.2800  -15.5579  -48.4115 H         1 UNK         0.0600 
    212 H212       -4.8476  -18.0929  -46.7950 H         1 UNK         0.0600 
    213 H213       -5.5507  -16.5137  -46.4575 H         1 UNK         0.0600 
    214 H214       -3.8145  -16.7426  -46.3255 H         1 UNK         0.0600 
    215 H215       -5.6914  -14.9593  -49.8827 H         1 UNK         0.3000 
    216 H216       -7.4152  -14.7318  -51.2096 H         1 UNK         0.0600 
    217 H217       -9.5650  -15.8112  -50.7682 H         1 UNK         0.0600 
    218 H218       -8.8210  -15.3947  -49.2346 H         1 UNK         0.0600 
    219 H219       -8.8068  -17.0651  -49.8007 H         1 UNK         0.0600 
    220 H220       -5.2111  -16.7965  -51.7498 H         1 UNK         0.3000 
    221 H221       -4.4867  -18.1645  -53.3283 H         1 UNK         0.0600 
    222 H222       -6.5073  -16.6541  -55.0708 H         1 UNK         0.0600 
    223 H223       -4.8667  -16.1330  -54.6912 H         1 UNK         0.0600 
    224 H224       -5.1288  -17.5735  -55.6619 H         1 UNK         0.0600 
    225 H225       -5.4875  -19.9112  -51.9978 H         1 UNK         0.3000 
    226 H226       -7.9290  -21.2004  -52.8877 H         1 UNK         0.0600 
    227 H227       -7.0901  -21.2265  -50.4997 H         1 UNK         0.0600 
    228 H228       -7.3431  -22.8438  -51.1367 H         1 UNK         0.0600 
    229 H229       -5.7137  -22.1974  -51.0157 H         1 UNK         0.0600 
    230 H230       -7.9772  -23.4774  -53.5236 H         1 UNK         0.3000 
    231 H231       -6.6577  -24.0103  -55.9205 H         1 UNK         0.0600 
    232 H232       -8.1442  -25.9208  -54.0380 H         1 UNK         0.0600 
    233 H233       -7.7803  -26.2410  -55.7294 H         1 UNK         0.0600 
    234 H234       -8.8735  -24.9344  -55.3064 H         1 UNK         0.0600 
    235 H235       -5.5277  -24.6991  -52.7142 H         1 UNK         0.3000 
    236 H236       -3.6754  -26.7937  -53.2039 H         1 UNK         0.0600 
    237 H237       -4.3414  -26.2064  -50.9367 H         1 UNK         0.0600 
    238 H238       -2.6189  -25.8917  -51.0699 H         1 UNK         0.0600 
    239 H239       -3.7643  -24.5541  -51.1211 H         1 UNK         0.0600 
    240 H240       -3.5143  -23.3724  -54.0425 H         1 UNK         0.3000 
    241 H241       -0.6583  -23.5550  -54.7923 H         1 UNK         0.0600 
    242 H242       -2.8435  -24.5958  -57.9331 H         1 UNK         0.3800 
    243 H243       -3.4171  -24.8175  -56.3026 H         1 UNK         0.3800 
    244 H244       -1.2066  -21.1152  -55.6778 H         1 UNK         0.0800 
    245 H245       -2.6467  -21.2570  -54.7192 H         1 UNK         0.0800 
    246 H246        1.2742  -21.9554  -54.5366 H         1 UNK         0.0800 
    247 H247        0.9440  -20.2816  -54.9082 H         1 UNK         0.0800 
@<TRIPOS>BOND
     1    1    2 1    
     2    1  127 1    
     3    1  128 1    
     4    1  129 1    
     5    2    3 2    
     6    2    4 am   BACKBONE|DICT|INTERRES
     7    4    5 1    
     8    4  130 1    
     9    5    6 1    
    10    5   65 1    
    11    5  131 1    
    12    6    7 1    
    13    6  132 1    
    14    6  133 1    
    15    7    8 1    
    16    8    9 1    
    17    8  134 1    
    18    8  135 1    
    19    9   10 ar   
    20    9   14 ar   
    21   10   11 ar   
    22   10  136 1    
    23   11   12 ar   
    24   11  126 1    
    25   12   13 ar   
    26   12  137 1    
    27   13   14 ar   
    28   13   15 1    
    29   14  138 1    
    30   15   16 1    
    31   15  139 1    
    32   15  140 1    
    33   16   17 1    
    34   17   18 1    
    35   17  141 1    
    36   17  142 1    
    37   18   19 1    
    38   18   67 1    
    39   18  143 1    
    40   19   20 am   BACKBONE|DICT|INTERRES
    41   19  144 1    
    42   20   21 2    
    43   20   22 1    
    44   22   23 1    
    45   22   24 1    
    46   22  145 1    
    47   23  146 1    
    48   23  147 1    
    49   23  148 1    
    50   24   25 am   BACKBONE|DICT|INTERRES
    51   24  149 1    
    52   25   26 2    
    53   25   27 1    
    54   27   28 1    
    55   27   29 1    
    56   27  150 1    
    57   28  151 1    
    58   28  152 1    
    59   28  153 1    
    60   29   30 am   BACKBONE|DICT|INTERRES
    61   29  154 1    
    62   30   31 2    
    63   30   32 1    
    64   32   33 1    
    65   32   34 1    
    66   32  155 1    
    67   33  156 1    
    68   33  157 1    
    69   33  158 1    
    70   34   35 am   BACKBONE|DICT|INTERRES
    71   34  159 1    
    72   35   36 2    
    73   35   37 1    
    74   37   38 1    
    75   37   39 1    
    76   37  160 1    
    77   38  161 1    
    78   38  162 1    
    79   38  163 1    
    80   39   40 am   BACKBONE|DICT|INTERRES
    81   39  164 1    
    82   40   41 2    
    83   40   42 1    
    84   42   43 1    
    85   42   44 1    
    86   42  165 1    
    87   43  166 1    
    88   43  167 1    
    89   43  168 1    
    90   44   45 am   BACKBONE|DICT|INTERRES
    91   44  169 1    
    92   45   46 2    
    93   45   47 1    
    94   47   48 1    
    95   47   49 1    
    96   47  170 1    
    97   48  171 1    
    98   48  172 1    
    99   48  173 1    
   100   49   50 am   BACKBONE|DICT|INTERRES
   101   49  174 1    
   102   50   51 2    
   103   50   52 1    
   104   52   53 1    
   105   52   54 1    
   106   52  175 1    
   107   53  176 1    
   108   53  177 1    
   109   53  178 1    
   110   54   55 am   BACKBONE|DICT|INTERRES
   111   54  179 1    
   112   55   56 2    
   113   55   57 1    
   114   57   58 1    
   115   57   59 1    
   116   57  180 1    
   117   58  181 1    
   118   58  182 1    
   119   58  183 1    
   120   59   60 am   BACKBONE|DICT|INTERRES
   121   59  184 1    
   122   60   61 2    
   123   60   62 1    
   124   62   63 1    
   125   62   64 1    
   126   62  185 1    
   127   63  186 1    
   128   63  187 1    
   129   63  188 1    
   130   64   65 am   BACKBONE|DICT|INTERRES
   131   64  189 1    
   132   65   66 2    
   133   67   68 2    
   134   67   69 am   BACKBONE|DICT|INTERRES
   135   69   70 1    
   136   69  190 1    
   137   70   71 1    
   138   70   72 1    
   139   70  191 1    
   140   71  192 1    
   141   71  193 1    
   142   71  194 1    
   143   72   73 2    
   144   72   74 am   BACKBONE|DICT|INTERRES
   145   74   75 1    
   146   74  195 1    
   147   75   76 1    
   148   75   77 1    
   149   75  196 1    
   150   76  197 1    
   151   76  198 1    
   152   76  199 1    
   153   77   78 2    
   154   77   79 am   BACKBONE|DICT|INTERRES
   155   79   80 1    
   156   79  200 1    
   157   80   81 1    
   158   80   82 1    
   159   80  201 1    
   160   81  202 1    
   161   81  203 1    
   162   81  204 1    
   163   82   83 2    
   164   82   84 am   BACKBONE|DICT|INTERRES
   165   84   85 1    
   166   84  205 1    
   167   85   86 1    
   168   85   87 1    
   169   85  206 1    
   170   86  207 1    
   171   86  208 1    
   172   86  209 1    
   173   87   88 2    
   174   87   89 am   BACKBONE|DICT|INTERRES
   175   89   90 1    
   176   89  210 1    
   177   90   91 1    
   178   90   92 1    
   179   90  211 1    
   180   91  212 1    
   181   91  213 1    
   182   91  214 1    
   183   92   93 2    
   184   92   94 am   BACKBONE|DICT|INTERRES
   185   94   95 1    
   186   94  215 1    
   187   95   96 1    
   188   95   97 1    
   189   95  216 1    
   190   96  217 1    
   191   96  218 1    
   192   96  219 1    
   193   97   98 2    
   194   97   99 am   BACKBONE|DICT|INTERRES
   195   99  100 1    
   196   99  220 1    
   197  100  101 1    
   198  100  102 1    
   199  100  221 1    
   200  101  222 1    
   201  101  223 1    
   202  101  224 1    
   203  102  103 2    
   204  102  104 am   BACKBONE|DICT|INTERRES
   205  104  105 1    
   206  104  225 1    
   207  105  106 1    
   208  105  107 1    
   209  105  226 1    
   210  106  227 1    
   211  106  228 1    
   212  106  229 1    
   213  107  108 2    
   214  107  109 am   BACKBONE|DICT|INTERRES
   215  109  110 1    
   216  109  230 1    
   217  110  111 1    
   218  110  112 1    
   219  110  231 1    
   220  111  232 1    
   221  111  233 1    
   222  111  234 1    
   223  112  113 2    
   224  112  114 am   BACKBONE|DICT|INTERRES
   225  114  115 1    
   226  114  235 1    
   227  115  116 1    
   228  115  117 1    
   229  115  236 1    
   230  116  237 1    
   231  116  238 1    
   232  116  239 1    
   233  117  118 2    
   234  117  119 am   BACKBONE|DICT|INTERRES
   235  119  120 1    
   236  119  240 1    
   237  120  121 1    
   238  120  124 1    
   239  120  241 1    
   240  121  122 am   BACKBONE|DICT|INTERRES
   241  121  123 2    
   242  122  242 1    
   243  122  243 1    
   244  124  125 1    
   245  124  244 1    
   246  124  245 1    
   247  125  126 1    
   248  126  246 1    
   249  126  247 1    
@<TRIPOS>SUBSTRUCTURE
     1 UNK         1 GROUP             0       ****    0 ROOT    
