@<TRIPOS>MOLECULE
3R540
247   249    1
SMALL
USER_CHARGES


@<TRIPOS>ATOM
      1 CA         -1.4998  -12.0128  -54.3452 C.3       0 UNK        -0.1800 
      2 C          -0.6811  -12.0719  -53.0634 C.2       0 UNK         0.5000 
      3 O          -0.2187  -11.0388  -52.5797 O.2       0 UNK        -0.5000 
      4 N          -0.5047  -13.2787  -52.5154 N.am      1 UNK        -0.5000 
      5 CA          0.1429  -13.5367  -51.2257 C.3       1 UNK         0.1400 
      6 C6          0.7022  -14.9769  -51.1992 C.3       23 UNK        -0.0398 
      7 S7          1.5896  -15.4324  -49.6771 S.3       23 UNK        -0.2404 
      8 C8          0.9121  -17.0840  -49.3187 C.3       23 UNK        -0.0205 
      9 C9         -0.4530  -17.0390  -48.6435 C.ar      23 UNK        -0.0193 
     10 C10        -1.6247  -17.0049  -49.4040 C.ar      23 UNK        -0.1150 
     11 C11        -2.8778  -17.0378  -48.7891 C.ar      23 UNK        -0.0193 
     12 C12        -2.9571  -17.1401  -47.4005 C.ar      23 UNK        -0.1150 
     13 C13        -1.7967  -17.1874  -46.6268 C.ar      23 UNK        -0.0193 
     14 C14        -0.5491  -17.0977  -47.2507 C.ar      23 UNK        -0.1150 
     15 C15        -1.9088  -17.3665  -45.1235 C.3       23 UNK        -0.0205 
     16 S16        -2.1304  -19.1214  -44.7024 S.3       23 UNK        -0.2404 
     17 C17        -0.4088  -19.6968  -44.4815 C.3       23 UNK        -0.0398 
     18 CA          0.3596  -20.1372  -45.7538 C.3       11 UNK         0.1400 
     19 N           1.6157  -20.7830  -45.3921 N.am      11 UNK        -0.5000 
     20 C           2.6510  -20.9892  -46.2146 C.2       10 UNK         0.5000 
     21 O           2.6756  -20.6339  -47.3933 O.2       10 UNK        -0.5000 
     22 CA          3.8685  -21.7049  -45.6079 C.3       10 UNK         0.1400 
     23 CB          4.7594  -20.7055  -44.8517 C.3       10 UNK        -0.1800 
     24 N           3.4696  -22.7803  -44.6994 N.am      10 UNK        -0.5000 
     25 C           3.1158  -24.0127  -45.0907 C.2       9 UNK         0.5000 
     26 O           3.1099  -24.3815  -46.2653 O.2       9 UNK        -0.5000 
     27 CA          2.7221  -25.0102  -43.9839 C.3       9 UNK         0.1400 
     28 CB          3.9439  -25.8329  -43.5465 C.3       9 UNK        -0.1800 
     29 N           2.1503  -24.3492  -42.8099 N.am      9 UNK        -0.5000 
     30 C           0.8810  -23.9279  -42.7296 C.2       8 UNK         0.5000 
     31 O           0.0417  -24.1258  -43.6048 O.2       8 UNK        -0.5000 
     32 CA          0.4850  -23.1383  -41.4657 C.3       8 UNK         0.1400 
     33 CB         -0.1433  -24.0726  -40.4213 C.3       8 UNK        -0.1800 
     34 N           1.5990  -22.4043  -40.8538 N.am      8 UNK        -0.5000 
     35 C           2.2323  -21.3801  -41.4375 C.2       7 UNK         0.5000 
     36 O           1.9616  -20.9675  -42.5686 O.2       7 UNK        -0.5000 
     37 CA          3.3895  -20.7407  -40.6618 C.3       7 UNK         0.1400 
     38 CB          4.6801  -21.5611  -40.8504 C.3       7 UNK        -0.1800 
     39 N           3.5618  -19.3870  -41.1741 N.am      7 UNK        -0.5000 
     40 C           4.2908  -18.4065  -40.6316 C.2       6 UNK         0.5000 
     41 O           4.9585  -18.5306  -39.6042 O.2       6 UNK        -0.5000 
     42 CA          4.2486  -17.0484  -41.3574 C.3       6 UNK         0.1400 
     43 CB          5.2984  -17.0032  -42.4785 C.3       6 UNK        -0.1800 
     44 N           2.9316  -16.7551  -41.9264 N.am      6 UNK        -0.5000 
     45 C           1.8369  -16.4460  -41.2206 C.2       5 UNK         0.5000 
     46 O           1.8344  -16.3272  -39.9941 O.2       5 UNK        -0.5000 
     47 CA          0.5374  -16.2269  -42.0277 C.3       5 UNK         0.1400 
     48 CB         -0.6585  -15.8292  -41.1449 C.3       5 UNK        -0.1800 
     49 N           0.6786  -15.2311  -43.0929 N.am      5 UNK        -0.5000 
     50 C           1.3108  -15.3982  -44.2596 C.2       4 UNK         0.5000 
     51 O           1.8842  -16.4450  -44.5690 O.2       4 UNK        -0.5000 
     52 CA          1.2427  -14.2153  -45.2490 C.3       4 UNK         0.1400 
     53 CB          2.2488  -14.3652  -46.3990 C.3       4 UNK        -0.1800 
     54 N          -0.1102  -14.0567  -45.7979 N.am      4 UNK        -0.5000 
     55 C          -1.1268  -13.4935  -45.1301 C.2       3 UNK         0.5000 
     56 O          -0.9906  -13.0086  -44.0044 O.2       3 UNK        -0.5000 
     57 CA         -2.5135  -13.4768  -45.8010 C.3       3 UNK         0.1400 
     58 CB         -3.4406  -12.4017  -45.1890 C.3       3 UNK        -0.1800 
     59 N          -2.4396  -13.3125  -47.2552 N.am      3 UNK        -0.5000 
     60 C          -3.4483  -13.5880  -48.0914 C.2       2 UNK         0.5000 
     61 O          -4.4928  -14.1342  -47.7340 O.2       2 UNK        -0.5000 
     62 CA         -3.3223  -13.1450  -49.5624 C.3       2 UNK         0.1400 
     63 CB         -3.5267  -11.6235  -49.6930 C.3       2 UNK        -0.1800 
     64 N          -2.1192  -13.5702  -50.2849 N.am      2 UNK        -0.5000 
     65 C          -0.8407  -13.2220  -50.0743 C.2       1 UNK         0.5000 
     66 O          -0.4447  -12.6096  -49.0807 O.2       1 UNK        -0.5000 
     67 C          -0.4479  -21.0452  -46.7008 C.2       11 UNK         0.5000 
     68 O          -0.8725  -22.1249  -46.2900 O.2       11 UNK        -0.5000 
     69 N          -0.6453  -20.5920  -47.9470 N.am      12 UNK        -0.5000 
     70 CA         -1.3034  -21.3499  -49.0131 C.3       12 UNK         0.1400 
     71 CB         -1.1632  -20.5971  -50.3441 C.3       12 UNK        -0.1800 
     72 C          -2.7798  -21.6734  -48.7284 C.2       12 UNK         0.5000 
     73 O          -3.2624  -22.7070  -49.1923 O.2       12 UNK        -0.5000 
     74 N          -3.4624  -20.8101  -47.9643 N.am      13 UNK        -0.5000 
     75 CA         -4.8351  -21.0330  -47.5133 C.3       13 UNK         0.1400 
     76 CB         -5.4423  -19.7128  -47.0188 C.3       13 UNK        -0.1800 
     77 C          -4.9132  -22.1126  -46.4196 C.2       13 UNK         0.5000 
     78 O          -5.7804  -22.9830  -46.4899 O.2       13 UNK        -0.5000 
     79 N          -3.9916  -22.0561  -45.4469 N.am      14 UNK        -0.5000 
     80 CA         -3.8926  -23.0104  -44.3389 C.3       14 UNK         0.1400 
     81 CB         -2.9641  -22.4457  -43.2555 C.3       14 UNK        -0.1800 
     82 C          -3.4159  -24.3994  -44.7993 C.2       14 UNK         0.5000 
     83 O          -3.9245  -25.4101  -44.3129 O.2       14 UNK        -0.5000 
     84 N          -2.4872  -24.4213  -45.7642 N.am      15 UNK        -0.5000 
     85 CA         -1.9918  -25.6259  -46.4309 C.3       15 UNK         0.1400 
     86 CB         -0.6911  -25.2769  -47.1723 C.3       15 UNK        -0.1800 
     87 C          -3.0133  -26.2486  -47.4060 C.2       15 UNK         0.5000 
     88 O          -2.8068  -27.3802  -47.8458 O.2       15 UNK        -0.5000 
     89 N          -4.0761  -25.4977  -47.7374 N.am      16 UNK        -0.5000 
     90 CA         -5.1482  -25.8202  -48.6854 C.3       16 UNK         0.1400 
     91 CB         -5.9735  -27.0298  -48.2000 C.3       16 UNK        -0.1800 
     92 C          -4.6461  -25.9696  -50.1375 C.2       16 UNK         0.5000 
     93 O          -5.2313  -26.7163  -50.9241 O.2       16 UNK        -0.5000 
     94 N          -3.5727  -25.2414  -50.4669 N.am      17 UNK        -0.5000 
     95 CA         -3.0042  -25.1423  -51.8070 C.3       17 UNK         0.1400 
     96 CB         -1.5163  -24.7726  -51.6974 C.3       17 UNK        -0.1800 
     97 C          -3.7658  -24.1040  -52.6462 C.2       17 UNK         0.5000 
     98 O          -4.0593  -24.3699  -53.8121 O.2       17 UNK        -0.5000 
     99 N          -4.0881  -22.9612  -52.0173 N.am      18 UNK        -0.5000 
    100 CA        -4.8066  -21.8073  -52.5644 C.3       18 UNK         0.1400 
    101 CB        -6.3167  -22.1198  -52.6429 C.3       18 UNK        -0.1800 
    102 C         -4.1897  -21.3001  -53.8879 C.2       18 UNK         0.5000 
    103 O         -3.0410  -20.8549  -53.8802 O.2       18 UNK        -0.5000 
    104 N         -4.9484  -21.3940  -54.9901 N.am      19 UNK        -0.5000 
    105 CA        -4.5690  -21.0409  -56.3612 C.3       19 UNK         0.1400 
    106 CB        -3.4767  -22.0027  -56.8825 C.3       19 UNK        -0.1800 
    107 C         -4.2118  -19.5462  -56.5050 C.2       19 UNK         0.5000 
    108 O         -4.8349  -18.7079  -55.8494 O.2       19 UNK        -0.5000 
    109 N         -3.2250  -19.2263  -57.3532 N.am      20 UNK        -0.5000 
    110 CA        -2.7816  -17.8665  -57.6829 C.3       20 UNK         0.1400 
    111 CB        -1.7209  -17.9498  -58.7916 C.3       20 UNK        -0.1800 
    112 C         -2.2487  -17.0470  -56.4887 C.2       20 UNK         0.5000 
    113 O         -2.1969  -15.8197  -56.5761 O.2       20 UNK        -0.5000 
    114 N         -1.8758  -17.7267  -55.3960 N.am      21 UNK        -0.5000 
    115 CA        -1.4657  -17.1101  -54.1368 C.3       21 UNK         0.1400 
    116 CB        -0.7800  -18.1741  -53.2659 C.3       21 UNK        -0.1800 
    117 C         -2.6392  -16.4630  -53.3746 C.2       21 UNK         0.5000 
    118 O         -2.4054  -15.5102  -52.6264 O.2       21 UNK        -0.5000 
    119 N         -3.8585  -16.9862  -53.5674 N.am      22 UNK        -0.5000 
    120 CA        -5.0749  -16.5614  -52.8547 C.3       22 UNK         0.1400 
    121 C         -6.2089  -16.0608  -53.7898 C.2       22 UNK         0.5000 
    122 N         -6.2522  -16.4431  -55.0590 N.am      22 UNK        -0.7600 
    123 O         -7.0631  -15.2925  -53.3565 O.2       22 UNK        -0.5000 
    124 C124       -5.6098  -17.6607  -51.8940 C.3       23 UNK        -0.0398 
    125 S125       -4.3564  -18.3315  -50.7465 S.3       23 UNK        -0.2404 
    126 C126       -4.1397  -16.9190  -49.6252 C.3       23 UNK        -0.0205 
    127 H127       -0.9023  -11.5924  -55.1541 H         1 UNK         0.0600 
    128 H128       -1.8420  -13.0016  -54.6536 H         1 UNK         0.0600 
    129 H129       -2.3758  -11.3804  -54.2015 H         1 UNK         0.0600 
    130 H130       -0.9803  -14.0742  -52.9254 H         1 UNK         0.3000 
    131 H131        0.9897  -12.8547  -51.1224 H         1 UNK         0.0600 
    132 H132        1.4004  -15.1072  -52.0271 H         1 UNK         0.0800 
    133 H133       -0.0978  -15.6860  -51.3827 H         1 UNK         0.0800 
    134 H134        1.6194  -17.6081  -48.6736 H         1 UNK         0.0800 
    135 H135        0.8617  -17.6709  -50.2366 H         1 UNK         0.0800 
    136 H136       -1.5787  -16.9670  -50.4804 H         1 UNK         0.1150 
    137 H137       -3.9234  -17.1734  -46.9182 H         1 UNK         0.1150 
    138 H138        0.3516  -17.1105  -46.6549 H         1 UNK         0.1150 
    139 H139       -1.0381  -16.9607  -44.6137 H         1 UNK         0.0800 
    140 H140       -2.7679  -16.8072  -44.7507 H         1 UNK         0.0800 
    141 H141       -0.4520  -20.5307  -43.7804 H         1 UNK         0.0800 
    142 H142        0.1630  -18.9244  -43.9688 H         1 UNK         0.0800 
    143 H143        0.6332  -19.2395  -46.3012 H         1 UNK         0.0600 
    144 H144        1.6997  -21.0776  -44.4236 H         1 UNK         0.3000 
    145 H145        4.4547  -22.1276  -46.4268 H         1 UNK         0.0600 
    146 H146        5.6498  -21.1927  -44.4542 H         1 UNK         0.0600 
    147 H147        5.0950  -19.9057  -45.5131 H         1 UNK         0.0600 
    148 H148        4.2318  -20.2394  -44.0192 H         1 UNK         0.0600 
    149 H149        3.3990  -22.5449  -43.7214 H         1 UNK         0.3000 
    150 H150        1.9828  -25.6970  -44.4023 H         1 UNK         0.0600 
    151 H151        4.3838  -26.3592  -44.3947 H         1 UNK         0.0600 
    152 H152        3.6684  -26.5847  -42.8066 H         1 UNK         0.0600 
    153 H153        4.7211  -25.2025  -43.1125 H         1 UNK         0.0600 
    154 H154        2.7687  -24.1749  -42.0319 H         1 UNK         0.3000 
    155 H155       -0.2697  -22.4076  -41.7636 H         1 UNK         0.0600 
    156 H156        0.5715  -24.8139  -40.0620 H         1 UNK         0.0600 
    157 H157       -0.9931  -24.6123  -40.8420 H         1 UNK         0.0600 
    158 H158       -0.5102  -23.5129  -39.5608 H         1 UNK         0.0600 
    159 H159        1.8798  -22.6980  -39.9289 H         1 UNK         0.3000 
    160 H160        3.1251  -20.6923  -39.6036 H         1 UNK         0.0600 
    161 H161        5.5085  -21.1384  -40.2823 H         1 UNK         0.0600 
    162 H162        4.9825  -21.6016  -41.8972 H         1 UNK         0.0600 
    163 H163        4.5485  -22.5873  -40.5055 H         1 UNK         0.0600 
    164 H164        3.0193  -19.1987  -42.0077 H         1 UNK         0.3000 
    165 H165        4.4903  -16.2712  -40.6293 H         1 UNK         0.0600 
    166 H166        5.3251  -16.0224  -42.9537 H         1 UNK         0.0600 
    167 H167        6.2969  -17.2021  -42.0871 H         1 UNK         0.0600 
    168 H168        5.0947  -17.7447  -43.2523 H         1 UNK         0.0600 
    169 H169        2.8382  -16.8046  -42.9371 H         1 UNK         0.3000 
    170 H170        0.2935  -17.1861  -42.4845 H         1 UNK         0.0600 
    171 H171       -0.8382  -16.5727  -40.3673 H         1 UNK         0.0600 
    172 H172       -0.4937  -14.8695  -40.6536 H         1 UNK         0.0600 
    173 H173       -1.5730  -15.7517  -41.7335 H         1 UNK         0.0600 
    174 H174        0.2012  -14.3480  -42.9484 H         1 UNK         0.3000 
    175 H175        1.5112  -13.3087  -44.7024 H         1 UNK         0.0600 
    176 H176        2.1176  -15.3113  -46.9215 H         1 UNK         0.0600 
    177 H177        2.1495  -13.5579  -47.1250 H         1 UNK         0.0600 
    178 H178        3.2723  -14.3442  -46.0233 H         1 UNK         0.0600 
    179 H179       -0.2831  -14.4626  -46.7069 H         1 UNK         0.3000 
    180 H180       -2.9510  -14.4548  -45.5937 H         1 UNK         0.0600 
    181 H181       -3.0542  -11.3975  -45.3660 H         1 UNK         0.0600 
    182 H182       -3.5423  -12.5317  -44.1109 H         1 UNK         0.0600 
    183 H183       -4.4470  -12.4496  -45.6041 H         1 UNK         0.0600 
    184 H184       -1.5979  -12.8899  -47.6423 H         1 UNK         0.3000 
    185 H185       -4.1501  -13.6161  -50.0943 H         1 UNK         0.0600 
    186 H186       -4.4687  -11.3159  -49.2372 H         1 UNK         0.0600 
    187 H187       -2.7303  -11.0613  -49.2045 H         1 UNK         0.0600 
    188 H188       -3.5573  -11.3191  -50.7393 H         1 UNK         0.0600 
    189 H189       -2.3045  -14.1236  -51.1154 H         1 UNK         0.3000 
    190 H190       -0.2713  -19.6911  -48.2056 H         1 UNK         0.3000 
    191 H191       -0.7772  -22.3016  -49.1084 H         1 UNK         0.0600 
    192 H192       -1.6632  -19.6303  -50.3132 H         1 UNK         0.0600 
    193 H193       -1.6059  -21.1631  -51.1651 H         1 UNK         0.0600 
    194 H194       -0.1165  -20.4261  -50.5961 H         1 UNK         0.0600 
    195 H195       -2.9970  -19.9749  -47.6398 H         1 UNK         0.3000 
    196 H196       -5.4263  -21.3750  -48.3659 H         1 UNK         0.0600 
    197 H197       -6.4705  -19.8579  -46.6852 H         1 UNK         0.0600 
    198 H198       -5.4643  -18.9699  -47.8151 H         1 UNK         0.0600 
    199 H199       -4.8820  -19.2971  -46.1810 H         1 UNK         0.0600 
    200 H200       -3.2911  -21.3290  -45.4798 H         1 UNK         0.3000 
    201 H201       -4.8870  -23.1281  -43.9032 H         1 UNK         0.0600 
    202 H202       -3.3316  -21.4933  -42.8734 H         1 UNK         0.0600 
    203 H203       -1.9585  -22.2886  -43.6434 H         1 UNK         0.0600 
    204 H204       -2.8859  -23.1305  -42.4103 H         1 UNK         0.0600 
    205 H205       -2.0460  -23.5441  -46.0335 H         1 UNK         0.3000 
    206 H206       -1.7630  -26.3721  -45.6675 H         1 UNK         0.0600 
    207 H207        0.0554  -24.8713  -46.4883 H         1 UNK         0.0600 
    208 H208       -0.2560  -26.1599  -47.6417 H         1 UNK         0.0600 
    209 H209       -0.8629  -24.5381  -47.9557 H         1 UNK         0.0600 
    210 H210       -4.1409  -24.5813  -47.3154 H         1 UNK         0.3000 
    211 H211       -5.8108  -24.9536  -48.6888 H         1 UNK         0.0600 
    212 H212       -5.4002  -27.9562  -48.2410 H         1 UNK         0.0600 
    213 H213       -6.8622  -27.1692  -48.8166 H         1 UNK         0.0600 
    214 H214       -6.3116  -26.8886  -47.1734 H         1 UNK         0.0600 
    215 H215       -3.2201  -24.5874  -49.7762 H         1 UNK         0.3000 
    216 H216       -3.0801  -26.1113  -52.3052 H         1 UNK         0.0600 
    217 H217       -1.0588  -24.7027  -52.6850 H         1 UNK         0.0600 
    218 H218       -0.9647  -25.5262  -51.1350 H         1 UNK         0.0600 
    219 H219       -1.3718  -23.8130  -51.2000 H         1 UNK         0.0600 
    220 H220       -3.7936  -22.8651  -51.0506 H         1 UNK         0.3000 
    221 H221       -4.6762  -21.0022  -51.8423 H         1 UNK         0.0600 
    222 H222       -6.5299  -22.9549  -53.3113 H         1 UNK         0.0600 
    223 H223       -6.7077  -22.3808  -51.6593 H         1 UNK         0.0600 
    224 H224       -6.8827  -21.2543  -52.9899 H         1 UNK         0.0600 
    225 H225       -5.8838  -21.7582  -54.8820 H         1 UNK         0.3000 
    226 H226       -5.4608  -21.1945  -56.9700 H         1 UNK         0.0600 
    227 H227       -3.7630  -23.0416  -56.7168 H         1 UNK         0.0600 
    228 H228       -3.3197  -21.8859  -57.9552 H         1 UNK         0.0600 
    229 H229       -2.5198  -21.8435  -56.3837 H         1 UNK         0.0600 
    230 H230       -2.7540  -19.9762  -57.8382 H         1 UNK         0.3000 
    231 H231       -3.6456  -17.3277  -58.0770 H         1 UNK         0.0600 
    232 H232       -2.1168  -18.4386  -59.6819 H         1 UNK         0.0600 
    233 H233       -0.8414  -18.5057  -58.4644 H         1 UNK         0.0600 
    234 H234       -1.3877  -16.9552  -59.0914 H         1 UNK         0.0600 
    235 H235       -1.9631  -18.7334  -55.4004 H         1 UNK         0.3000 
    236 H236       -0.7369  -16.3277  -54.3583 H         1 UNK         0.0600 
    237 H237       -0.3500  -17.7348  -52.3682 H         1 UNK         0.0600 
    238 H238       -1.4819  -18.9435  -52.9439 H         1 UNK         0.0600 
    239 H239        0.0322  -18.6642  -53.8028 H         1 UNK         0.0600 
    240 H240       -3.9728  -17.7396  -54.2345 H         1 UNK         0.3000 
    241 H241       -4.8375  -15.6870  -52.2489 H         1 UNK         0.0600 
    242 H242       -6.9903  -16.0969  -55.6504 H         1 UNK         0.3800 
    243 H243       -5.6296  -17.1673  -55.4107 H         1 UNK         0.3800 
    244 H244       -6.4459  -17.2806  -51.3042 H         1 UNK         0.0800 
    245 H245       -6.0025  -18.4994  -52.4713 H         1 UNK         0.0800 
    246 H246       -4.0648  -15.9990  -50.2002 H         1 UNK         0.0800 
    247 H247       -5.0237  -16.8169  -48.9942 H         1 UNK         0.0800 
@<TRIPOS>BOND
     1    1    2 1    
     2    1  127 1    
     3    1  128 1    
     4    1  129 1    
     5    2    3 2    
     6    2    4 am   BACKBONE|DICT|INTERRES
     7    4    5 1    
     8    4  130 1    
     9    5    6 1    
    10    5   65 1    
    11    5  131 1    
    12    6    7 1    
    13    6  132 1    
    14    6  133 1    
    15    7    8 1    
    16    8    9 1    
    17    8  134 1    
    18    8  135 1    
    19    9   10 ar   
    20    9   14 ar   
    21   10   11 ar   
    22   10  136 1    
    23   11   12 ar   
    24   11  126 1    
    25   12   13 ar   
    26   12  137 1    
    27   13   14 ar   
    28   13   15 1    
    29   14  138 1    
    30   15   16 1    
    31   15  139 1    
    32   15  140 1    
    33   16   17 1    
    34   17   18 1    
    35   17  141 1    
    36   17  142 1    
    37   18   19 1    
    38   18   67 1    
    39   18  143 1    
    40   19   20 am   BACKBONE|DICT|INTERRES
    41   19  144 1    
    42   20   21 2    
    43   20   22 1    
    44   22   23 1    
    45   22   24 1    
    46   22  145 1    
    47   23  146 1    
    48   23  147 1    
    49   23  148 1    
    50   24   25 am   BACKBONE|DICT|INTERRES
    51   24  149 1    
    52   25   26 2    
    53   25   27 1    
    54   27   28 1    
    55   27   29 1    
    56   27  150 1    
    57   28  151 1    
    58   28  152 1    
    59   28  153 1    
    60   29   30 am   BACKBONE|DICT|INTERRES
    61   29  154 1    
    62   30   31 2    
    63   30   32 1    
    64   32   33 1    
    65   32   34 1    
    66   32  155 1    
    67   33  156 1    
    68   33  157 1    
    69   33  158 1    
    70   34   35 am   BACKBONE|DICT|INTERRES
    71   34  159 1    
    72   35   36 2    
    73   35   37 1    
    74   37   38 1    
    75   37   39 1    
    76   37  160 1    
    77   38  161 1    
    78   38  162 1    
    79   38  163 1    
    80   39   40 am   BACKBONE|DICT|INTERRES
    81   39  164 1    
    82   40   41 2    
    83   40   42 1    
    84   42   43 1    
    85   42   44 1    
    86   42  165 1    
    87   43  166 1    
    88   43  167 1    
    89   43  168 1    
    90   44   45 am   BACKBONE|DICT|INTERRES
    91   44  169 1    
    92   45   46 2    
    93   45   47 1    
    94   47   48 1    
    95   47   49 1    
    96   47  170 1    
    97   48  171 1    
    98   48  172 1    
    99   48  173 1    
   100   49   50 am   BACKBONE|DICT|INTERRES
   101   49  174 1    
   102   50   51 2    
   103   50   52 1    
   104   52   53 1    
   105   52   54 1    
   106   52  175 1    
   107   53  176 1    
   108   53  177 1    
   109   53  178 1    
   110   54   55 am   BACKBONE|DICT|INTERRES
   111   54  179 1    
   112   55   56 2    
   113   55   57 1    
   114   57   58 1    
   115   57   59 1    
   116   57  180 1    
   117   58  181 1    
   118   58  182 1    
   119   58  183 1    
   120   59   60 am   BACKBONE|DICT|INTERRES
   121   59  184 1    
   122   60   61 2    
   123   60   62 1    
   124   62   63 1    
   125   62   64 1    
   126   62  185 1    
   127   63  186 1    
   128   63  187 1    
   129   63  188 1    
   130   64   65 am   BACKBONE|DICT|INTERRES
   131   64  189 1    
   132   65   66 2    
   133   67   68 2    
   134   67   69 am   BACKBONE|DICT|INTERRES
   135   69   70 1    
   136   69  190 1    
   137   70   71 1    
   138   70   72 1    
   139   70  191 1    
   140   71  192 1    
   141   71  193 1    
   142   71  194 1    
   143   72   73 2    
   144   72   74 am   BACKBONE|DICT|INTERRES
   145   74   75 1    
   146   74  195 1    
   147   75   76 1    
   148   75   77 1    
   149   75  196 1    
   150   76  197 1    
   151   76  198 1    
   152   76  199 1    
   153   77   78 2    
   154   77   79 am   BACKBONE|DICT|INTERRES
   155   79   80 1    
   156   79  200 1    
   157   80   81 1    
   158   80   82 1    
   159   80  201 1    
   160   81  202 1    
   161   81  203 1    
   162   81  204 1    
   163   82   83 2    
   164   82   84 am   BACKBONE|DICT|INTERRES
   165   84   85 1    
   166   84  205 1    
   167   85   86 1    
   168   85   87 1    
   169   85  206 1    
   170   86  207 1    
   171   86  208 1    
   172   86  209 1    
   173   87   88 2    
   174   87   89 am   BACKBONE|DICT|INTERRES
   175   89   90 1    
   176   89  210 1    
   177   90   91 1    
   178   90   92 1    
   179   90  211 1    
   180   91  212 1    
   181   91  213 1    
   182   91  214 1    
   183   92   93 2    
   184   92   94 am   BACKBONE|DICT|INTERRES
   185   94   95 1    
   186   94  215 1    
   187   95   96 1    
   188   95   97 1    
   189   95  216 1    
   190   96  217 1    
   191   96  218 1    
   192   96  219 1    
   193   97   98 2    
   194   97   99 am   BACKBONE|DICT|INTERRES
   195   99  100 1    
   196   99  220 1    
   197  100  101 1    
   198  100  102 1    
   199  100  221 1    
   200  101  222 1    
   201  101  223 1    
   202  101  224 1    
   203  102  103 2    
   204  102  104 am   BACKBONE|DICT|INTERRES
   205  104  105 1    
   206  104  225 1    
   207  105  106 1    
   208  105  107 1    
   209  105  226 1    
   210  106  227 1    
   211  106  228 1    
   212  106  229 1    
   213  107  108 2    
   214  107  109 am   BACKBONE|DICT|INTERRES
   215  109  110 1    
   216  109  230 1    
   217  110  111 1    
   218  110  112 1    
   219  110  231 1    
   220  111  232 1    
   221  111  233 1    
   222  111  234 1    
   223  112  113 2    
   224  112  114 am   BACKBONE|DICT|INTERRES
   225  114  115 1    
   226  114  235 1    
   227  115  116 1    
   228  115  117 1    
   229  115  236 1    
   230  116  237 1    
   231  116  238 1    
   232  116  239 1    
   233  117  118 2    
   234  117  119 am   BACKBONE|DICT|INTERRES
   235  119  120 1    
   236  119  240 1    
   237  120  121 1    
   238  120  124 1    
   239  120  241 1    
   240  121  122 am   BACKBONE|DICT|INTERRES
   241  121  123 2    
   242  122  242 1    
   243  122  243 1    
   244  124  125 1    
   245  124  244 1    
   246  124  245 1    
   247  125  126 1    
   248  126  246 1    
   249  126  247 1    
@<TRIPOS>SUBSTRUCTURE
     1 UNK         1 GROUP             0       ****    0 ROOT    
