@<TRIPOS>MOLECULE
3R540
247   249    1
SMALL
USER_CHARGES


@<TRIPOS>ATOM
      1 CA          0.5795  -12.3642  -41.3081 C.3       0 UNK        -0.1800 
      2 C          -0.4002  -11.8219  -42.3398 C.2       0 UNK         0.5000 
      3 O          -0.5370  -10.6059  -42.4773 O.2       0 UNK        -0.5000 
      4 N          -1.0850  -12.7209  -43.0577 N.am      1 UNK        -0.5000 
      5 CA         -2.0086  -12.4078  -44.1520 C.3       1 UNK         0.1400 
      6 C6         -2.8357  -13.6552  -44.5489 C.3       23 UNK        -0.0398 
      7 S7         -4.4208  -13.2227  -45.3438 S.3       23 UNK        -0.2404 
      8 C8         -4.1655  -13.8472  -47.0395 C.3       23 UNK        -0.0205 
      9 C9         -4.4456  -15.3365  -47.2554 C.ar      23 UNK        -0.0193 
     10 C10        -4.7249  -15.7742  -48.5551 C.ar      23 UNK        -0.1150 
     11 C11        -4.9718  -17.1236  -48.8220 C.ar      23 UNK        -0.0193 
     12 C12        -4.9435  -18.0439  -47.7729 C.ar      23 UNK        -0.1150 
     13 C13        -4.6594  -17.6310  -46.4701 C.ar      23 UNK        -0.0193 
     14 C14        -4.4124  -16.2786  -46.2167 C.ar      23 UNK        -0.1150 
     15 C15        -4.6084  -18.6495  -45.3417 C.3       23 UNK        -0.0205 
     16 S16        -2.8930  -19.1331  -44.9931 S.3       23 UNK        -0.2404 
     17 C17        -3.1122  -20.5275  -43.8398 C.3       23 UNK        -0.0398 
     18 CA         -2.8179  -21.8878  -44.5156 C.3       11 UNK         0.1400 
     19 N          -1.4660  -21.9473  -45.0883 N.am      11 UNK        -0.5000 
     20 C          -0.9890  -22.9300  -45.8657 C.2       10 UNK         0.5000 
     21 O          -1.6470  -23.9190  -46.1886 O.2       10 UNK        -0.5000 
     22 CA          0.4765  -22.8130  -46.3163 C.3       10 UNK         0.1400 
     23 CB          0.5688  -22.1627  -47.7026 C.3       10 UNK        -0.1800 
     24 N           1.2835  -22.0441  -45.3707 N.am      10 UNK        -0.5000 
     25 C           1.7042  -22.4973  -44.1823 C.2       9 UNK         0.5000 
     26 O           1.4424  -23.6243  -43.7604 O.2       9 UNK        -0.5000 
     27 CA          2.5189  -21.5165  -43.3134 C.3       9 UNK         0.1400 
     28 CB          3.4686  -22.2289  -42.3287 C.3       9 UNK        -0.1800 
     29 N           3.2302  -20.5019  -44.0976 N.am      9 UNK        -0.5000 
     30 C           4.2267  -20.6799  -44.9790 C.2       8 UNK         0.5000 
     31 O           4.7361  -21.7724  -45.2304 O.2       8 UNK        -0.5000 
     32 CA          4.7300  -19.4263  -45.7277 C.3       8 UNK         0.1400 
     33 CB          4.2901  -19.4742  -47.2001 C.3       8 UNK        -0.1800 
     34 N           4.2562  -18.1700  -45.1427 N.am      8 UNK        -0.5000 
     35 C           4.6814  -17.6428  -43.9862 C.2       7 UNK         0.5000 
     36 O           5.6083  -18.1051  -43.3209 O.2       7 UNK        -0.5000 
     37 CA          3.8934  -16.4286  -43.4599 C.3       7 UNK         0.1400 
     38 CB          4.4260  -15.1190  -44.0619 C.3       7 UNK        -0.1800 
     39 N           2.4583  -16.5475  -43.7333 N.am      7 UNK        -0.5000 
     40 C           1.6349  -17.4101  -43.1189 C.2       6 UNK         0.5000 
     41 O           1.9901  -18.1716  -42.2205 O.2       6 UNK        -0.5000 
     42 CA          0.1805  -17.4617  -43.6190 C.3       6 UNK         0.1400 
     43 CB         -0.6844  -16.4289  -42.8841 C.3       6 UNK        -0.1800 
     44 N           0.0803  -17.2323  -45.0592 N.am      6 UNK        -0.5000 
     45 C           0.4334  -18.1234  -45.9956 C.2       5 UNK         0.5000 
     46 O           0.8676  -19.2478  -45.7439 O.2       5 UNK        -0.5000 
     47 CA          0.3161  -17.6546  -47.4574 C.3       5 UNK         0.1400 
     48 CB         -1.1107  -17.8780  -47.9801 C.3       5 UNK        -0.1800 
     49 N           0.6781  -16.2441  -47.6308 N.am      5 UNK        -0.5000 
     50 C           1.8847  -15.7225  -47.3659 C.2       4 UNK         0.5000 
     51 O           2.8269  -16.3950  -46.9468 O.2       4 UNK        -0.5000 
     52 CA          2.0600  -14.1976  -47.5150 C.3       4 UNK         0.1400 
     53 CB          3.3727  -13.8269  -48.2347 C.3       4 UNK        -0.1800 
     54 N           0.9037  -13.5020  -48.0944 N.am      4 UNK        -0.5000 
     55 C           0.4666  -13.5286  -49.3639 C.2       3 UNK         0.5000 
     56 O           0.9911  -14.1991  -50.2521 O.2       3 UNK        -0.5000 
     57 CA         -0.7884  -12.6943  -49.7039 C.3       3 UNK         0.1400 
     58 CB         -1.9453  -13.6131  -50.1256 C.3       3 UNK        -0.1800 
     59 N          -1.2386  -11.8331  -48.6060 N.am      3 UNK        -0.5000 
     60 C          -0.6646  -10.6712  -48.2675 C.2       2 UNK         0.5000 
     61 O           0.2823  -10.1756  -48.8790 O.2       2 UNK        -0.5000 
     62 CA         -1.2254   -9.9453  -47.0280 C.3       2 UNK         0.1400 
     63 CB         -2.2426   -8.8760  -47.4552 C.3       2 UNK        -0.1800 
     64 N          -1.8429  -10.8028  -46.0071 N.am      2 UNK        -0.5000 
     65 C          -1.2450  -11.8102  -45.3554 C.2       1 UNK         0.5000 
     66 O          -0.1464  -12.2752  -45.6691 O.2       1 UNK        -0.5000 
     67 C          -3.1148  -23.0549  -43.5476 C.2       11 UNK         0.5000 
     68 O          -4.2783  -23.4268  -43.3973 O.2       11 UNK        -0.5000 
     69 N          -2.0689  -23.6600  -42.9623 N.am      12 UNK        -0.5000 
     70 CA         -2.1531  -24.8831  -42.1573 C.3       12 UNK         0.1400 
     71 CB         -0.8079  -25.1148  -41.4533 C.3       12 UNK        -0.1800 
     72 C          -2.5541  -26.1267  -42.9806 C.2       12 UNK         0.5000 
     73 O          -3.1126  -27.0689  -42.4188 O.2       12 UNK        -0.5000 
     74 N          -2.2949  -26.0913  -44.2949 N.am      13 UNK        -0.5000 
     75 CA         -2.7200  -27.0830  -45.2838 C.3       13 UNK         0.1400 
     76 CB         -1.5173  -27.4230  -46.1819 C.3       13 UNK        -0.1800 
     77 C          -3.9206  -26.5693  -46.1097 C.2       13 UNK         0.5000 
     78 O          -4.1865  -27.0996  -47.1886 O.2       13 UNK        -0.5000 
     79 N          -4.6107  -25.5363  -45.5993 N.am      14 UNK        -0.5000 
     80 CA         -5.7655  -24.8360  -46.1736 C.3       14 UNK         0.1400 
     81 CB         -6.9492  -25.7990  -46.4036 C.3       14 UNK        -0.1800 
     82 C          -5.4464  -23.9867  -47.4224 C.2       14 UNK         0.5000 
     83 O          -6.3791  -23.5342  -48.0878 O.2       14 UNK        -0.5000 
     84 N          -4.1547  -23.7645  -47.7148 N.am      15 UNK        -0.5000 
     85 CA         -3.5599  -22.9471  -48.7846 C.3       15 UNK         0.1400 
     86 CB         -3.9281  -21.4645  -48.6008 C.3       15 UNK        -0.1800 
     87 C          -3.8390  -23.4055  -50.2316 C.2       15 UNK         0.5000 
     88 O          -2.9612  -23.2667  -51.0845 O.2       15 UNK        -0.5000 
     89 N          -5.0516  -23.9103  -50.4937 N.am      16 UNK        -0.5000 
     90 CA         -5.5719  -24.4579  -51.7538 C.3       16 UNK         0.1400 
     91 CB         -4.8150  -25.7484  -52.1263 C.3       16 UNK        -0.1800 
     92 C          -5.6126  -23.4583  -52.9310 C.2       16 UNK         0.5000 
     93 O          -5.8311  -23.8770  -54.0694 O.2       16 UNK        -0.5000 
     94 N          -5.3892  -22.1672  -52.6448 N.am      17 UNK        -0.5000 
     95 CA         -5.2498  -21.0176  -53.5453 C.3       17 UNK         0.1400 
     96 CB         -6.5473  -20.7483  -54.3292 C.3       17 UNK        -0.1800 
     97 C          -4.0318  -21.1037  -54.4848 C.2       17 UNK         0.5000 
     98 O          -3.2172  -20.1808  -54.5067 O.2       17 UNK        -0.5000 
     99 N          -3.9304  -22.1974  -55.2458 N.am      18 UNK        -0.5000 
    100 CA        -2.8899  -22.4412  -56.2400 C.3       18 UNK         0.1400 
    101 CB        -3.3919  -23.4927  -57.2408 C.3       18 UNK        -0.1800 
    102 C         -1.5552  -22.8849  -55.6193 C.2       18 UNK         0.5000 
    103 O         -0.5040  -22.5058  -56.1352 O.2       18 UNK        -0.5000 
    104 N         -1.6087  -23.6733  -54.5343 N.am      19 UNK        -0.5000 
    105 CA        -0.4215  -24.2151  -53.8642 C.3       19 UNK         0.1400 
    106 CB        -0.8130  -25.3899  -52.9551 C.3       19 UNK        -0.1800 
    107 C          0.3433  -23.1331  -53.0837 C.2       19 UNK         0.5000 
    108 O          1.5667  -23.0487  -53.1950 O.2       19 UNK        -0.5000 
    109 N         -0.3995  -22.2968  -52.3469 N.am      20 UNK        -0.5000 
    110 CA         0.1204  -21.1086  -51.6670 C.3       20 UNK         0.1400 
    111 CB        -0.9149  -20.6493  -50.6357 C.3       20 UNK        -0.1800 
    112 C          0.4370  -19.9469  -52.6298 C.2       20 UNK         0.5000 
    113 O          1.1873  -19.0452  -52.2574 O.2       20 UNK        -0.5000 
    114 N         -0.1662  -19.9806  -53.8277 N.am      21 UNK        -0.5000 
    115 CA        -0.1339  -18.9644  -54.8855 C.3       21 UNK         0.1400 
    116 CB         1.2988  -18.7510  -55.4164 C.3       21 UNK        -0.1800 
    117 C         -0.8384  -17.6470  -54.4911 C.2       21 UNK         0.5000 
    118 O         -0.5529  -16.5992  -55.0738 O.2       21 UNK        -0.5000 
    119 N         -1.7619  -17.7276  -53.5253 N.am      22 UNK        -0.5000 
    120 CA        -2.6363  -16.6309  -53.0889 C.3       22 UNK         0.1400 
    121 C         -3.9295  -16.4771  -53.9414 C.2       22 UNK         0.5000 
    122 N         -4.2845  -17.4368  -54.7884 N.am      22 UNK        -0.7600 
    123 O         -4.6113  -15.4607  -53.8446 O.2       22 UNK        -0.5000 
    124 C124       -2.9403  -16.7173  -51.5719 C.3       23 UNK        -0.0398 
    125 S125       -3.7932  -18.2508  -51.0602 S.3       23 UNK        -0.2404 
    126 C126       -5.2776  -17.5958  -50.2363 C.3       23 UNK        -0.0205 
    127 H127        0.5904  -13.4544  -41.2908 H         1 UNK         0.0600 
    128 H128        1.5887  -12.0188  -41.5325 H         1 UNK         0.0600 
    129 H129        0.3104  -12.0111  -40.3127 H         1 UNK         0.0600 
    130 H130       -0.9141  -13.7009  -42.8963 H         1 UNK         0.3000 
    131 H131       -2.6933  -11.6476  -43.7688 H         1 UNK         0.0600 
    132 H132       -3.0959  -14.2239  -43.6548 H         1 UNK         0.0800 
    133 H133       -2.2572  -14.3387  -45.1732 H         1 UNK         0.0800 
    134 H134       -3.1436  -13.6343  -47.3476 H         1 UNK         0.0800 
    135 H135       -4.8128  -13.2665  -47.6987 H         1 UNK         0.0800 
    136 H136       -4.7513  -15.0590  -49.3649 H         1 UNK         0.1150 
    137 H137       -5.1380  -19.0857  -47.9741 H         1 UNK         0.1150 
    138 H138       -4.1892  -15.9775  -45.2048 H         1 UNK         0.1150 
    139 H139       -5.0613  -18.2324  -44.4411 H         1 UNK         0.0800 
    140 H140       -5.1899  -19.5346  -45.6049 H         1 UNK         0.0800 
    141 H141       -2.4463  -20.3706  -42.9895 H         1 UNK         0.0800 
    142 H142       -4.1277  -20.5041  -43.4399 H         1 UNK         0.0800 
    143 H143       -3.5170  -21.9991  -45.3468 H         1 UNK         0.0600 
    144 H144       -0.8669  -21.1550  -44.9033 H         1 UNK         0.3000 
    145 H145        0.8878  -23.8224  -46.3837 H         1 UNK         0.0600 
    146 H146        1.6058  -22.0524  -48.0200 H         1 UNK         0.0600 
    147 H147        0.0671  -22.7801  -48.4480 H         1 UNK         0.0600 
    148 H148        0.1072  -21.1745  -47.7169 H         1 UNK         0.0600 
    149 H149        1.4561  -21.0706  -45.6066 H         1 UNK         0.3000 
    150 H150        1.7852  -20.9708  -42.7189 H         1 UNK         0.0600 
    151 H151        2.9115  -22.8620  -41.6371 H         1 UNK         0.0600 
    152 H152        4.0264  -21.5090  -41.7297 H         1 UNK         0.0600 
    153 H153        4.1871  -22.8657  -42.8453 H         1 UNK         0.0600 
    154 H154        2.8854  -19.5588  -43.9855 H         1 UNK         0.3000 
    155 H155        5.8212  -19.4353  -45.6920 H         1 UNK         0.0600 
    156 H156        4.6635  -20.3727  -47.6929 H         1 UNK         0.0600 
    157 H157        4.6721  -18.6166  -47.7544 H         1 UNK         0.0600 
    158 H158        3.2037  -19.4756  -47.2948 H         1 UNK         0.0600 
    159 H159        3.5466  -17.6689  -45.6699 H         1 UNK         0.3000 
    160 H160        4.0322  -16.3842  -42.3775 H         1 UNK         0.0600 
    161 H161        4.3336  -15.1021  -45.1477 H         1 UNK         0.0600 
    162 H162        3.8910  -14.2558  -43.6656 H         1 UNK         0.0600 
    163 H163        5.4817  -14.9842  -43.8230 H         1 UNK         0.0600 
    164 H164        2.0958  -15.9914  -44.4920 H         1 UNK         0.3000 
    165 H165       -0.2143  -18.4560  -43.3986 H         1 UNK         0.0600 
    166 H166       -0.6602  -16.5956  -41.8063 H         1 UNK         0.0600 
    167 H167       -0.3329  -15.4148  -43.0689 H         1 UNK         0.0600 
    168 H168       -1.7263  -16.4926  -43.1994 H         1 UNK         0.0600 
    169 H169       -0.2783  -16.3398  -45.3603 H         1 UNK         0.3000 
    170 H170        1.0022  -18.2574  -48.0557 H         1 UNK         0.0600 
    171 H171       -1.8357  -17.2570  -47.4536 H         1 UNK         0.0600 
    172 H172       -1.1827  -17.6454  -49.0414 H         1 UNK         0.0600 
    173 H173       -1.4203  -18.9166  -47.8540 H         1 UNK         0.0600 
    174 H174       -0.0382  -15.6270  -47.9807 H         1 UNK         0.3000 
    175 H175        2.1392  -13.8168  -46.4958 H         1 UNK         0.0600 
    176 H176        3.4211  -14.2487  -49.2387 H         1 UNK         0.0600 
    177 H177        3.4859  -12.7459  -48.3167 H         1 UNK         0.0600 
    178 H178        4.2376  -14.2016  -47.6861 H         1 UNK         0.0600 
    179 H179        0.3938  -12.9287  -47.4277 H         1 UNK         0.3000 
    180 H180       -0.5360  -12.0607  -50.5568 H         1 UNK         0.0600 
    181 H181       -1.6998  -14.1255  -51.0559 H         1 UNK         0.0600 
    182 H182       -2.1517  -14.3776  -49.3764 H         1 UNK         0.0600 
    183 H183       -2.8623  -13.0503  -50.3014 H         1 UNK         0.0600 
    184 H184       -2.0171  -12.1560  -48.0538 H         1 UNK         0.3000 
    185 H185       -0.3833   -9.4393  -46.5514 H         1 UNK         0.0600 
    186 H186       -1.8133   -8.1986  -48.1949 H         1 UNK         0.0600 
    187 H187       -3.1333   -9.3236  -47.8980 H         1 UNK         0.0600 
    188 H188       -2.5575   -8.2679  -46.6069 H         1 UNK         0.0600 
    189 H189       -2.7599  -10.5142  -45.6965 H         1 UNK         0.3000 
    190 H190       -1.1393  -23.3138  -43.1540 H         1 UNK         0.3000 
    191 H191       -2.9181  -24.7327  -41.3927 H         1 UNK         0.0600 
    192 H192       -0.8574  -25.9823  -40.7940 H         1 UNK         0.0600 
    193 H193       -0.5275  -24.2574  -40.8412 H         1 UNK         0.0600 
    194 H194       -0.0051  -25.2941  -42.1692 H         1 UNK         0.0600 
    195 H195       -1.8603  -25.2620  -44.6849 H         1 UNK         0.3000 
    196 H196       -3.0420  -28.0000  -44.7869 H         1 UNK         0.0600 
    197 H197       -1.7646  -28.2166  -46.8880 H         1 UNK         0.0600 
    198 H198       -0.6705  -27.7709  -45.5901 H         1 UNK         0.0600 
    199 H199       -1.1890  -26.5588  -46.7603 H         1 UNK         0.0600 
    200 H200       -4.3025  -25.1661  -44.7087 H         1 UNK         0.3000 
    201 H201       -6.0790  -24.1212  -45.4117 H         1 UNK         0.0600 
    202 H202       -7.1596  -26.3869  -45.5103 H         1 UNK         0.0600 
    203 H203       -6.7590  -26.4901  -47.2250 H         1 UNK         0.0600 
    204 H204       -7.8587  -25.2492  -46.6483 H         1 UNK         0.0600 
    205 H205       -3.4664  -24.1917  -47.1043 H         1 UNK         0.3000 
    206 H206       -2.4815  -23.0345  -48.6506 H         1 UNK         0.0600 
    207 H207       -3.5855  -21.0893  -47.6366 H         1 UNK         0.0600 
    208 H208       -3.4695  -20.8416  -49.3676 H         1 UNK         0.0600 
    209 H209       -5.0045  -21.3060  -48.6630 H         1 UNK         0.0600 
    210 H210       -5.7088  -23.9027  -49.7155 H         1 UNK         0.3000 
    211 H211       -6.6097  -24.7286  -51.5555 H         1 UNK         0.0600 
    212 H212       -3.7846  -25.5427  -52.4133 H         1 UNK         0.0600 
    213 H213       -5.2916  -26.2565  -52.9654 H         1 UNK         0.0600 
    214 H214       -4.7974  -26.4502  -51.2924 H         1 UNK         0.0600 
    215 H215       -5.1936  -21.9646  -51.6753 H         1 UNK         0.3000 
    216 H216       -5.0825  -20.1562  -52.8986 H         1 UNK         0.0600 
    217 H217       -7.3918  -20.6106  -53.6540 H         1 UNK         0.0600 
    218 H218       -6.7936  -21.5620  -55.0117 H         1 UNK         0.0600 
    219 H219       -6.4576  -19.8397  -54.9257 H         1 UNK         0.0600 
    220 H220       -4.6388  -22.9169  -55.1219 H         1 UNK         0.3000 
    221 H221       -2.7097  -21.5127  -56.7863 H         1 UNK         0.0600 
    222 H222       -3.6177  -24.4405  -56.7503 H         1 UNK         0.0600 
    223 H223       -4.2963  -23.1539  -57.7466 H         1 UNK         0.0600 
    224 H224       -2.6441  -23.6895  -58.0102 H         1 UNK         0.0600 
    225 H225       -2.5092  -23.9221  -54.1529 H         1 UNK         0.3000 
    226 H226        0.2500  -24.6051  -54.6324 H         1 UNK         0.0600 
    227 H227       -1.3443  -26.1617  -53.5120 H         1 UNK         0.0600 
    228 H228        0.0737  -25.8544  -52.5221 H         1 UNK         0.0600 
    229 H229       -1.4472  -25.0743  -52.1283 H         1 UNK         0.0600 
    230 H230       -1.3881  -22.4933  -52.2318 H         1 UNK         0.3000 
    231 H231        1.0405  -21.3743  -51.1423 H         1 UNK         0.0600 
    232 H232       -1.1227  -21.4312  -49.9096 H         1 UNK         0.0600 
    233 H233       -0.5628  -19.7758  -50.0879 H         1 UNK         0.0600 
    234 H234       -1.8564  -20.3869  -51.1163 H         1 UNK         0.0600 
    235 H235       -0.7768  -20.7638  -54.0121 H         1 UNK         0.3000 
    236 H236       -0.7230  -19.3781  -55.7053 H         1 UNK         0.0600 
    237 H237        1.7651  -19.7001  -55.6813 H         1 UNK         0.0600 
    238 H238        1.2944  -18.1316  -56.3139 H         1 UNK         0.0600 
    239 H239        1.9353  -18.2556  -54.6831 H         1 UNK         0.0600 
    240 H240       -1.9805  -18.6402  -53.1510 H         1 UNK         0.3000 
    241 H241       -2.0893  -15.6974  -53.2342 H         1 UNK         0.0600 
    242 H242       -5.1132  -17.3218  -55.3488 H         1 UNK         0.3800 
    243 H243       -3.7535  -18.2995  -54.8345 H         1 UNK         0.3800 
    244 H244       -2.0053  -16.6560  -51.0152 H         1 UNK         0.0800 
    245 H245       -3.5223  -15.8493  -51.2620 H         1 UNK         0.0800 
    246 H246       -5.7121  -16.7914  -50.8319 H         1 UNK         0.0800 
    247 H247       -6.0308  -18.3843  -50.1994 H         1 UNK         0.0800 
@<TRIPOS>BOND
     1    1    2 1    
     2    1  127 1    
     3    1  128 1    
     4    1  129 1    
     5    2    3 2    
     6    2    4 am   BACKBONE|DICT|INTERRES
     7    4    5 1    
     8    4  130 1    
     9    5    6 1    
    10    5   65 1    
    11    5  131 1    
    12    6    7 1    
    13    6  132 1    
    14    6  133 1    
    15    7    8 1    
    16    8    9 1    
    17    8  134 1    
    18    8  135 1    
    19    9   10 ar   
    20    9   14 ar   
    21   10   11 ar   
    22   10  136 1    
    23   11   12 ar   
    24   11  126 1    
    25   12   13 ar   
    26   12  137 1    
    27   13   14 ar   
    28   13   15 1    
    29   14  138 1    
    30   15   16 1    
    31   15  139 1    
    32   15  140 1    
    33   16   17 1    
    34   17   18 1    
    35   17  141 1    
    36   17  142 1    
    37   18   19 1    
    38   18   67 1    
    39   18  143 1    
    40   19   20 am   BACKBONE|DICT|INTERRES
    41   19  144 1    
    42   20   21 2    
    43   20   22 1    
    44   22   23 1    
    45   22   24 1    
    46   22  145 1    
    47   23  146 1    
    48   23  147 1    
    49   23  148 1    
    50   24   25 am   BACKBONE|DICT|INTERRES
    51   24  149 1    
    52   25   26 2    
    53   25   27 1    
    54   27   28 1    
    55   27   29 1    
    56   27  150 1    
    57   28  151 1    
    58   28  152 1    
    59   28  153 1    
    60   29   30 am   BACKBONE|DICT|INTERRES
    61   29  154 1    
    62   30   31 2    
    63   30   32 1    
    64   32   33 1    
    65   32   34 1    
    66   32  155 1    
    67   33  156 1    
    68   33  157 1    
    69   33  158 1    
    70   34   35 am   BACKBONE|DICT|INTERRES
    71   34  159 1    
    72   35   36 2    
    73   35   37 1    
    74   37   38 1    
    75   37   39 1    
    76   37  160 1    
    77   38  161 1    
    78   38  162 1    
    79   38  163 1    
    80   39   40 am   BACKBONE|DICT|INTERRES
    81   39  164 1    
    82   40   41 2    
    83   40   42 1    
    84   42   43 1    
    85   42   44 1    
    86   42  165 1    
    87   43  166 1    
    88   43  167 1    
    89   43  168 1    
    90   44   45 am   BACKBONE|DICT|INTERRES
    91   44  169 1    
    92   45   46 2    
    93   45   47 1    
    94   47   48 1    
    95   47   49 1    
    96   47  170 1    
    97   48  171 1    
    98   48  172 1    
    99   48  173 1    
   100   49   50 am   BACKBONE|DICT|INTERRES
   101   49  174 1    
   102   50   51 2    
   103   50   52 1    
   104   52   53 1    
   105   52   54 1    
   106   52  175 1    
   107   53  176 1    
   108   53  177 1    
   109   53  178 1    
   110   54   55 am   BACKBONE|DICT|INTERRES
   111   54  179 1    
   112   55   56 2    
   113   55   57 1    
   114   57   58 1    
   115   57   59 1    
   116   57  180 1    
   117   58  181 1    
   118   58  182 1    
   119   58  183 1    
   120   59   60 am   BACKBONE|DICT|INTERRES
   121   59  184 1    
   122   60   61 2    
   123   60   62 1    
   124   62   63 1    
   125   62   64 1    
   126   62  185 1    
   127   63  186 1    
   128   63  187 1    
   129   63  188 1    
   130   64   65 am   BACKBONE|DICT|INTERRES
   131   64  189 1    
   132   65   66 2    
   133   67   68 2    
   134   67   69 am   BACKBONE|DICT|INTERRES
   135   69   70 1    
   136   69  190 1    
   137   70   71 1    
   138   70   72 1    
   139   70  191 1    
   140   71  192 1    
   141   71  193 1    
   142   71  194 1    
   143   72   73 2    
   144   72   74 am   BACKBONE|DICT|INTERRES
   145   74   75 1    
   146   74  195 1    
   147   75   76 1    
   148   75   77 1    
   149   75  196 1    
   150   76  197 1    
   151   76  198 1    
   152   76  199 1    
   153   77   78 2    
   154   77   79 am   BACKBONE|DICT|INTERRES
   155   79   80 1    
   156   79  200 1    
   157   80   81 1    
   158   80   82 1    
   159   80  201 1    
   160   81  202 1    
   161   81  203 1    
   162   81  204 1    
   163   82   83 2    
   164   82   84 am   BACKBONE|DICT|INTERRES
   165   84   85 1    
   166   84  205 1    
   167   85   86 1    
   168   85   87 1    
   169   85  206 1    
   170   86  207 1    
   171   86  208 1    
   172   86  209 1    
   173   87   88 2    
   174   87   89 am   BACKBONE|DICT|INTERRES
   175   89   90 1    
   176   89  210 1    
   177   90   91 1    
   178   90   92 1    
   179   90  211 1    
   180   91  212 1    
   181   91  213 1    
   182   91  214 1    
   183   92   93 2    
   184   92   94 am   BACKBONE|DICT|INTERRES
   185   94   95 1    
   186   94  215 1    
   187   95   96 1    
   188   95   97 1    
   189   95  216 1    
   190   96  217 1    
   191   96  218 1    
   192   96  219 1    
   193   97   98 2    
   194   97   99 am   BACKBONE|DICT|INTERRES
   195   99  100 1    
   196   99  220 1    
   197  100  101 1    
   198  100  102 1    
   199  100  221 1    
   200  101  222 1    
   201  101  223 1    
   202  101  224 1    
   203  102  103 2    
   204  102  104 am   BACKBONE|DICT|INTERRES
   205  104  105 1    
   206  104  225 1    
   207  105  106 1    
   208  105  107 1    
   209  105  226 1    
   210  106  227 1    
   211  106  228 1    
   212  106  229 1    
   213  107  108 2    
   214  107  109 am   BACKBONE|DICT|INTERRES
   215  109  110 1    
   216  109  230 1    
   217  110  111 1    
   218  110  112 1    
   219  110  231 1    
   220  111  232 1    
   221  111  233 1    
   222  111  234 1    
   223  112  113 2    
   224  112  114 am   BACKBONE|DICT|INTERRES
   225  114  115 1    
   226  114  235 1    
   227  115  116 1    
   228  115  117 1    
   229  115  236 1    
   230  116  237 1    
   231  116  238 1    
   232  116  239 1    
   233  117  118 2    
   234  117  119 am   BACKBONE|DICT|INTERRES
   235  119  120 1    
   236  119  240 1    
   237  120  121 1    
   238  120  124 1    
   239  120  241 1    
   240  121  122 am   BACKBONE|DICT|INTERRES
   241  121  123 2    
   242  122  242 1    
   243  122  243 1    
   244  124  125 1    
   245  124  244 1    
   246  124  245 1    
   247  125  126 1    
   248  126  246 1    
   249  126  247 1    
@<TRIPOS>SUBSTRUCTURE
     1 UNK         1 GROUP             0       ****    0 ROOT    
