@<TRIPOS>MOLECULE
3R540
247   249    1
SMALL
USER_CHARGES


@<TRIPOS>ATOM
      1 CA         -1.5137  -14.4973  -42.1124 C.3       0 UNK        -0.1800 
      2 C          -1.1527  -14.3328  -43.5814 C.2       0 UNK         0.5000 
      3 O          -0.2082  -14.9642  -44.0546 O.2       0 UNK        -0.5000 
      4 N          -1.9098  -13.4853  -44.2902 N.am      1 UNK        -0.5000 
      5 CA         -1.7533  -13.1093  -45.6990 C.3       1 UNK         0.1400 
      6 C6         -1.6778  -14.3242  -46.6613 C.3       23 UNK        -0.0398 
      7 S7         -2.1990  -13.9006  -48.3559 S.3       23 UNK        -0.2404 
      8 C8         -2.6706  -15.5348  -49.0004 C.3       23 UNK        -0.0205 
      9 C9         -1.4635  -16.3212  -49.4875 C.ar      23 UNK        -0.0193 
     10 C10        -0.9653  -16.0920  -50.7705 C.ar      23 UNK        -0.1150 
     11 C11         0.1093  -16.8351  -51.2606 C.ar      23 UNK        -0.0193 
     12 C12         0.6879  -17.8152  -50.4507 C.ar      23 UNK        -0.1150 
     13 C13         0.2129  -18.0563  -49.1573 C.ar      23 UNK        -0.0193 
     14 C14        -0.8672  -17.2955  -48.6817 C.ar      23 UNK        -0.1150 
     15 C15         0.9169  -19.1431  -48.3358 C.3       23 UNK        -0.0205 
     16 S16         0.2489  -19.4931  -46.6708 S.3       23 UNK        -0.2404 
     17 C17        -1.3637  -20.2318  -47.0790 C.3       23 UNK        -0.0398 
     18 CA         -1.3737  -21.7749  -47.0258 C.3       11 UNK         0.1400 
     19 N          -1.0465  -22.3060  -45.6953 N.am      11 UNK        -0.5000 
     20 C          -0.8660  -23.6074  -45.4196 C.2       10 UNK         0.5000 
     21 O          -0.9072  -24.4945  -46.2684 O.2       10 UNK        -0.5000 
     22 CA         -0.6635  -24.0097  -43.9467 C.3       10 UNK         0.1400 
     23 CB          0.8337  -24.0557  -43.6090 C.3       10 UNK        -0.1800 
     24 N          -1.3395  -23.1402  -42.9848 N.am      10 UNK        -0.5000 
     25 C          -2.6347  -22.7938  -42.9790 C.2       9 UNK         0.5000 
     26 O          -3.4582  -23.2441  -43.7779 O.2       9 UNK        -0.5000 
     27 CA         -3.0821  -21.7478  -41.9320 C.3       9 UNK         0.1400 
     28 CB         -4.0861  -22.3708  -40.9499 C.3       9 UNK        -0.1800 
     29 N          -1.9881  -21.1331  -41.1645 N.am      9 UNK        -0.5000 
     30 C          -1.0049  -20.3716  -41.6670 C.2       8 UNK         0.5000 
     31 O          -0.9224  -20.0830  -42.8638 O.2       8 UNK        -0.5000 
     32 CA          0.0925  -19.9333  -40.6714 C.3       8 UNK         0.1400 
     33 CB          0.7371  -21.1499  -39.9808 C.3       8 UNK        -0.1800 
     34 N           1.1540  -19.1818  -41.3391 N.am      8 UNK        -0.5000 
     35 C           1.0923  -17.8857  -41.6620 C.2       7 UNK         0.5000 
     36 O           0.1837  -17.1354  -41.2995 O.2       7 UNK        -0.5000 
     37 CA          2.2470  -17.3664  -42.5385 C.3       7 UNK         0.1400 
     38 CB          2.2441  -18.0501  -43.9145 C.3       7 UNK        -0.1800 
     39 N           2.1587  -15.9233  -42.7472 N.am      7 UNK        -0.5000 
     40 C           2.8012  -15.0008  -42.0250 C.2       6 UNK         0.5000 
     41 O           3.5789  -15.2710  -41.1067 O.2       6 UNK        -0.5000 
     42 CA          2.5355  -13.5316  -42.4208 C.3       6 UNK         0.1400 
     43 CB          3.3461  -12.5228  -41.5805 C.3       6 UNK        -0.1800 
     44 N           2.7310  -13.2731  -43.8531 N.am      6 UNK        -0.5000 
     45 C           3.8455  -13.4703  -44.5710 C.2       5 UNK         0.5000 
     46 O           4.8913  -13.9455  -44.1212 O.2       5 UNK        -0.5000 
     47 CA          3.7969  -13.0067  -46.0369 C.3       5 UNK         0.1400 
     48 CB          4.3562  -11.5806  -46.1484 C.3       5 UNK        -0.1800 
     49 N           4.6175  -13.8886  -46.8658 N.am      5 UNK        -0.5000 
     50 C           4.2415  -14.9044  -47.6586 C.2       4 UNK         0.5000 
     51 O           5.0852  -15.6442  -48.1624 O.2       4 UNK        -0.5000 
     52 CA          2.7522  -15.1715  -47.9856 C.3       4 UNK         0.1400 
     53 CB          2.0046  -15.7787  -46.7896 C.3       4 UNK        -0.1800 
     54 N           2.0234  -14.0231  -48.5297 N.am      4 UNK        -0.5000 
     55 C           2.3001  -13.4245  -49.6971 C.2       3 UNK         0.5000 
     56 O           3.2035  -13.7849  -50.4522 O.2       3 UNK        -0.5000 
     57 CA          1.4185  -12.2301  -50.1101 C.3       3 UNK         0.1400 
     58 CB          0.4084  -12.6494  -51.1884 C.3       3 UNK        -0.1800 
     59 N           0.6848  -11.6374  -48.9904 N.am      3 UNK        -0.5000 
     60 C           1.1514  -10.6480  -48.2162 C.2       2 UNK         0.5000 
     61 O           2.2645  -10.1423  -48.3538 O.2       2 UNK        -0.5000 
     62 CA          0.2162  -10.1202  -47.1104 C.3       2 UNK         0.1400 
     63 CB         -0.4808   -8.8305  -47.5700 C.3       2 UNK        -0.1800 
     64 N          -0.8031  -11.0948  -46.7152 N.am      2 UNK        -0.5000 
     65 C          -0.5721  -12.1378  -45.9092 C.2       1 UNK         0.5000 
     66 O           0.5206  -12.3513  -45.3813 O.2       1 UNK        -0.5000 
     67 C          -2.7311  -22.2817  -47.5600 C.2       11 UNK         0.5000 
     68 O          -2.9009  -22.3754  -48.7757 O.2       11 UNK        -0.5000 
     69 N          -3.6739  -22.5845  -46.6598 N.am      12 UNK        -0.5000 
     70 CA         -4.9501  -23.2011  -47.0005 C.3       12 UNK         0.1400 
     71 CB         -6.0474  -22.6755  -46.0612 C.3       12 UNK        -0.1800 
     72 C          -4.8303  -24.7299  -46.9223 C.2       12 UNK         0.5000 
     73 O          -5.1785  -25.4135  -47.8848 O.2       12 UNK        -0.5000 
     74 N          -4.3375  -25.2227  -45.7780 N.am      13 UNK        -0.5000 
     75 CA         -4.2390  -26.6383  -45.4344 C.3       13 UNK         0.1400 
     76 CB         -4.0801  -26.7644  -43.9066 C.3       13 UNK        -0.1800 
     77 C          -3.1332  -27.3718  -46.2202 C.2       13 UNK         0.5000 
     78 O          -3.4035  -27.9090  -47.2945 O.2       13 UNK        -0.5000 
     79 N          -1.9192  -27.4155  -45.6542 N.am      14 UNK        -0.5000 
     80 CA         -0.7715  -28.1990  -46.1247 C.3       14 UNK         0.1400 
     81 CB          0.4013  -27.9898  -45.1547 C.3       14 UNK        -0.1800 
     82 C          -0.3275  -27.9065  -47.5709 C.2       14 UNK         0.5000 
     83 O           0.0887  -28.8274  -48.2747 O.2       14 UNK        -0.5000 
     84 N          -0.4377  -26.6414  -47.9918 N.am      15 UNK        -0.5000 
     85 CA         -0.1063  -26.1747  -49.3377 C.3       15 UNK         0.1400 
     86 CB          0.2128  -24.6746  -49.2723 C.3       15 UNK        -0.1800 
     87 C          -1.2109  -26.4578  -50.3780 C.2       15 UNK         0.5000 
     88 O          -0.9826  -26.2037  -51.5607 O.2       15 UNK        -0.5000 
     89 N          -2.3677  -26.9764  -49.9337 N.am      16 UNK        -0.5000 
     90 CA         -3.5346  -27.3724  -50.7263 C.3       16 UNK         0.1400 
     91 CB         -3.1956  -28.5719  -51.6361 C.3       16 UNK        -0.1800 
     92 C          -4.1547  -26.1863  -51.4892 C.2       16 UNK         0.5000 
     93 O          -4.1495  -26.1635  -52.7217 O.2       16 UNK        -0.5000 
     94 N          -4.6804  -25.2231  -50.7199 N.am      17 UNK        -0.5000 
     95 CA         -5.3802  -24.0166  -51.1716 C.3       17 UNK         0.1400 
     96 CB         -6.7079  -24.3809  -51.8677 C.3       17 UNK        -0.1800 
     97 C          -4.5025  -23.0610  -52.0061 C.2       17 UNK         0.5000 
     98 O          -4.9954  -22.4213  -52.9378 O.2       17 UNK        -0.5000 
     99 N          -3.2254  -22.9262  -51.6227 N.am      18 UNK        -0.5000 
    100 CA        -2.2866  -21.9577  -52.1959 C.3       18 UNK         0.1400 
    101 CB        -0.8821  -22.1799  -51.6212 C.3       18 UNK        -0.1800 
    102 C         -2.7390  -20.5026  -51.9796 C.2       18 UNK         0.5000 
    103 O         -2.5760  -19.6787  -52.8769 O.2       18 UNK        -0.5000 
    104 N         -3.3743  -20.2372  -50.8282 N.am      19 UNK        -0.5000 
    105 CA        -4.0098  -18.9589  -50.5009 C.3       19 UNK         0.1400 
    106 CB        -4.5702  -19.0174  -49.0709 C.3       19 UNK        -0.1800 
    107 C         -5.1197  -18.5453  -51.4886 C.2       19 UNK         0.5000 
    108 O         -5.2888  -17.3517  -51.7377 O.2       19 UNK        -0.5000 
    109 N         -5.8425  -19.5322  -52.0385 N.am      20 UNK        -0.5000 
    110 CA        -6.8549  -19.3276  -53.0725 C.3       20 UNK         0.1400 
    111 CB        -7.8795  -20.4717  -53.0338 C.3       20 UNK        -0.1800 
    112 C         -6.2129  -19.2104  -54.4646 C.2       20 UNK         0.5000 
    113 O         -6.6036  -18.3332  -55.2356 O.2       20 UNK        -0.5000 
    114 N         -5.2218  -20.0688  -54.7535 N.am      21 UNK        -0.5000 
    115 CA        -4.4732  -20.0976  -56.0158 C.3       21 UNK         0.1400 
    116 CB        -3.5020  -21.2868  -56.0113 C.3       21 UNK        -0.1800 
    117 C         -3.7218  -18.7851  -56.3170 C.2       21 UNK         0.5000 
    118 O         -3.6573  -18.3753  -57.4768 O.2       21 UNK        -0.5000 
    119 N         -3.2111  -18.1331  -55.2659 N.am      22 UNK        -0.5000 
    120 CA        -2.6416  -16.7769  -55.3003 C.3       22 UNK         0.1400 
    121 C         -3.6773  -15.6356  -55.5481 C.2       22 UNK         0.5000 
    122 N         -4.9820  -15.8830  -55.5649 N.am      22 UNK        -0.7600 
    123 O         -3.2835  -14.4890  -55.7441 O.2       22 UNK        -0.5000 
    124 C124       -1.8071  -16.4878  -54.0267 C.3       23 UNK        -0.0398 
    125 S125       -0.2749  -17.4757  -53.9384 S.3       23 UNK        -0.2404 
    126 C126        0.6532  -16.5716  -52.6576 C.3       23 UNK        -0.0205 
    127 H127       -2.2330  -13.7473  -41.7832 H         1 UNK         0.0600 
    128 H128       -0.6231  -14.4078  -41.4909 H         1 UNK         0.0600 
    129 H129       -1.9471  -15.4831  -41.9448 H         1 UNK         0.0600 
    130 H130       -2.6537  -12.9989  -43.8097 H         1 UNK         0.3000 
    131 H131       -2.6705  -12.5627  -45.9256 H         1 UNK         0.0600 
    132 H132       -0.6775  -14.7538  -46.6876 H         1 UNK         0.0800 
    133 H133       -2.3333  -15.1158  -46.2961 H         1 UNK         0.0800 
    134 H134       -3.2210  -16.0977  -48.2453 H         1 UNK         0.0800 
    135 H135       -3.3653  -15.3941  -49.8301 H         1 UNK         0.0800 
    136 H136       -1.4236  -15.3363  -51.3915 H         1 UNK         0.1150 
    137 H137        1.5192  -18.3930  -50.8298 H         1 UNK         0.1150 
    138 H138       -1.2549  -17.4512  -47.6864 H         1 UNK         0.1150 
    139 H139        0.9204  -20.0727  -48.9069 H         1 UNK         0.0800 
    140 H140        1.9616  -18.8528  -48.2161 H         1 UNK         0.0800 
    141 H141       -1.6460  -19.8967  -48.0776 H         1 UNK         0.0800 
    142 H142       -2.1059  -19.8181  -46.3937 H         1 UNK         0.0800 
    143 H143       -0.6073  -22.1357  -47.7140 H         1 UNK         0.0600 
    144 H144       -0.9788  -21.6325  -44.9435 H         1 UNK         0.3000 
    145 H145       -1.0735  -25.0129  -43.8233 H         1 UNK         0.0600 
    146 H146        1.0010  -24.4526  -42.6075 H         1 UNK         0.0600 
    147 H147        1.3750  -24.6970  -44.3057 H         1 UNK         0.0600 
    148 H148        1.2865  -23.0644  -43.6580 H         1 UNK         0.0600 
    149 H149       -0.7497  -22.7092  -42.2900 H         1 UNK         0.3000 
    150 H150       -3.5900  -20.9521  -42.4805 H         1 UNK         0.0600 
    151 H151       -4.4801  -21.6239  -40.2605 H         1 UNK         0.0600 
    152 H152       -3.6298  -23.1668  -40.3601 H         1 UNK         0.0600 
    153 H153       -4.9379  -22.8015  -41.4785 H         1 UNK         0.0600 
    154 H154       -1.9818  -21.3351  -40.1750 H         1 UNK         0.3000 
    155 H155       -0.3726  -19.3034  -39.9102 H         1 UNK         0.0600 
    156 H156        0.0144  -21.7014  -39.3787 H         1 UNK         0.0600 
    157 H157        1.5365  -20.8399  -39.3072 H         1 UNK         0.0600 
    158 H158        1.1636  -21.8462  -40.7042 H         1 UNK         0.0600 
    159 H159        1.9202  -19.7303  -41.7004 H         1 UNK         0.3000 
    160 H160        3.1835  -17.6161  -42.0355 H         1 UNK         0.0600 
    161 H161        2.2468  -19.1374  -43.8331 H         1 UNK         0.0600 
    162 H162        3.1311  -17.7742  -44.4834 H         1 UNK         0.0600 
    163 H163        1.3638  -17.7679  -44.4931 H         1 UNK         0.0600 
    164 H164        1.4425  -15.6119  -43.4000 H         1 UNK         0.3000 
    165 H165        1.4804  -13.3454  -42.2194 H         1 UNK         0.0600 
    166 H166        3.1001  -11.4965  -41.8532 H         1 UNK         0.0600 
    167 H167        3.1290  -12.6363  -40.5178 H         1 UNK         0.0600 
    168 H168        4.4204  -12.6559  -41.7115 H         1 UNK         0.0600 
    169 H169        1.9105  -12.9125  -44.3399 H         1 UNK         0.3000 
    170 H170        2.7658  -12.9847  -46.3733 H         1 UNK         0.0600 
    171 H171        4.4014  -11.2555  -47.1876 H         1 UNK         0.0600 
    172 H172        3.7236  -10.8721  -45.6122 H         1 UNK         0.0600 
    173 H173        5.3623  -11.5050  -45.7336 H         1 UNK         0.0600 
    174 H174        5.6054  -13.8050  -46.6772 H         1 UNK         0.3000 
    175 H175        2.7447  -15.9346  -48.7674 H         1 UNK         0.0600 
    176 H176        1.7925  -15.0541  -46.0059 H         1 UNK         0.0600 
    177 H177        1.0572  -16.2130  -47.0973 H         1 UNK         0.0600 
    178 H178        2.5884  -16.5847  -46.3491 H         1 UNK         0.0600 
    179 H179        1.2669  -13.6567  -47.9742 H         1 UNK         0.3000 
    180 H180        2.0793  -11.4799  -50.5499 H         1 UNK         0.0600 
    181 H181       -0.1345  -11.7866  -51.5745 H         1 UNK         0.0600 
    182 H182       -0.3229  -13.3537  -50.7957 H         1 UNK         0.0600 
    183 H183        0.9068  -13.1241  -52.0344 H         1 UNK         0.0600 
    184 H184       -0.2478  -11.9866  -48.8229 H         1 UNK         0.3000 
    185 H185        0.8342   -9.8813  -46.2419 H         1 UNK         0.0600 
    186 H186       -1.1190   -9.0039  -48.4374 H         1 UNK         0.0600 
    187 H187       -1.0988   -8.4117  -46.7757 H         1 UNK         0.0600 
    188 H188        0.2496   -8.0691  -47.8470 H         1 UNK         0.0600 
    189 H189       -1.7221  -10.9732  -47.1171 H         1 UNK         0.3000 
    190 H190       -3.4510  -22.5295  -45.6725 H         1 UNK         0.3000 
    191 H191       -5.2372  -22.9318  -48.0181 H         1 UNK         0.0600 
    192 H192       -5.8364  -22.8991  -45.0151 H         1 UNK         0.0600 
    193 H193       -7.0126  -23.1219  -46.3034 H         1 UNK         0.0600 
    194 H194       -6.1568  -21.5949  -46.1546 H         1 UNK         0.0600 
    195 H195       -4.0571  -24.5662  -45.0556 H         1 UNK         0.3000 
    196 H196       -5.1832  -27.1168  -45.7030 H         1 UNK         0.0600 
    197 H197       -3.9530  -27.8057  -43.6072 H         1 UNK         0.0600 
    198 H198       -4.9659  -26.3892  -43.3937 H         1 UNK         0.0600 
    199 H199       -3.2254  -26.2012  -43.5314 H         1 UNK         0.0600 
    200 H200       -1.7927  -26.9338  -44.7783 H         1 UNK         0.3000 
    201 H201       -1.0627  -29.2505  -46.0839 H         1 UNK         0.0600 
    202 H202        0.1361  -28.2889  -44.1406 H         1 UNK         0.0600 
    203 H203        0.7155  -26.9460  -45.1274 H         1 UNK         0.0600 
    204 H204        1.2660  -28.5848  -45.4519 H         1 UNK         0.0600 
    205 H205       -0.7527  -25.9300  -47.3328 H         1 UNK         0.3000 
    206 H206        0.7949  -26.6935  -49.6706 H         1 UNK         0.0600 
    207 H207        0.9308  -24.4522  -48.4827 H         1 UNK         0.0600 
    208 H208        0.6501  -24.3307  -50.2091 H         1 UNK         0.0600 
    209 H209       -0.6863  -24.0884  -49.0863 H         1 UNK         0.0600 
    210 H210       -2.4607  -27.1457  -48.9374 H         1 UNK         0.3000 
    211 H211       -4.2877  -27.7109  -50.0128 H         1 UNK         0.0600 
    212 H212       -2.4523  -28.3165  -52.3919 H         1 UNK         0.0600 
    213 H213       -4.0847  -28.9247  -52.1600 H         1 UNK         0.0600 
    214 H214       -2.8078  -29.4082  -51.0545 H         1 UNK         0.0600 
    215 H215       -4.6611  -25.3547  -49.7109 H         1 UNK         0.3000 
    216 H216       -5.6357  -23.4648  -50.2674 H         1 UNK         0.0600 
    217 H217       -7.3133  -23.4922  -52.0454 H         1 UNK         0.0600 
    218 H218       -7.3028  -25.0568  -51.2534 H         1 UNK         0.0600 
    219 H219       -6.5419  -24.8613  -52.8324 H         1 UNK         0.0600 
    220 H220       -2.9164  -23.4218  -50.7975 H         1 UNK         0.3000 
    221 H221       -2.2418  -22.1395  -53.2702 H         1 UNK         0.0600 
    222 H222       -0.8604  -22.0525  -50.5388 H         1 UNK         0.0600 
    223 H223       -0.5232  -23.1810  -51.8576 H         1 UNK         0.0600 
    224 H224       -0.1706  -21.4713  -52.0475 H         1 UNK         0.0600 
    225 H225       -3.4313  -20.9785  -50.1378 H         1 UNK         0.3000 
    226 H226       -3.2375  -18.1902  -50.5425 H         1 UNK         0.0600 
    227 H227       -3.7790  -19.1473  -48.3361 H         1 UNK         0.0600 
    228 H228       -5.0902  -18.0928  -48.8165 H         1 UNK         0.0600 
    229 H229       -5.2791  -19.8374  -48.9493 H         1 UNK         0.0600 
    230 H230       -5.6021  -20.4895  -51.8244 H         1 UNK         0.3000 
    231 H231       -7.3889  -18.3972  -52.8670 H         1 UNK         0.0600 
    232 H232       -7.4314  -21.4291  -53.2979 H         1 UNK         0.0600 
    233 H233       -8.3266  -20.5700  -52.0446 H         1 UNK         0.0600 
    234 H234       -8.6898  -20.2879  -53.7403 H         1 UNK         0.0600 
    235 H235       -4.9880  -20.7843  -54.0725 H         1 UNK         0.3000 
    236 H236       -5.1983  -20.2549  -56.8167 H         1 UNK         0.0600 
    237 H237       -2.6996  -21.1430  -55.2887 H         1 UNK         0.0600 
    238 H238       -4.0127  -22.2195  -55.7704 H         1 UNK         0.0600 
    239 H239       -3.0379  -21.4111  -56.9903 H         1 UNK         0.0600 
    240 H240       -3.2247  -18.5898  -54.3581 H         1 UNK         0.3000 
    241 H241       -1.9635  -16.7355  -56.1547 H         1 UNK         0.0600 
    242 H242       -5.6207  -15.1225  -55.7337 H         1 UNK         0.3800 
    243 H243       -5.3512  -16.8180  -55.4300 H         1 UNK         0.3800 
    244 H244       -1.5200  -15.4357  -53.9817 H         1 UNK         0.0800 
    245 H245       -2.4082  -16.6843  -53.1374 H         1 UNK         0.0800 
    246 H246        0.6398  -15.5023  -52.8720 H         1 UNK         0.0800 
    247 H247        1.7004  -16.8732  -52.7087 H         1 UNK         0.0800 
@<TRIPOS>BOND
     1    1    2 1    
     2    1  127 1    
     3    1  128 1    
     4    1  129 1    
     5    2    3 2    
     6    2    4 am   BACKBONE|DICT|INTERRES
     7    4    5 1    
     8    4  130 1    
     9    5    6 1    
    10    5   65 1    
    11    5  131 1    
    12    6    7 1    
    13    6  132 1    
    14    6  133 1    
    15    7    8 1    
    16    8    9 1    
    17    8  134 1    
    18    8  135 1    
    19    9   10 ar   
    20    9   14 ar   
    21   10   11 ar   
    22   10  136 1    
    23   11   12 ar   
    24   11  126 1    
    25   12   13 ar   
    26   12  137 1    
    27   13   14 ar   
    28   13   15 1    
    29   14  138 1    
    30   15   16 1    
    31   15  139 1    
    32   15  140 1    
    33   16   17 1    
    34   17   18 1    
    35   17  141 1    
    36   17  142 1    
    37   18   19 1    
    38   18   67 1    
    39   18  143 1    
    40   19   20 am   BACKBONE|DICT|INTERRES
    41   19  144 1    
    42   20   21 2    
    43   20   22 1    
    44   22   23 1    
    45   22   24 1    
    46   22  145 1    
    47   23  146 1    
    48   23  147 1    
    49   23  148 1    
    50   24   25 am   BACKBONE|DICT|INTERRES
    51   24  149 1    
    52   25   26 2    
    53   25   27 1    
    54   27   28 1    
    55   27   29 1    
    56   27  150 1    
    57   28  151 1    
    58   28  152 1    
    59   28  153 1    
    60   29   30 am   BACKBONE|DICT|INTERRES
    61   29  154 1    
    62   30   31 2    
    63   30   32 1    
    64   32   33 1    
    65   32   34 1    
    66   32  155 1    
    67   33  156 1    
    68   33  157 1    
    69   33  158 1    
    70   34   35 am   BACKBONE|DICT|INTERRES
    71   34  159 1    
    72   35   36 2    
    73   35   37 1    
    74   37   38 1    
    75   37   39 1    
    76   37  160 1    
    77   38  161 1    
    78   38  162 1    
    79   38  163 1    
    80   39   40 am   BACKBONE|DICT|INTERRES
    81   39  164 1    
    82   40   41 2    
    83   40   42 1    
    84   42   43 1    
    85   42   44 1    
    86   42  165 1    
    87   43  166 1    
    88   43  167 1    
    89   43  168 1    
    90   44   45 am   BACKBONE|DICT|INTERRES
    91   44  169 1    
    92   45   46 2    
    93   45   47 1    
    94   47   48 1    
    95   47   49 1    
    96   47  170 1    
    97   48  171 1    
    98   48  172 1    
    99   48  173 1    
   100   49   50 am   BACKBONE|DICT|INTERRES
   101   49  174 1    
   102   50   51 2    
   103   50   52 1    
   104   52   53 1    
   105   52   54 1    
   106   52  175 1    
   107   53  176 1    
   108   53  177 1    
   109   53  178 1    
   110   54   55 am   BACKBONE|DICT|INTERRES
   111   54  179 1    
   112   55   56 2    
   113   55   57 1    
   114   57   58 1    
   115   57   59 1    
   116   57  180 1    
   117   58  181 1    
   118   58  182 1    
   119   58  183 1    
   120   59   60 am   BACKBONE|DICT|INTERRES
   121   59  184 1    
   122   60   61 2    
   123   60   62 1    
   124   62   63 1    
   125   62   64 1    
   126   62  185 1    
   127   63  186 1    
   128   63  187 1    
   129   63  188 1    
   130   64   65 am   BACKBONE|DICT|INTERRES
   131   64  189 1    
   132   65   66 2    
   133   67   68 2    
   134   67   69 am   BACKBONE|DICT|INTERRES
   135   69   70 1    
   136   69  190 1    
   137   70   71 1    
   138   70   72 1    
   139   70  191 1    
   140   71  192 1    
   141   71  193 1    
   142   71  194 1    
   143   72   73 2    
   144   72   74 am   BACKBONE|DICT|INTERRES
   145   74   75 1    
   146   74  195 1    
   147   75   76 1    
   148   75   77 1    
   149   75  196 1    
   150   76  197 1    
   151   76  198 1    
   152   76  199 1    
   153   77   78 2    
   154   77   79 am   BACKBONE|DICT|INTERRES
   155   79   80 1    
   156   79  200 1    
   157   80   81 1    
   158   80   82 1    
   159   80  201 1    
   160   81  202 1    
   161   81  203 1    
   162   81  204 1    
   163   82   83 2    
   164   82   84 am   BACKBONE|DICT|INTERRES
   165   84   85 1    
   166   84  205 1    
   167   85   86 1    
   168   85   87 1    
   169   85  206 1    
   170   86  207 1    
   171   86  208 1    
   172   86  209 1    
   173   87   88 2    
   174   87   89 am   BACKBONE|DICT|INTERRES
   175   89   90 1    
   176   89  210 1    
   177   90   91 1    
   178   90   92 1    
   179   90  211 1    
   180   91  212 1    
   181   91  213 1    
   182   91  214 1    
   183   92   93 2    
   184   92   94 am   BACKBONE|DICT|INTERRES
   185   94   95 1    
   186   94  215 1    
   187   95   96 1    
   188   95   97 1    
   189   95  216 1    
   190   96  217 1    
   191   96  218 1    
   192   96  219 1    
   193   97   98 2    
   194   97   99 am   BACKBONE|DICT|INTERRES
   195   99  100 1    
   196   99  220 1    
   197  100  101 1    
   198  100  102 1    
   199  100  221 1    
   200  101  222 1    
   201  101  223 1    
   202  101  224 1    
   203  102  103 2    
   204  102  104 am   BACKBONE|DICT|INTERRES
   205  104  105 1    
   206  104  225 1    
   207  105  106 1    
   208  105  107 1    
   209  105  226 1    
   210  106  227 1    
   211  106  228 1    
   212  106  229 1    
   213  107  108 2    
   214  107  109 am   BACKBONE|DICT|INTERRES
   215  109  110 1    
   216  109  230 1    
   217  110  111 1    
   218  110  112 1    
   219  110  231 1    
   220  111  232 1    
   221  111  233 1    
   222  111  234 1    
   223  112  113 2    
   224  112  114 am   BACKBONE|DICT|INTERRES
   225  114  115 1    
   226  114  235 1    
   227  115  116 1    
   228  115  117 1    
   229  115  236 1    
   230  116  237 1    
   231  116  238 1    
   232  116  239 1    
   233  117  118 2    
   234  117  119 am   BACKBONE|DICT|INTERRES
   235  119  120 1    
   236  119  240 1    
   237  120  121 1    
   238  120  124 1    
   239  120  241 1    
   240  121  122 am   BACKBONE|DICT|INTERRES
   241  121  123 2    
   242  122  242 1    
   243  122  243 1    
   244  124  125 1    
   245  124  244 1    
   246  124  245 1    
   247  125  126 1    
   248  126  246 1    
   249  126  247 1    
@<TRIPOS>SUBSTRUCTURE
     1 UNK         1 GROUP             0       ****    0 ROOT    
