@<TRIPOS>MOLECULE
3R540
247   249    1
SMALL
USER_CHARGES


@<TRIPOS>ATOM
      1 CA         -3.0015  -11.2800  -48.6516 C.3       0 UNK        -0.1800 
      2 C          -1.9092  -12.1145  -48.0004 C.2       0 UNK         0.5000 
      3 O          -1.6064  -11.9209  -46.8212 O.2       0 UNK        -0.5000 
      4 N          -1.3263  -13.0621  -48.7496 N.am      1 UNK        -0.5000 
      5 CA         -0.2382  -13.9331  -48.2845 C.3       1 UNK         0.1400 
      6 C6          0.4294  -14.7231  -49.4348 C.3       23 UNK        -0.0398 
      7 S7         -0.6022  -16.0236  -50.2097 S.3       23 UNK        -0.2404 
      8 C8          0.5616  -16.7298  -51.4276 C.3       23 UNK        -0.0205 
      9 C9          1.2907  -17.9752  -50.9282 C.ar      23 UNK        -0.0193 
     10 C10         1.1044  -19.2095  -51.5631 C.ar      23 UNK        -0.1150 
     11 C11         1.8293  -20.3433  -51.1650 C.ar      23 UNK        -0.0193 
     12 C12         2.7121  -20.2334  -50.0869 C.ar      23 UNK        -0.1150 
     13 C13         2.8908  -19.0159  -49.4278 C.ar      23 UNK        -0.0193 
     14 C14         2.1955  -17.8903  -49.8677 C.ar      23 UNK        -0.1150 
     15 C15         3.8378  -18.9071  -48.2426 C.3       23 UNK        -0.0205 
     16 S16         3.2753  -19.8868  -46.8160 S.3       23 UNK        -0.2404 
     17 C17         1.5924  -19.2361  -46.5107 C.3       23 UNK        -0.0398 
     18 CA          0.4827  -20.2503  -46.8805 C.3       11 UNK         0.1400 
     19 N           0.7046  -21.5549  -46.2488 N.am      11 UNK        -0.5000 
     20 C           0.0853  -22.6922  -46.5867 C.2       10 UNK         0.5000 
     21 O          -0.7562  -22.7769  -47.4788 O.2       10 UNK        -0.5000 
     22 CA          0.4203  -23.9245  -45.7287 C.3       10 UNK         0.1400 
     23 CB          1.7304  -24.5732  -46.1986 C.3       10 UNK        -0.1800 
     24 N           0.5228  -23.5943  -44.3053 N.am      10 UNK        -0.5000 
     25 C          -0.4803  -23.1301  -43.5510 C.2       9 UNK         0.5000 
     26 O          -1.6210  -22.9653  -43.9824 O.2       9 UNK        -0.5000 
     27 CA         -0.1586  -22.7334  -42.0965 C.3       9 UNK         0.1400 
     28 CB         -0.0839  -23.9710  -41.1834 C.3       9 UNK        -0.1800 
     29 N           1.0260  -21.8755  -41.9437 N.am      9 UNK        -0.5000 
     30 C           2.3180  -22.1649  -42.1685 C.2       8 UNK         0.5000 
     31 O           2.7136  -23.2526  -42.5897 O.2       8 UNK        -0.5000 
     32 CA          3.3487  -21.0503  -41.9034 C.3       8 UNK         0.1400 
     33 CB          3.8656  -20.4744  -43.2292 C.3       8 UNK        -0.1800 
     34 N           2.8235  -19.9592  -41.0787 N.am      8 UNK        -0.5000 
     35 C           2.6816  -20.0283  -39.7462 C.2       7 UNK         0.5000 
     36 O           2.9888  -21.0210  -39.0851 O.2       7 UNK        -0.5000 
     37 CA          2.1102  -18.7955  -39.0157 C.3       7 UNK         0.1400 
     38 CB          3.2321  -18.0361  -38.2905 C.3       7 UNK        -0.1800 
     39 N           1.3954  -17.8566  -39.8812 N.am      7 UNK        -0.5000 
     40 C           0.2239  -18.0964  -40.4854 C.2       6 UNK         0.5000 
     41 O          -0.3857  -19.1632  -40.4016 O.2       6 UNK        -0.5000 
     42 CA         -0.3354  -16.9582  -41.3623 C.3       6 UNK         0.1400 
     43 CB         -1.1589  -15.9908  -40.4978 C.3       6 UNK        -0.1800 
     44 N           0.6855  -16.1983  -42.0960 N.am      6 UNK        -0.5000 
     45 C           1.6031  -16.7238  -42.9219 C.2       5 UNK         0.5000 
     46 O           1.7192  -17.9342  -43.1147 O.2       5 UNK        -0.5000 
     47 CA          2.5537  -15.7381  -43.6249 C.3       5 UNK         0.1400 
     48 CB          3.2014  -16.3329  -44.8891 C.3       5 UNK        -0.1800 
     49 N           1.8525  -14.5060  -43.9843 N.am      5 UNK        -0.5000 
     50 C           2.1762  -13.2782  -43.5609 C.2       4 UNK         0.5000 
     51 O           3.1022  -13.0411  -42.7844 O.2       4 UNK        -0.5000 
     52 CA          1.3144  -12.1132  -44.0841 C.3       4 UNK         0.1400 
     53 CB          1.8271  -11.6401  -45.4521 C.3       4 UNK        -0.1800 
     54 N          -0.1116  -12.4324  -44.1849 N.am      4 UNK        -0.5000 
     55 C          -0.9093  -12.6925  -43.1380 C.2       3 UNK         0.5000 
     56 O          -0.5160  -12.7441  -41.9725 O.2       3 UNK        -0.5000 
     57 CA         -2.3917  -12.9524  -43.4483 C.3       3 UNK         0.1400 
     58 CB         -3.1433  -11.6328  -43.6828 C.3       3 UNK        -0.1800 
     59 N          -2.5259  -13.8093  -44.6235 N.am      3 UNK        -0.5000 
     60 C          -2.5580  -15.1476  -44.5716 C.2       2 UNK         0.5000 
     61 O          -2.6028  -15.7914  -43.5253 O.2       2 UNK        -0.5000 
     62 CA         -2.5346  -15.9101  -45.9063 C.3       2 UNK         0.1400 
     63 CB         -3.9539  -16.3422  -46.3024 C.3       2 UNK        -0.1800 
     64 N          -1.9363  -15.1618  -47.0071 N.am      2 UNK        -0.5000 
     65 C          -0.6396  -14.8368  -47.0973 C.2       1 UNK         0.5000 
     66 O           0.2066  -15.1620  -46.2646 O.2       1 UNK        -0.5000 
     67 C          -0.9107  -19.6786  -46.5370 C.2       11 UNK         0.5000 
     68 O          -1.4766  -18.9394  -47.3401 O.2       11 UNK        -0.5000 
     69 N          -1.4449  -20.0426  -45.3595 N.am      12 UNK        -0.5000 
     70 CA         -2.7982  -19.6995  -44.9230 C.3       12 UNK         0.1400 
     71 CB         -2.9247  -19.8671  -43.4010 C.3       12 UNK        -0.1800 
     72 C          -3.8637  -20.5168  -45.6714 C.2       12 UNK         0.5000 
     73 O          -4.8902  -19.9598  -46.0598 O.2       12 UNK        -0.5000 
     74 N          -3.5912  -21.8132  -45.8785 N.am      13 UNK        -0.5000 
     75 CA         -4.4250  -22.7196  -46.6669 C.3       13 UNK         0.1400 
     76 CB         -3.9494  -24.1665  -46.4631 C.3       13 UNK        -0.1800 
     77 C          -4.4332  -22.3438  -48.1590 C.2       13 UNK         0.5000 
     78 O          -5.5039  -22.2215  -48.7526 O.2       13 UNK        -0.5000 
     79 N          -3.2429  -22.1211  -48.7291 N.am      14 UNK        -0.5000 
     80 CA         -3.0299  -21.7139  -50.1166 C.3       14 UNK         0.1400 
     81 CB         -1.6869  -22.2819  -50.5985 C.3       14 UNK        -0.1800 
     82 C          -3.1202  -20.1876  -50.2984 C.2       14 UNK         0.5000 
     83 O          -2.2458  -19.5890  -50.9277 O.2       14 UNK        -0.5000 
     84 N          -4.1907  -19.5853  -49.7639 N.am      15 UNK        -0.5000 
     85 CA         -4.4818  -18.1550  -49.8408 C.3       15 UNK         0.1400 
     86 CB         -5.8103  -17.8600  -49.1293 C.3       15 UNK        -0.1800 
     87 C          -4.5141  -17.6464  -51.2928 C.2       15 UNK         0.5000 
     88 O          -5.1736  -18.2533  -52.1446 O.2       15 UNK        -0.5000 
     89 N          -3.7365  -16.5838  -51.5440 N.am      16 UNK        -0.5000 
     90 CA         -3.4851  -15.9361  -52.8376 C.3       16 UNK         0.1400 
     91 CB         -4.7724  -15.2589  -53.3514 C.3       16 UNK        -0.1800 
     92 C          -2.8528  -16.8642  -53.9005 C.2       16 UNK         0.5000 
     93 O          -2.8928  -16.5339  -55.0863 O.2       16 UNK        -0.5000 
     94 N          -2.3147  -18.0177  -53.4672 N.am      17 UNK        -0.5000 
     95 CA         -1.8692  -19.1534  -54.2822 C.3       17 UNK         0.1400 
     96 CB         -0.6485  -18.7719  -55.1463 C.3       17 UNK        -0.1800 
     97 C          -3.0109  -19.7852  -55.1097 C.2       17 UNK         0.5000 
     98 O          -2.7415  -20.4293  -56.1241 O.2       17 UNK        -0.5000 
     99 N          -4.2626  -19.5808  -54.6741 N.am      18 UNK        -0.5000 
    100 CA        -5.4715  -19.9261  -55.4173 C.3       18 UNK         0.1400 
    101 CB        -6.2265  -18.6329  -55.7636 C.3       18 UNK        -0.1800 
    102 C         -6.3776  -20.8765  -54.6257 C.2       18 UNK         0.5000 
    103 O         -6.9264  -21.8050  -55.2184 O.2       18 UNK        -0.5000 
    104 N         -6.5151  -20.6517  -53.3096 N.am      19 UNK        -0.5000 
    105 CA        -7.4602  -21.3751  -52.4485 C.3       19 UNK         0.1400 
    106 CB        -7.5489  -20.6673  -51.0917 C.3       19 UNK        -0.1800 
    107 C         -7.1557  -22.8768  -52.2685 C.2       19 UNK         0.5000 
    108 O         -8.0837  -23.6550  -52.0434 O.2       19 UNK        -0.5000 
    109 N         -5.8794  -23.2576  -52.4013 N.am      20 UNK        -0.5000 
    110 CA        -5.4152  -24.6494  -52.4010 C.3       20 UNK         0.1400 
    111 CB        -4.8682  -25.0151  -51.0087 C.3       20 UNK        -0.1800 
    112 C         -4.3762  -24.9018  -53.5109 C.2       20 UNK         0.5000 
    113 O         -3.7152  -25.9415  -53.4972 O.2       20 UNK        -0.5000 
    114 N         -4.2173  -23.9348  -54.4314 N.am      21 UNK        -0.5000 
    115 CA        -3.3150  -23.9317  -55.5953 C.3       21 UNK         0.1400 
    116 CB        -3.8115  -24.9517  -56.6405 C.3       21 UNK        -0.1800 
    117 C         -1.8136  -24.1273  -55.2695 C.2       21 UNK         0.5000 
    118 O         -1.0366  -24.4524  -56.1688 O.2       21 UNK        -0.5000 
    119 N         -1.4393  -23.9606  -53.9926 N.am      22 UNK        -0.5000 
    120 CA        -0.1427  -24.3508  -53.4086 C.3       22 UNK         0.1400 
    121 C          0.1366  -25.8871  -53.4571 C.2       22 UNK         0.5000 
    122 N         -0.8807  -26.7388  -53.5337 N.am      22 UNK        -0.7600 
    123 O          1.2832  -26.3226  -53.3935 O.2       22 UNK        -0.5000 
    124 C124        1.0505  -23.4889  -53.9109 C.3       23 UNK        -0.0398 
    125 S125        0.8732  -21.7254  -53.4737 S.3       23 UNK        -0.2404 
    126 C126        1.7075  -21.7076  -51.8482 C.3       23 UNK        -0.0205 
    127 H127       -3.1761  -11.5765  -49.6861 H         1 UNK         0.0600 
    128 H128       -3.9359  -11.3923  -48.1019 H         1 UNK         0.0600 
    129 H129       -2.7229  -10.2264  -48.6409 H         1 UNK         0.0600 
    130 H130       -1.6141  -13.1894  -49.7094 H         1 UNK         0.3000 
    131 H131        0.5285  -13.2608  -47.8971 H         1 UNK         0.0600 
    132 H132        1.3490  -15.1630  -49.0578 H         1 UNK         0.0800 
    133 H133        0.7423  -14.0282  -50.2153 H         1 UNK         0.0800 
    134 H134        1.2950  -15.9783  -51.7226 H         1 UNK         0.0800 
    135 H135        0.0014  -16.9646  -52.3323 H         1 UNK         0.0800 
    136 H136        0.4025  -19.2748  -52.3787 H         1 UNK         0.1150 
    137 H137        3.2636  -21.1013  -49.7525 H         1 UNK         0.1150 
    138 H138        2.3700  -16.9490  -49.3760 H         1 UNK         0.1150 
    139 H139        4.8275  -19.2541  -48.5423 H         1 UNK         0.0800 
    140 H140        3.9582  -17.8686  -47.9301 H         1 UNK         0.0800 
    141 H141        1.5274  -18.9762  -45.4546 H         1 UNK         0.0800 
    142 H142        1.4521  -18.3023  -47.0578 H         1 UNK         0.0800 
    143 H143        0.5094  -20.3977  -47.9628 H         1 UNK         0.0600 
    144 H144        1.4001  -21.5842  -45.5185 H         1 UNK         0.3000 
    145 H145       -0.3880  -24.6483  -45.8519 H         1 UNK         0.0600 
    146 H146        1.9369  -25.4887  -45.6440 H         1 UNK         0.0600 
    147 H147        1.6778  -24.8379  -47.2555 H         1 UNK         0.0600 
    148 H148        2.5819  -23.9038  -46.0686 H         1 UNK         0.0600 
    149 H149        1.4358  -23.6819  -43.8651 H         1 UNK         0.3000 
    150 H150       -0.9974  -22.1282  -41.7486 H         1 UNK         0.0600 
    151 H151       -1.0138  -24.5396  -41.2247 H         1 UNK         0.0600 
    152 H152        0.0752  -23.6832  -40.1441 H         1 UNK         0.0600 
    153 H153        0.7220  -24.6464  -41.4713 H         1 UNK         0.0600 
    154 H154        0.8260  -20.9423  -41.6070 H         1 UNK         0.3000 
    155 H155        4.1950  -21.5047  -41.3838 H         1 UNK         0.0600 
    156 H156        4.3442  -21.2468  -43.8327 H         1 UNK         0.0600 
    157 H157        4.6024  -19.6886  -43.0624 H         1 UNK         0.0600 
    158 H158        3.0557  -20.0538  -43.8230 H         1 UNK         0.0600 
    159 H159        2.5198  -19.1261  -41.5710 H         1 UNK         0.3000 
    160 H160        1.4064  -19.1626  -38.2658 H         1 UNK         0.0600 
    161 H161        3.9600  -17.6278  -38.9928 H         1 UNK         0.0600 
    162 H162        2.8333  -17.2106  -37.7006 H         1 UNK         0.0600 
    163 H163        3.7700  -18.6921  -37.6047 H         1 UNK         0.0600 
    164 H164        1.8276  -16.9558  -40.0241 H         1 UNK         0.3000 
    165 H165       -0.9966  -17.4099  -42.1026 H         1 UNK         0.0600 
    166 H166       -1.6341  -15.2209  -41.1043 H         1 UNK         0.0600 
    167 H167       -1.9529  -16.5191  -39.9684 H         1 UNK         0.0600 
    168 H168       -0.5404  -15.4907  -39.7516 H         1 UNK         0.0600 
    169 H169        0.6534  -15.1930  -41.9988 H         1 UNK         0.3000 
    170 H170        3.3523  -15.5323  -42.9100 H         1 UNK         0.0600 
    171 H171        3.7451  -17.2517  -44.6651 H         1 UNK         0.0600 
    172 H172        2.4555  -16.5663  -45.6479 H         1 UNK         0.0600 
    173 H173        3.9140  -15.6354  -45.3290 H         1 UNK         0.0600 
    174 H174        1.0917  -14.6160  -44.6506 H         1 UNK         0.3000 
    175 H175        1.4158  -11.2840  -43.3807 H         1 UNK         0.0600 
    176 H176        1.8139  -12.4462  -46.1847 H         1 UNK         0.0600 
    177 H177        1.2251  -10.8187  -45.8415 H         1 UNK         0.0600 
    178 H178        2.8557  -11.2846  -45.3789 H         1 UNK         0.0600 
    179 H179       -0.5270  -12.3751  -45.1080 H         1 UNK         0.3000 
    180 H180       -2.8400  -13.4395  -42.5796 H         1 UNK         0.0600 
    181 H181       -3.0791  -10.9884  -42.8052 H         1 UNK         0.0600 
    182 H182       -2.7379  -11.0755  -44.5278 H         1 UNK         0.0600 
    183 H183       -4.2007  -11.8124  -43.8775 H         1 UNK         0.0600 
    184 H184       -2.4600  -13.3518  -45.5246 H         1 UNK         0.3000 
    185 H185       -1.9220  -16.7976  -45.7469 H         1 UNK         0.0600 
    186 H186       -3.9166  -17.0859  -47.0952 H         1 UNK         0.0600 
    187 H187       -4.4817  -16.7994  -45.4642 H         1 UNK         0.0600 
    188 H188       -4.5556  -15.5005  -46.6470 H         1 UNK         0.0600 
    189 H189       -2.5588  -14.8370  -47.7313 H         1 UNK         0.3000 
    190 H190       -0.9310  -20.6842  -44.7754 H         1 UNK         0.3000 
    191 H191       -2.9744  -18.6507  -45.1461 H         1 UNK         0.0600 
    192 H192       -3.8756  -19.4652  -43.0494 H         1 UNK         0.0600 
    193 H193       -2.1335  -19.3338  -42.8752 H         1 UNK         0.0600 
    194 H194       -2.8848  -20.9115  -43.0953 H         1 UNK         0.0600 
    195 H195       -2.7533  -22.2072  -45.4638 H         1 UNK         0.3000 
    196 H196       -5.4498  -22.6448  -46.2972 H         1 UNK         0.0600 
    197 H197       -4.5712  -24.8639  -47.0257 H         1 UNK         0.0600 
    198 H198       -4.0042  -24.4539  -45.4129 H         1 UNK         0.0600 
    199 H199       -2.9195  -24.3060  -46.7923 H         1 UNK         0.0600 
    200 H200       -2.4008  -22.2476  -48.1714 H         1 UNK         0.3000 
    201 H201       -3.8137  -22.1446  -50.7398 H         1 UNK         0.0600 
    202 H202       -1.6427  -23.3630  -50.4684 H         1 UNK         0.0600 
    203 H203       -0.8541  -21.8432  -50.0478 H         1 UNK         0.0600 
    204 H204       -1.5307  -22.0676  -51.6556 H         1 UNK         0.0600 
    205 H205       -4.8615  -20.1618  -49.2724 H         1 UNK         0.3000 
    206 H206       -3.6782  -17.6442  -49.3073 H         1 UNK         0.0600 
    207 H207       -5.8078  -18.2391  -48.1073 H         1 UNK         0.0600 
    208 H208       -5.9925  -16.7860  -49.0777 H         1 UNK         0.0600 
    209 H209       -6.6567  -18.3091  -49.6474 H         1 UNK         0.0600 
    210 H210       -3.1854  -16.2166  -50.7804 H         1 UNK         0.3000 
    211 H211       -2.7496  -15.1530  -52.6480 H         1 UNK         0.0600 
    212 H212       -5.5313  -15.9910  -53.6289 H         1 UNK         0.0600 
    213 H213       -4.5716  -14.6478  -54.2321 H         1 UNK         0.0600 
    214 H214       -5.2012  -14.6018  -52.5950 H         1 UNK         0.0600 
    215 H215       -2.3311  -18.2063  -52.4693 H         1 UNK         0.3000 
    216 H216       -1.5533  -19.9239  -53.5789 H         1 UNK         0.0600 
    217 H217       -0.9158  -18.0813  -55.9462 H         1 UNK         0.0600 
    218 H218       -0.2119  -19.6551  -55.6138 H         1 UNK         0.0600 
    219 H219        0.1335  -18.3049  -54.5484 H         1 UNK         0.0600 
    220 H220       -4.3972  -19.0462  -53.8221 H         1 UNK         0.3000 
    221 H221       -5.2186  -20.4272  -56.3540 H         1 UNK         0.0600 
    222 H222       -6.5165  -18.0824  -54.8676 H         1 UNK         0.0600 
    223 H223       -5.6114  -17.9720  -56.3748 H         1 UNK         0.0600 
    224 H224       -7.1348  -18.8477  -56.3280 H         1 UNK         0.0600 
    225 H225       -6.0530  -19.8480  -52.8943 H         1 UNK         0.3000 
    226 H226       -8.4439  -21.3094  -52.9183 H         1 UNK         0.0600 
    227 H227       -7.9075  -19.6445  -51.2072 H         1 UNK         0.0600 
    228 H228       -8.2386  -21.1813  -50.4210 H         1 UNK         0.0600 
    229 H229       -6.5789  -20.6322  -50.6003 H         1 UNK         0.0600 
    230 H230       -5.1872  -22.5427  -52.5633 H         1 UNK         0.3000 
    231 H231       -6.2513  -25.3154  -52.6233 H         1 UNK         0.0600 
    232 H232       -3.9469  -24.4811  -50.7801 H         1 UNK         0.0600 
    233 H233       -5.5921  -24.7868  -50.2261 H         1 UNK         0.0600 
    234 H234       -4.6486  -26.0813  -50.9438 H         1 UNK         0.0600 
    235 H235       -4.8594  -23.1574  -54.3923 H         1 UNK         0.3000 
    236 H236       -3.4003  -22.9424  -56.0430 H         1 UNK         0.0600 
    237 H237       -3.2523  -24.8660  -57.5729 H         1 UNK         0.0600 
    238 H238       -3.7025  -25.9772  -56.2863 H         1 UNK         0.0600 
    239 H239       -4.8623  -24.7895  -56.8809 H         1 UNK         0.0600 
    240 H240       -2.1549  -23.7058  -53.3313 H         1 UNK         0.3000 
    241 H241       -0.2381  -24.1539  -52.3415 H         1 UNK         0.0600 
    242 H242       -0.6938  -27.7285  -53.5546 H         1 UNK         0.3800 
    243 H243       -1.8428  -26.4119  -53.5623 H         1 UNK         0.3800 
    244 H244        1.1558  -23.5704  -54.9929 H         1 UNK         0.0800 
    245 H245        1.9940  -23.8466  -53.4963 H         1 UNK         0.0800 
    246 H246        1.1887  -22.3890  -51.1741 H         1 UNK         0.0800 
    247 H247        2.7112  -22.1136  -51.9832 H         1 UNK         0.0800 
@<TRIPOS>BOND
     1    1    2 1    
     2    1  127 1    
     3    1  128 1    
     4    1  129 1    
     5    2    3 2    
     6    2    4 am   BACKBONE|DICT|INTERRES
     7    4    5 1    
     8    4  130 1    
     9    5    6 1    
    10    5   65 1    
    11    5  131 1    
    12    6    7 1    
    13    6  132 1    
    14    6  133 1    
    15    7    8 1    
    16    8    9 1    
    17    8  134 1    
    18    8  135 1    
    19    9   10 ar   
    20    9   14 ar   
    21   10   11 ar   
    22   10  136 1    
    23   11   12 ar   
    24   11  126 1    
    25   12   13 ar   
    26   12  137 1    
    27   13   14 ar   
    28   13   15 1    
    29   14  138 1    
    30   15   16 1    
    31   15  139 1    
    32   15  140 1    
    33   16   17 1    
    34   17   18 1    
    35   17  141 1    
    36   17  142 1    
    37   18   19 1    
    38   18   67 1    
    39   18  143 1    
    40   19   20 am   BACKBONE|DICT|INTERRES
    41   19  144 1    
    42   20   21 2    
    43   20   22 1    
    44   22   23 1    
    45   22   24 1    
    46   22  145 1    
    47   23  146 1    
    48   23  147 1    
    49   23  148 1    
    50   24   25 am   BACKBONE|DICT|INTERRES
    51   24  149 1    
    52   25   26 2    
    53   25   27 1    
    54   27   28 1    
    55   27   29 1    
    56   27  150 1    
    57   28  151 1    
    58   28  152 1    
    59   28  153 1    
    60   29   30 am   BACKBONE|DICT|INTERRES
    61   29  154 1    
    62   30   31 2    
    63   30   32 1    
    64   32   33 1    
    65   32   34 1    
    66   32  155 1    
    67   33  156 1    
    68   33  157 1    
    69   33  158 1    
    70   34   35 am   BACKBONE|DICT|INTERRES
    71   34  159 1    
    72   35   36 2    
    73   35   37 1    
    74   37   38 1    
    75   37   39 1    
    76   37  160 1    
    77   38  161 1    
    78   38  162 1    
    79   38  163 1    
    80   39   40 am   BACKBONE|DICT|INTERRES
    81   39  164 1    
    82   40   41 2    
    83   40   42 1    
    84   42   43 1    
    85   42   44 1    
    86   42  165 1    
    87   43  166 1    
    88   43  167 1    
    89   43  168 1    
    90   44   45 am   BACKBONE|DICT|INTERRES
    91   44  169 1    
    92   45   46 2    
    93   45   47 1    
    94   47   48 1    
    95   47   49 1    
    96   47  170 1    
    97   48  171 1    
    98   48  172 1    
    99   48  173 1    
   100   49   50 am   BACKBONE|DICT|INTERRES
   101   49  174 1    
   102   50   51 2    
   103   50   52 1    
   104   52   53 1    
   105   52   54 1    
   106   52  175 1    
   107   53  176 1    
   108   53  177 1    
   109   53  178 1    
   110   54   55 am   BACKBONE|DICT|INTERRES
   111   54  179 1    
   112   55   56 2    
   113   55   57 1    
   114   57   58 1    
   115   57   59 1    
   116   57  180 1    
   117   58  181 1    
   118   58  182 1    
   119   58  183 1    
   120   59   60 am   BACKBONE|DICT|INTERRES
   121   59  184 1    
   122   60   61 2    
   123   60   62 1    
   124   62   63 1    
   125   62   64 1    
   126   62  185 1    
   127   63  186 1    
   128   63  187 1    
   129   63  188 1    
   130   64   65 am   BACKBONE|DICT|INTERRES
   131   64  189 1    
   132   65   66 2    
   133   67   68 2    
   134   67   69 am   BACKBONE|DICT|INTERRES
   135   69   70 1    
   136   69  190 1    
   137   70   71 1    
   138   70   72 1    
   139   70  191 1    
   140   71  192 1    
   141   71  193 1    
   142   71  194 1    
   143   72   73 2    
   144   72   74 am   BACKBONE|DICT|INTERRES
   145   74   75 1    
   146   74  195 1    
   147   75   76 1    
   148   75   77 1    
   149   75  196 1    
   150   76  197 1    
   151   76  198 1    
   152   76  199 1    
   153   77   78 2    
   154   77   79 am   BACKBONE|DICT|INTERRES
   155   79   80 1    
   156   79  200 1    
   157   80   81 1    
   158   80   82 1    
   159   80  201 1    
   160   81  202 1    
   161   81  203 1    
   162   81  204 1    
   163   82   83 2    
   164   82   84 am   BACKBONE|DICT|INTERRES
   165   84   85 1    
   166   84  205 1    
   167   85   86 1    
   168   85   87 1    
   169   85  206 1    
   170   86  207 1    
   171   86  208 1    
   172   86  209 1    
   173   87   88 2    
   174   87   89 am   BACKBONE|DICT|INTERRES
   175   89   90 1    
   176   89  210 1    
   177   90   91 1    
   178   90   92 1    
   179   90  211 1    
   180   91  212 1    
   181   91  213 1    
   182   91  214 1    
   183   92   93 2    
   184   92   94 am   BACKBONE|DICT|INTERRES
   185   94   95 1    
   186   94  215 1    
   187   95   96 1    
   188   95   97 1    
   189   95  216 1    
   190   96  217 1    
   191   96  218 1    
   192   96  219 1    
   193   97   98 2    
   194   97   99 am   BACKBONE|DICT|INTERRES
   195   99  100 1    
   196   99  220 1    
   197  100  101 1    
   198  100  102 1    
   199  100  221 1    
   200  101  222 1    
   201  101  223 1    
   202  101  224 1    
   203  102  103 2    
   204  102  104 am   BACKBONE|DICT|INTERRES
   205  104  105 1    
   206  104  225 1    
   207  105  106 1    
   208  105  107 1    
   209  105  226 1    
   210  106  227 1    
   211  106  228 1    
   212  106  229 1    
   213  107  108 2    
   214  107  109 am   BACKBONE|DICT|INTERRES
   215  109  110 1    
   216  109  230 1    
   217  110  111 1    
   218  110  112 1    
   219  110  231 1    
   220  111  232 1    
   221  111  233 1    
   222  111  234 1    
   223  112  113 2    
   224  112  114 am   BACKBONE|DICT|INTERRES
   225  114  115 1    
   226  114  235 1    
   227  115  116 1    
   228  115  117 1    
   229  115  236 1    
   230  116  237 1    
   231  116  238 1    
   232  116  239 1    
   233  117  118 2    
   234  117  119 am   BACKBONE|DICT|INTERRES
   235  119  120 1    
   236  119  240 1    
   237  120  121 1    
   238  120  124 1    
   239  120  241 1    
   240  121  122 am   BACKBONE|DICT|INTERRES
   241  121  123 2    
   242  122  242 1    
   243  122  243 1    
   244  124  125 1    
   245  124  244 1    
   246  124  245 1    
   247  125  126 1    
   248  126  246 1    
   249  126  247 1    
@<TRIPOS>SUBSTRUCTURE
     1 UNK         1 GROUP             0       ****    0 ROOT    
