@<TRIPOS>MOLECULE
3R540
247   249    1
SMALL
USER_CHARGES


@<TRIPOS>ATOM
      1 CA          1.7156   -9.6847  -52.6688 C.3       0 UNK        -0.1800 
      2 C           1.7684  -10.4754  -51.3691 C.2       0 UNK         0.5000 
      3 O           1.5204   -9.9155  -50.3009 O.2       0 UNK        -0.5000 
      4 N           2.0976  -11.7703  -51.4547 N.am      1 UNK        -0.5000 
      5 CA          2.1330  -12.7053  -50.3279 C.3       1 UNK         0.1400 
      6 C6          2.9512  -13.9716  -50.6836 C.3       23 UNK        -0.0398 
      7 S7          3.6195  -14.8219  -49.2147 S.3       23 UNK        -0.2404 
      8 C8          2.3856  -16.1267  -48.9322 C.3       23 UNK        -0.0205 
      9 C9          2.5860  -17.3436  -49.8243 C.ar      23 UNK        -0.0193 
     10 C10         1.9696  -17.4133  -51.0768 C.ar      23 UNK        -0.1150 
     11 C11         2.1445  -18.5300  -51.9037 C.ar      23 UNK        -0.0193 
     12 C12         2.8930  -19.6106  -51.4257 C.ar      23 UNK        -0.1150 
     13 C13         3.4912  -19.5707  -50.1626 C.ar      23 UNK        -0.0193 
     14 C14         3.3519  -18.4230  -49.3763 C.ar      23 UNK        -0.1150 
     15 C15         4.3055  -20.7612  -49.6674 C.3       23 UNK        -0.0205 
     16 S16         3.7711  -21.3699  -48.0333 S.3       23 UNK        -0.2404 
     17 C17         2.0346  -21.8525  -48.3330 C.3       23 UNK        -0.0398 
     18 CA          1.6217  -23.1484  -47.5820 C.3       11 UNK         0.1400 
     19 N           1.9072  -23.0577  -46.1494 N.am      11 UNK        -0.5000 
     20 C           2.1839  -24.0796  -45.3321 C.2       10 UNK         0.5000 
     21 O           2.3749  -25.2341  -45.7206 O.2       10 UNK        -0.5000 
     22 CA          2.2289  -23.7435  -43.8258 C.3       10 UNK         0.1400 
     23 CB          2.9379  -24.8188  -42.9760 C.3       10 UNK        -0.1800 
     24 N           2.7651  -22.4056  -43.5553 N.am      10 UNK        -0.5000 
     25 C           4.0108  -21.9615  -43.7816 C.2       9 UNK         0.5000 
     26 O           4.9249  -22.6715  -44.2029 O.2       9 UNK        -0.5000 
     27 CA          4.2963  -20.4706  -43.4980 C.3       9 UNK         0.1400 
     28 CB          4.6305  -19.7266  -44.8009 C.3       9 UNK        -0.1800 
     29 N           3.1948  -19.7720  -42.8317 N.am      9 UNK        -0.5000 
     30 C           2.8787  -19.8806  -41.5347 C.2       8 UNK         0.5000 
     31 O           3.5196  -20.5568  -40.7296 O.2       8 UNK        -0.5000 
     32 CA          1.6131  -19.1352  -41.0661 C.3       8 UNK         0.1400 
     33 CB          1.9431  -17.6795  -40.7035 C.3       8 UNK        -0.1800 
     34 N           0.5305  -19.1594  -42.0542 N.am      8 UNK        -0.5000 
     35 C          -0.1096  -20.2684  -42.4549 C.2       7 UNK         0.5000 
     36 O           0.1259  -21.3923  -42.0115 O.2       7 UNK        -0.5000 
     37 CA         -1.1460  -20.1069  -43.5816 C.3       7 UNK         0.1400 
     38 CB         -2.4877  -19.5967  -43.0378 C.3       7 UNK        -0.1800 
     39 N          -0.6774  -19.2249  -44.6489 N.am      7 UNK        -0.5000 
     40 C           0.3700  -19.4948  -45.4393 C.2       6 UNK         0.5000 
     41 O           1.0322  -20.5274  -45.3625 O.2       6 UNK        -0.5000 
     42 CA          0.7694  -18.4184  -46.4610 C.3       6 UNK         0.1400 
     43 CB         -0.1715  -18.4407  -47.6746 C.3       6 UNK        -0.1800 
     44 N           0.7875  -17.0772  -45.8795 N.am      6 UNK        -0.5000 
     45 C           1.5783  -16.6914  -44.8681 C.2       5 UNK         0.5000 
     46 O           2.4164  -17.4167  -44.3364 O.2       5 UNK        -0.5000 
     47 CA          1.3545  -15.2726  -44.3217 C.3       5 UNK         0.1400 
     48 CB          2.0640  -14.2248  -45.1943 C.3       5 UNK        -0.1800 
     49 N          -0.0692  -14.9547  -44.2141 N.am      5 UNK        -0.5000 
     50 C          -0.9115  -15.5394  -43.3491 C.2       4 UNK         0.5000 
     51 O          -0.5674  -16.3794  -42.5171 O.2       4 UNK        -0.5000 
     52 CA         -2.3968  -15.1515  -43.4705 C.3       4 UNK         0.1400 
     53 CB         -2.6745  -13.8275  -42.7432 C.3       4 UNK        -0.1800 
     54 N          -2.8311  -15.0417  -44.8645 N.am      4 UNK        -0.5000 
     55 C          -2.8926  -16.0756  -45.7157 C.2       3 UNK         0.5000 
     56 O          -2.6401  -17.2354  -45.3945 O.2       3 UNK        -0.5000 
     57 CA         -3.2343  -15.7518  -47.1827 C.3       3 UNK         0.1400 
     58 CB         -4.7519  -15.7833  -47.4112 C.3       3 UNK        -0.1800 
     59 N          -2.6902  -14.4673  -47.6354 N.am      3 UNK        -0.5000 
     60 C          -1.3823  -14.1834  -47.7078 C.2       2 UNK         0.5000 
     61 O          -0.4957  -14.9814  -47.3982 O.2       2 UNK        -0.5000 
     62 CA         -1.0196  -12.7412  -48.1032 C.3       2 UNK         0.1400 
     63 CB         -1.1109  -11.8251  -46.8719 C.3       2 UNK        -0.1800 
     64 N           0.3253  -12.6196  -48.6674 N.am      2 UNK        -0.5000 
     65 C           0.6886  -13.0336  -49.8876 C.2       1 UNK         0.5000 
     66 O          -0.0683  -13.6091  -50.6723 O.2       1 UNK        -0.5000 
     67 C           0.1237  -23.4927  -47.7825 C.2       11 UNK         0.5000 
     68 O          -0.5801  -23.7824  -46.8105 O.2       11 UNK        -0.5000 
     69 N          -0.3524  -23.4538  -49.0374 N.am      12 UNK        -0.5000 
     70 CA         -1.6915  -23.8777  -49.4744 C.3       12 UNK         0.1400 
     71 CB         -1.8770  -23.5131  -50.9546 C.3       12 UNK        -0.1800 
     72 C          -2.8776  -23.3390  -48.6499 C.2       12 UNK         0.5000 
     73 O          -3.8335  -24.0800  -48.4191 O.2       12 UNK        -0.5000 
     74 N          -2.7757  -22.0915  -48.1694 N.am      13 UNK        -0.5000 
     75 CA         -3.7872  -21.4296  -47.3388 C.3       13 UNK         0.1400 
     76 CB         -3.3829  -19.9708  -47.1062 C.3       13 UNK        -0.1800 
     77 C          -4.0620  -22.1171  -45.9883 C.2       13 UNK         0.5000 
     78 O          -5.1366  -21.9129  -45.4258 O.2       13 UNK        -0.5000 
     79 N          -3.1256  -22.9452  -45.5030 N.am      14 UNK        -0.5000 
     80 CA         -3.3066  -23.7635  -44.3030 C.3       14 UNK         0.1400 
     81 CB         -1.9490  -24.3421  -43.8764 C.3       14 UNK        -0.1800 
     82 C          -4.3491  -24.8891  -44.4816 C.2       14 UNK         0.5000 
     83 O          -4.8684  -25.3811  -43.4789 O.2       14 UNK        -0.5000 
     84 N          -4.6382  -25.2727  -45.7342 N.am      15 UNK        -0.5000 
     85 CA         -5.6109  -26.3057  -46.0898 C.3       15 UNK         0.1400 
     86 CB         -4.8899  -27.4284  -46.8533 C.3       15 UNK        -0.1800 
     87 C          -6.7646  -25.7385  -46.9339 C.2       15 UNK         0.5000 
     88 O          -7.9225  -26.0653  -46.6721 O.2       15 UNK        -0.5000 
     89 N          -6.4374  -24.9138  -47.9371 N.am      16 UNK        -0.5000 
     90 CA         -7.3711  -24.4171  -48.9505 C.3       16 UNK         0.1400 
     91 CB         -6.6273  -24.3435  -50.2953 C.3       16 UNK        -0.1800 
     92 C          -7.9997  -23.0539  -48.6041 C.2       16 UNK         0.5000 
     93 O          -8.8048  -22.5562  -49.3928 O.2       16 UNK        -0.5000 
     94 N          -7.6152  -22.4571  -47.4654 N.am      17 UNK        -0.5000 
     95 CA         -7.9919  -21.1317  -46.9469 C.3       17 UNK         0.1400 
     96 CB         -9.5155  -20.9902  -46.7634 C.3       17 UNK        -0.1800 
     97 C          -7.4051  -19.9614  -47.7616 C.2       17 UNK         0.5000 
     98 O          -6.7936  -19.0658  -47.1803 O.2       17 UNK        -0.5000 
     99 N          -7.5659  -20.0036  -49.0877 N.am      18 UNK        -0.5000 
    100 CA        -6.8699  -19.1500  -50.0449 C.3       18 UNK         0.1400 
    101 CB        -7.7271  -19.0227  -51.3127 C.3       18 UNK        -0.1800 
    102 C         -5.5060  -19.7715  -50.3839 C.2       18 UNK         0.5000 
    103 O         -5.3843  -20.9973  -50.4237 O.2       18 UNK        -0.5000 
    104 N         -4.5087  -18.9279  -50.6692 N.am      19 UNK        -0.5000 
    105 CA        -3.1269  -19.3208  -50.9668 C.3       19 UNK         0.1400 
    106 CB        -2.2012  -18.1396  -50.6284 C.3       19 UNK        -0.1800 
    107 C         -2.9200  -19.8412  -52.4067 C.2       19 UNK         0.5000 
    108 O         -1.9005  -19.5338  -53.0245 O.2       19 UNK        -0.5000 
    109 N         -3.8845  -20.6184  -52.9197 N.am      20 UNK        -0.5000 
    110 CA        -3.9330  -21.2123  -54.2595 C.3       20 UNK         0.1400 
    111 CB        -2.9770  -22.4235  -54.3345 C.3       20 UNK        -0.1800 
    112 C         -3.7023  -20.1563  -55.3626 C.2       20 UNK         0.5000 
    113 O         -4.5141  -19.2381  -55.4942 O.2       20 UNK        -0.5000 
    114 N         -2.5858  -20.2693  -56.0950 N.am      21 UNK        -0.5000 
    115 CA        -2.1493  -19.3389  -57.1388 C.3       21 UNK         0.1400 
    116 CB        -0.8977  -19.9124  -57.8209 C.3       21 UNK        -0.1800 
    117 C         -1.8779  -17.9046  -56.6388 C.2       21 UNK         0.5000 
    118 O         -1.9801  -16.9675  -57.4319 O.2       21 UNK        -0.5000 
    119 N         -1.5585  -17.7531  -55.3470 N.am      22 UNK        -0.5000 
    120 CA        -1.4044  -16.4540  -54.6737 C.3       22 UNK         0.1400 
    121 C         -2.7472  -15.8762  -54.1325 C.2       22 UNK         0.5000 
    122 N         -3.8798  -16.5620  -54.2514 N.am      22 UNK        -0.7600 
    123 O         -2.7686  -14.7677  -53.6062 O.2       22 UNK        -0.5000 
    124 C124       -0.3229  -16.4943  -53.5624 C.3       23 UNK        -0.0398 
    125 S125        1.3186  -17.0212  -54.1680 S.3       23 UNK        -0.2404 
    126 C126        1.5379  -18.6198  -53.3064 C.3       23 UNK        -0.0205 
    127 H127        1.9652  -10.3035  -53.5311 H         1 UNK         0.0600 
    128 H128        2.4201   -8.8538  -52.6315 H         1 UNK         0.0600 
    129 H129        0.7154   -9.2785  -52.8201 H         1 UNK         0.0600 
    130 H130        2.2586  -12.1761  -52.3654 H         1 UNK         0.3000 
    131 H131        2.6440  -12.1972  -49.5066 H         1 UNK         0.0600 
    132 H132        2.3852  -14.6527  -51.3166 H         1 UNK         0.0800 
    133 H133        3.8204  -13.6867  -51.2782 H         1 UNK         0.0800 
    134 H134        1.3802  -15.7279  -49.0627 H         1 UNK         0.0800 
    135 H135        2.4590  -16.4259  -47.8880 H         1 UNK         0.0800 
    136 H136        1.3563  -16.5894  -51.4041 H         1 UNK         0.1150 
    137 H137        3.0163  -20.4872  -52.0463 H         1 UNK         0.1150 
    138 H138        3.8238  -18.3800  -48.4046 H         1 UNK         0.1150 
    139 H139        4.2639  -21.5867  -50.3796 H         1 UNK         0.0800 
    140 H140        5.3529  -20.4640  -49.6037 H         1 UNK         0.0800 
    141 H141        1.8941  -21.9714  -49.4079 H         1 UNK         0.0800 
    142 H142        1.4055  -21.0167  -48.0326 H         1 UNK         0.0800 
    143 H143        2.1975  -23.9759  -48.0011 H         1 UNK         0.0600 
    144 H144        1.7215  -22.1461  -45.7352 H         1 UNK         0.3000 
    145 H145        1.1890  -23.7121  -43.4999 H         1 UNK         0.0600 
    146 H146        2.9466  -24.5445  -41.9211 H         1 UNK         0.0600 
    147 H147        2.4254  -25.7780  -43.0567 H         1 UNK         0.0600 
    148 H148        3.9694  -24.9744  -43.2924 H         1 UNK         0.0600 
    149 H149        2.0866  -21.7310  -43.2258 H         1 UNK         0.3000 
    150 H150        5.1741  -20.4291  -42.8503 H         1 UNK         0.0600 
    151 H151        5.4509  -20.2082  -45.3345 H         1 UNK         0.0600 
    152 H152        4.9325  -18.6984  -44.6016 H         1 UNK         0.0600 
    153 H153        3.7731  -19.6979  -45.4738 H         1 UNK         0.0600 
    154 H154        2.6566  -19.1341  -43.4112 H         1 UNK         0.3000 
    155 H155        1.2513  -19.6346  -40.1650 H         1 UNK         0.0600 
    156 H156        2.7323  -17.6326  -39.9521 H         1 UNK         0.0600 
    157 H157        1.0720  -17.1688  -40.2927 H         1 UNK         0.0600 
    158 H158        2.2820  -17.1152  -41.5725 H         1 UNK         0.0600 
    159 H159        0.2559  -18.2652  -42.4481 H         1 UNK         0.3000 
    160 H160       -1.3150  -21.0927  -44.0191 H         1 UNK         0.0600 
    161 H161       -2.3995  -18.5900  -42.6278 H         1 UNK         0.0600 
    162 H162       -2.8611  -20.2463  -42.2453 H         1 UNK         0.0600 
    163 H163       -3.2450  -19.5729  -43.8220 H         1 UNK         0.0600 
    164 H164       -1.2108  -18.3739  -44.8067 H         1 UNK         0.3000 
    165 H165        1.7792  -18.6501  -46.8046 H         1 UNK         0.0600 
    166 H166        0.1667  -17.7667  -48.4583 H         1 UNK         0.0600 
    167 H167       -0.2449  -19.4353  -48.1127 H         1 UNK         0.0600 
    168 H168       -1.1758  -18.1311  -47.3995 H         1 UNK         0.0600 
    169 H169        0.1618  -16.3906  -46.2921 H         1 UNK         0.3000 
    170 H170        1.7875  -15.2277  -43.3202 H         1 UNK         0.0600 
    171 H171        3.1361  -14.4204  -45.2378 H         1 UNK         0.0600 
    172 H172        1.6947  -14.2250  -46.2195 H         1 UNK         0.0600 
    173 H173        1.9332  -13.2208  -44.7906 H         1 UNK         0.0600 
    174 H174       -0.4448  -14.3210  -44.9026 H         1 UNK         0.3000 
    175 H175       -2.9863  -15.9361  -42.9911 H         1 UNK         0.0600 
    176 H176       -2.3712  -13.8868  -41.6970 H         1 UNK         0.0600 
    177 H177       -2.1333  -12.9956  -43.1956 H         1 UNK         0.0600 
    178 H178       -3.7372  -13.5850  -42.7587 H         1 UNK         0.0600 
    179 H179       -3.0595  -14.1197  -45.2043 H         1 UNK         0.3000 
    180 H180       -2.7894  -16.5322  -47.7984 H         1 UNK         0.0600 
    181 H181       -5.1713  -16.7424  -47.1034 H         1 UNK         0.0600 
    182 H182       -5.2624  -15.0041  -46.8440 H         1 UNK         0.0600 
    183 H183       -4.9955  -15.6484  -48.4651 H         1 UNK         0.0600 
    184 H184       -3.3627  -13.7583  -47.8904 H         1 UNK         0.3000 
    185 H185       -1.7368  -12.3972  -48.8515 H         1 UNK         0.0600 
    186 H186       -2.1088  -11.8496  -46.4322 H         1 UNK         0.0600 
    187 H187       -0.4026  -12.1198  -46.0964 H         1 UNK         0.0600 
    188 H188       -0.9033  -10.7882  -47.1372 H         1 UNK         0.0600 
    189 H189        1.0101  -12.1591  -48.0867 H         1 UNK         0.3000 
    190 H190        0.2835  -23.2138  -49.7834 H         1 UNK         0.3000 
    191 H191       -1.7202  -24.9658  -49.3892 H         1 UNK         0.0600 
    192 H192       -1.7745  -22.4406  -51.1219 H         1 UNK         0.0600 
    193 H193       -2.8672  -23.8065  -51.3063 H         1 UNK         0.0600 
    194 H194       -1.1471  -24.0224  -51.5840 H         1 UNK         0.0600 
    195 H195       -1.9336  -21.5733  -48.3641 H         1 UNK         0.3000 
    196 H196       -4.7258  -21.4415  -47.8939 H         1 UNK         0.0600 
    197 H197       -4.1281  -19.4453  -46.5074 H         1 UNK         0.0600 
    198 H198       -3.2830  -19.4244  -48.0410 H         1 UNK         0.0600 
    199 H199       -2.4389  -19.9114  -46.5704 H         1 UNK         0.0600 
    200 H200       -2.2693  -23.0979  -46.0291 H         1 UNK         0.3000 
    201 H201       -3.6617  -23.1121  -43.5016 H         1 UNK         0.0600 
    202 H202       -2.0367  -24.8956  -42.9407 H         1 UNK         0.0600 
    203 H203       -1.5495  -25.0266  -44.6255 H         1 UNK         0.0600 
    204 H204       -1.2161  -23.5516  -43.7180 H         1 UNK         0.0600 
    205 H205       -4.1741  -24.8043  -46.5038 H         1 UNK         0.3000 
    206 H206       -6.0539  -26.7437  -45.1930 H         1 UNK         0.0600 
    207 H207       -4.1215  -27.8919  -46.2346 H         1 UNK         0.0600 
    208 H208       -5.5880  -28.2133  -47.1474 H         1 UNK         0.0600 
    209 H209       -4.4096  -27.0573  -47.7598 H         1 UNK         0.0600 
    210 H210       -5.4584  -24.6797  -48.0955 H         1 UNK         0.3000 
    211 H211       -8.1937  -25.1260  -49.0657 H         1 UNK         0.0600 
    212 H212       -7.2931  -24.0291  -51.0999 H         1 UNK         0.0600 
    213 H213       -6.2195  -25.3151  -50.5740 H         1 UNK         0.0600 
    214 H214       -5.8010  -23.6334  -50.2592 H         1 UNK         0.0600 
    215 H215       -6.9313  -22.9469  -46.9051 H         1 UNK         0.3000 
    216 H216       -7.5509  -21.0697  -45.9515 H         1 UNK         0.0600 
    217 H217       -9.7566  -20.0562  -46.2545 H         1 UNK         0.0600 
    218 H218       -9.9163  -21.8030  -46.1578 H         1 UNK         0.0600 
    219 H219      -10.0485  -20.9848  -47.7142 H         1 UNK         0.0600 
    220 H220       -8.0417  -20.8172  -49.4675 H         1 UNK         0.3000 
    221 H221       -6.7198  -18.1568  -49.6160 H         1 UNK         0.0600 
    222 H222       -7.9028  -19.9932  -51.7793 H         1 UNK         0.0600 
    223 H223       -8.6974  -18.5794  -51.0882 H         1 UNK         0.0600 
    224 H224       -7.2412  -18.3851  -52.0525 H         1 UNK         0.0600 
    225 H225       -4.6971  -17.9362  -50.6802 H         1 UNK         0.3000 
    226 H226       -2.8538  -20.1473  -50.3090 H         1 UNK         0.0600 
    227 H227       -2.3170  -17.8355  -49.5912 H         1 UNK         0.0600 
    228 H228       -1.1517  -18.4036  -50.7660 H         1 UNK         0.0600 
    229 H229       -2.4169  -17.2712  -51.2512 H         1 UNK         0.0600 
    230 H230       -4.6669  -20.8312  -52.3109 H         1 UNK         0.3000 
    231 H231       -4.9491  -21.5827  -54.4016 H         1 UNK         0.0600 
    232 H232       -3.2700  -23.1886  -53.6166 H         1 UNK         0.0600 
    233 H233       -1.9436  -22.1492  -54.1189 H         1 UNK         0.0600 
    234 H234       -3.0044  -22.8912  -55.3196 H         1 UNK         0.0600 
    235 H235       -1.9599  -21.0340  -55.8887 H         1 UNK         0.3000 
    236 H236       -2.9474  -19.2784  -57.8815 H         1 UNK         0.0600 
    237 H237       -1.0976  -20.8916  -58.2563 H         1 UNK         0.0600 
    238 H238       -0.5599  -19.2620  -58.6289 H         1 UNK         0.0600 
    239 H239       -0.0707  -20.0180  -57.1175 H         1 UNK         0.0600 
    240 H240       -1.5379  -18.5656  -54.7388 H         1 UNK         0.3000 
    241 H241       -1.0597  -15.7280  -55.4122 H         1 UNK         0.0600 
    242 H242       -3.9085  -17.4641  -54.7128 H         1 UNK         0.3800 
    243 H243       -4.7349  -16.1530  -53.9117 H         1 UNK         0.3800 
    244 H244       -0.2021  -15.5065  -53.1134 H         1 UNK         0.0800 
    245 H245       -0.6364  -17.1532  -52.7555 H         1 UNK         0.0800 
    246 H246        2.1885  -19.2300  -53.9346 H         1 UNK         0.0800 
    247 H247        0.5902  -19.1526  -53.2550 H         1 UNK         0.0800 
@<TRIPOS>BOND
     1    1    2 1    
     2    1  127 1    
     3    1  128 1    
     4    1  129 1    
     5    2    3 2    
     6    2    4 am   BACKBONE|DICT|INTERRES
     7    4    5 1    
     8    4  130 1    
     9    5    6 1    
    10    5   65 1    
    11    5  131 1    
    12    6    7 1    
    13    6  132 1    
    14    6  133 1    
    15    7    8 1    
    16    8    9 1    
    17    8  134 1    
    18    8  135 1    
    19    9   10 ar   
    20    9   14 ar   
    21   10   11 ar   
    22   10  136 1    
    23   11   12 ar   
    24   11  126 1    
    25   12   13 ar   
    26   12  137 1    
    27   13   14 ar   
    28   13   15 1    
    29   14  138 1    
    30   15   16 1    
    31   15  139 1    
    32   15  140 1    
    33   16   17 1    
    34   17   18 1    
    35   17  141 1    
    36   17  142 1    
    37   18   19 1    
    38   18   67 1    
    39   18  143 1    
    40   19   20 am   BACKBONE|DICT|INTERRES
    41   19  144 1    
    42   20   21 2    
    43   20   22 1    
    44   22   23 1    
    45   22   24 1    
    46   22  145 1    
    47   23  146 1    
    48   23  147 1    
    49   23  148 1    
    50   24   25 am   BACKBONE|DICT|INTERRES
    51   24  149 1    
    52   25   26 2    
    53   25   27 1    
    54   27   28 1    
    55   27   29 1    
    56   27  150 1    
    57   28  151 1    
    58   28  152 1    
    59   28  153 1    
    60   29   30 am   BACKBONE|DICT|INTERRES
    61   29  154 1    
    62   30   31 2    
    63   30   32 1    
    64   32   33 1    
    65   32   34 1    
    66   32  155 1    
    67   33  156 1    
    68   33  157 1    
    69   33  158 1    
    70   34   35 am   BACKBONE|DICT|INTERRES
    71   34  159 1    
    72   35   36 2    
    73   35   37 1    
    74   37   38 1    
    75   37   39 1    
    76   37  160 1    
    77   38  161 1    
    78   38  162 1    
    79   38  163 1    
    80   39   40 am   BACKBONE|DICT|INTERRES
    81   39  164 1    
    82   40   41 2    
    83   40   42 1    
    84   42   43 1    
    85   42   44 1    
    86   42  165 1    
    87   43  166 1    
    88   43  167 1    
    89   43  168 1    
    90   44   45 am   BACKBONE|DICT|INTERRES
    91   44  169 1    
    92   45   46 2    
    93   45   47 1    
    94   47   48 1    
    95   47   49 1    
    96   47  170 1    
    97   48  171 1    
    98   48  172 1    
    99   48  173 1    
   100   49   50 am   BACKBONE|DICT|INTERRES
   101   49  174 1    
   102   50   51 2    
   103   50   52 1    
   104   52   53 1    
   105   52   54 1    
   106   52  175 1    
   107   53  176 1    
   108   53  177 1    
   109   53  178 1    
   110   54   55 am   BACKBONE|DICT|INTERRES
   111   54  179 1    
   112   55   56 2    
   113   55   57 1    
   114   57   58 1    
   115   57   59 1    
   116   57  180 1    
   117   58  181 1    
   118   58  182 1    
   119   58  183 1    
   120   59   60 am   BACKBONE|DICT|INTERRES
   121   59  184 1    
   122   60   61 2    
   123   60   62 1    
   124   62   63 1    
   125   62   64 1    
   126   62  185 1    
   127   63  186 1    
   128   63  187 1    
   129   63  188 1    
   130   64   65 am   BACKBONE|DICT|INTERRES
   131   64  189 1    
   132   65   66 2    
   133   67   68 2    
   134   67   69 am   BACKBONE|DICT|INTERRES
   135   69   70 1    
   136   69  190 1    
   137   70   71 1    
   138   70   72 1    
   139   70  191 1    
   140   71  192 1    
   141   71  193 1    
   142   71  194 1    
   143   72   73 2    
   144   72   74 am   BACKBONE|DICT|INTERRES
   145   74   75 1    
   146   74  195 1    
   147   75   76 1    
   148   75   77 1    
   149   75  196 1    
   150   76  197 1    
   151   76  198 1    
   152   76  199 1    
   153   77   78 2    
   154   77   79 am   BACKBONE|DICT|INTERRES
   155   79   80 1    
   156   79  200 1    
   157   80   81 1    
   158   80   82 1    
   159   80  201 1    
   160   81  202 1    
   161   81  203 1    
   162   81  204 1    
   163   82   83 2    
   164   82   84 am   BACKBONE|DICT|INTERRES
   165   84   85 1    
   166   84  205 1    
   167   85   86 1    
   168   85   87 1    
   169   85  206 1    
   170   86  207 1    
   171   86  208 1    
   172   86  209 1    
   173   87   88 2    
   174   87   89 am   BACKBONE|DICT|INTERRES
   175   89   90 1    
   176   89  210 1    
   177   90   91 1    
   178   90   92 1    
   179   90  211 1    
   180   91  212 1    
   181   91  213 1    
   182   91  214 1    
   183   92   93 2    
   184   92   94 am   BACKBONE|DICT|INTERRES
   185   94   95 1    
   186   94  215 1    
   187   95   96 1    
   188   95   97 1    
   189   95  216 1    
   190   96  217 1    
   191   96  218 1    
   192   96  219 1    
   193   97   98 2    
   194   97   99 am   BACKBONE|DICT|INTERRES
   195   99  100 1    
   196   99  220 1    
   197  100  101 1    
   198  100  102 1    
   199  100  221 1    
   200  101  222 1    
   201  101  223 1    
   202  101  224 1    
   203  102  103 2    
   204  102  104 am   BACKBONE|DICT|INTERRES
   205  104  105 1    
   206  104  225 1    
   207  105  106 1    
   208  105  107 1    
   209  105  226 1    
   210  106  227 1    
   211  106  228 1    
   212  106  229 1    
   213  107  108 2    
   214  107  109 am   BACKBONE|DICT|INTERRES
   215  109  110 1    
   216  109  230 1    
   217  110  111 1    
   218  110  112 1    
   219  110  231 1    
   220  111  232 1    
   221  111  233 1    
   222  111  234 1    
   223  112  113 2    
   224  112  114 am   BACKBONE|DICT|INTERRES
   225  114  115 1    
   226  114  235 1    
   227  115  116 1    
   228  115  117 1    
   229  115  236 1    
   230  116  237 1    
   231  116  238 1    
   232  116  239 1    
   233  117  118 2    
   234  117  119 am   BACKBONE|DICT|INTERRES
   235  119  120 1    
   236  119  240 1    
   237  120  121 1    
   238  120  124 1    
   239  120  241 1    
   240  121  122 am   BACKBONE|DICT|INTERRES
   241  121  123 2    
   242  122  242 1    
   243  122  243 1    
   244  124  125 1    
   245  124  244 1    
   246  124  245 1    
   247  125  126 1    
   248  126  246 1    
   249  126  247 1    
@<TRIPOS>SUBSTRUCTURE
     1 UNK         1 GROUP             0       ****    0 ROOT    
