@<TRIPOS>MOLECULE
3R540
247   249    1
SMALL
USER_CHARGES


@<TRIPOS>ATOM
      1 CA          0.1033  -13.3305  -43.8102 C.3       0 UNK        -0.1800 
      2 C          -0.5433  -12.6871  -45.0258 C.2       0 UNK         0.5000 
      3 O          -0.0553  -12.8409  -46.1427 O.2       0 UNK        -0.5000 
      4 N          -1.6556  -11.9821  -44.7959 N.am      1 UNK        -0.5000 
      5 CA         -2.5221  -11.3441  -45.7965 C.3       1 UNK         0.1400 
      6 C6         -3.3053  -12.3925  -46.6413 C.3       23 UNK        -0.0398 
      7 S7         -4.2021  -13.6332  -45.6398 S.3       23 UNK        -0.2404 
      8 C8         -3.1914  -15.1303  -45.8970 C.3       23 UNK        -0.0205 
      9 C9         -3.6392  -15.9276  -47.1125 C.ar      23 UNK        -0.0193 
     10 C10        -3.2254  -15.5640  -48.3965 C.ar      23 UNK        -0.1150 
     11 C11        -3.6597  -16.2797  -49.5152 C.ar      23 UNK        -0.0193 
     12 C12        -4.4928  -17.3892  -49.3419 C.ar      23 UNK        -0.1150 
     13 C13        -4.8887  -17.7821  -48.0587 C.ar      23 UNK        -0.0193 
     14 C14        -4.4650  -17.0426  -46.9507 C.ar      23 UNK        -0.1150 
     15 C15        -5.7804  -18.9998  -47.8591 C.3       23 UNK        -0.0205 
     16 S16        -4.9473  -20.5583  -48.2965 S.3       23 UNK        -0.2404 
     17 C17        -3.4008  -20.4549  -47.3341 C.3       23 UNK        -0.0398 
     18 CA         -2.7331  -21.8401  -47.1805 C.3       11 UNK         0.1400 
     19 N          -1.2836  -21.7535  -46.9994 N.am      11 UNK        -0.5000 
     20 C          -0.4543  -22.8038  -47.0877 C.2       10 UNK         0.5000 
     21 O          -0.8244  -23.9456  -47.3619 O.2       10 UNK        -0.5000 
     22 CA          1.0294  -22.5506  -46.7747 C.3       10 UNK         0.1400 
     23 CB          1.7482  -21.9484  -47.9901 C.3       10 UNK        -0.1800 
     24 N           1.2164  -21.6909  -45.6060 N.am      10 UNK        -0.5000 
     25 C           0.8394  -22.0213  -44.3619 C.2       9 UNK         0.5000 
     26 O           0.3227  -23.0991  -44.0680 O.2       9 UNK        -0.5000 
     27 CA          1.0252  -20.9537  -43.2698 C.3       9 UNK         0.1400 
     28 CB          2.4924  -20.8775  -42.8227 C.3       9 UNK        -0.1800 
     29 N           0.5691  -19.6292  -43.6899 N.am      9 UNK        -0.5000 
     30 C          -0.6910  -19.3286  -44.0358 C.2       8 UNK         0.5000 
     31 O          -1.6209  -20.1340  -44.0219 O.2       8 UNK        -0.5000 
     32 CA         -0.9456  -17.8964  -44.5312 C.3       8 UNK         0.1400 
     33 CB         -1.0274  -16.9153  -43.3519 C.3       8 UNK        -0.1800 
     34 N           0.0755  -17.4542  -45.4793 N.am      8 UNK        -0.5000 
     35 C           0.2816  -18.0108  -46.6817 C.2       7 UNK         0.5000 
     36 O          -0.3881  -18.9385  -47.1360 O.2       7 UNK        -0.5000 
     37 CA          1.4789  -17.4739  -47.4807 C.3       7 UNK         0.1400 
     38 CB          1.1273  -16.1367  -48.1511 C.3       7 UNK        -0.1800 
     39 N           2.6660  -17.3150  -46.6374 N.am      7 UNK        -0.5000 
     40 C           3.3556  -18.3404  -46.1129 C.2       6 UNK         0.5000 
     41 O           3.0679  -19.5210  -46.3045 O.2       6 UNK        -0.5000 
     42 CA          4.5438  -18.0044  -45.1896 C.3       6 UNK         0.1400 
     43 CB          5.8300  -17.8329  -46.0109 C.3       6 UNK        -0.1800 
     44 N           4.3338  -16.8103  -44.3720 N.am      6 UNK        -0.5000 
     45 C           3.3404  -16.6471  -43.4886 C.2       5 UNK         0.5000 
     46 O           2.5170  -17.5217  -43.2183 O.2       5 UNK        -0.5000 
     47 CA          3.2121  -15.2621  -42.8259 C.3       5 UNK         0.1400 
     48 CB          3.9405  -15.2514  -41.4743 C.3       5 UNK        -0.1800 
     49 N           3.6764  -14.1177  -43.6228 N.am      5 UNK        -0.5000 
     50 C           3.3696  -13.8240  -44.8948 C.2       4 UNK         0.5000 
     51 O           2.7333  -14.5770  -45.6328 O.2       4 UNK        -0.5000 
     52 CA          3.8368  -12.4444  -45.4065 C.3       4 UNK         0.1400 
     53 CB          3.5963  -12.2662  -46.9161 C.3       4 UNK        -0.1800 
     54 N           3.1806  -11.3420  -44.6983 N.am      4 UNK        -0.5000 
     55 C           3.4433  -10.9281  -43.4534 C.2       3 UNK         0.5000 
     56 O           4.3025  -11.4524  -42.7424 O.2       3 UNK        -0.5000 
     57 CA          2.6181   -9.7545  -42.8788 C.3       3 UNK         0.1400 
     58 CB          3.4011   -8.4327  -42.9961 C.3       3 UNK        -0.1800 
     59 N           1.2433   -9.5968  -43.3875 N.am      3 UNK        -0.5000 
     60 C           0.8363   -9.2665  -44.6206 C.2       2 UNK         0.5000 
     61 O           1.5966   -9.1301  -45.5819 O.2       2 UNK        -0.5000 
     62 CA         -0.6737   -9.0296  -44.8047 C.3       2 UNK         0.1400 
     63 CB         -1.0073   -7.5551  -44.5299 C.3       2 UNK        -0.1800 
     64 N          -1.0302   -9.3318  -46.1898 N.am      2 UNK        -0.5000 
     65 C          -1.7888  -10.3121  -46.7041 C.2       1 UNK         0.5000 
     66 O          -1.9149  -10.3991  -47.9258 O.2       1 UNK        -0.5000 
     67 C          -3.4042  -22.6918  -46.0862 C.2       11 UNK         0.5000 
     68 O          -4.2333  -23.5385  -46.4125 O.2       11 UNK        -0.5000 
     69 N          -3.0047  -22.5000  -44.8217 N.am      12 UNK        -0.5000 
     70 CA         -3.4799  -23.2873  -43.6827 C.3       12 UNK         0.1400 
     71 CB         -2.9481  -22.6747  -42.3781 C.3       12 UNK        -0.1800 
     72 C          -3.1019  -24.7781  -43.7782 C.2       12 UNK         0.5000 
     73 O          -3.9083  -25.6314  -43.4059 O.2       12 UNK        -0.5000 
     74 N          -1.8927  -25.0617  -44.2793 N.am      13 UNK        -0.5000 
     75 CA         -1.3758  -26.4125  -44.4735 C.3       13 UNK         0.1400 
     76 CB          0.1514  -26.3573  -44.6418 C.3       13 UNK        -0.1800 
     77 C          -2.0319  -27.1410  -45.6601 C.2       13 UNK         0.5000 
     78 O          -2.5301  -28.2540  -45.4841 O.2       13 UNK        -0.5000 
     79 N          -1.9853  -26.5273  -46.8501 N.am      14 UNK        -0.5000 
     80 CA         -2.3419  -27.1840  -48.1097 C.3       14 UNK         0.1400 
     81 CB         -1.4376  -26.6394  -49.2265 C.3       14 UNK        -0.1800 
     82 C          -3.8205  -27.0309  -48.5054 C.2       14 UNK         0.5000 
     83 O          -4.3104  -27.8649  -49.2687 O.2       14 UNK        -0.5000 
     84 N          -4.4911  -25.9758  -48.0146 N.am      15 UNK        -0.5000 
     85 CA         -5.8199  -25.4992  -48.4287 C.3       15 UNK         0.1400 
     86 CB         -6.9049  -26.5631  -48.1534 C.3       15 UNK        -0.1800 
     87 C          -5.8374  -24.9984  -49.8913 C.2       15 UNK         0.5000 
     88 O          -4.7919  -24.9518  -50.5434 O.2       15 UNK        -0.5000 
     89 N          -7.0253  -24.6046  -50.3761 N.am      16 UNK        -0.5000 
     90 CA         -7.3344  -24.2418  -51.7676 C.3       16 UNK         0.1400 
     91 CB         -7.3813  -25.5179  -52.6343 C.3       16 UNK        -0.1800 
     92 C          -6.3979  -23.1644  -52.3579 C.2       16 UNK         0.5000 
     93 O          -5.8165  -23.3700  -53.4245 O.2       16 UNK        -0.5000 
     94 N          -6.2344  -22.0525  -51.6250 N.am      17 UNK        -0.5000 
     95 CA         -5.3353  -20.9322  -51.9372 C.3       17 UNK         0.1400 
     96 CB         -5.8111  -20.1689  -53.1915 C.3       17 UNK        -0.1800 
     97 C          -3.8581  -21.3720  -52.0222 C.2       17 UNK         0.5000 
     98 O          -3.1543  -20.9949  -52.9588 O.2       17 UNK        -0.5000 
     99 N          -3.4332  -22.1916  -51.0496 N.am      18 UNK        -0.5000 
    100 CA        -2.1108  -22.8157  -50.9329 C.3       18 UNK         0.1400 
    101 CB        -1.0212  -21.7482  -50.6973 C.3       18 UNK        -0.1800 
    102 C         -1.8037  -23.7377  -52.1300 C.2       18 UNK         0.5000 
    103 O         -0.7514  -23.6117  -52.7555 O.2       18 UNK        -0.5000 
    104 N         -2.7630  -24.6155  -52.4576 N.am      19 UNK        -0.5000 
    105 CA        -2.7981  -25.4806  -53.6430 C.3       19 UNK         0.1400 
    106 CB        -1.7506  -26.6068  -53.5278 C.3       19 UNK        -0.1800 
    107 C         -2.6810  -24.6679  -54.9519 C.2       19 UNK         0.5000 
    108 O         -1.8788  -24.9963  -55.8274 O.2       19 UNK        -0.5000 
    109 N         -3.4672  -23.5855  -55.0187 N.am      20 UNK        -0.5000 
    110 CA        -3.5492  -22.5610  -56.0624 C.3       20 UNK         0.1400 
    111 CB        -3.9479  -23.1799  -57.4174 C.3       20 UNK        -0.1800 
    112 C         -2.3169  -21.6392  -56.1931 C.2       20 UNK         0.5000 
    113 O         -2.3627  -20.7156  -57.0079 O.2       20 UNK        -0.5000 
    114 N         -1.2561  -21.8452  -55.3966 N.am      21 UNK        -0.5000 
    115 CA        -0.0238  -21.0489  -55.4429 C.3       21 UNK         0.1400 
    116 CB         1.0665  -21.7259  -54.6002 C.3       21 UNK        -0.1800 
    117 C         -0.2143  -19.5861  -54.9971 C.2       21 UNK         0.5000 
    118 O          0.5158  -18.7132  -55.4686 O.2       21 UNK        -0.5000 
    119 N         -1.1974  -19.3443  -54.1224 N.am      22 UNK        -0.5000 
    120 CA        -1.6450  -18.0147  -53.6874 C.3       22 UNK         0.1400 
    121 C         -2.7881  -17.4310  -54.5756 C.2       22 UNK         0.5000 
    122 N         -3.2110  -18.0890  -55.6501 N.am      22 UNK        -0.7600 
    123 O         -3.2962  -16.3477  -54.3031 O.2       22 UNK        -0.5000 
    124 C124       -1.9985  -18.0227  -52.1729 C.3       23 UNK        -0.0398 
    125 S125       -1.5912  -16.4470  -51.3487 S.3       23 UNK        -0.2404 
    126 C126       -3.2416  -15.8245  -50.9045 C.3       23 UNK        -0.0205 
    127 H127        0.9447  -12.7320  -43.4657 H         1 UNK         0.0600 
    128 H128        0.4653  -14.3238  -44.0705 H         1 UNK         0.0600 
    129 H129       -0.6019  -13.4355  -42.9855 H         1 UNK         0.0600 
    130 H130       -1.9991  -11.9225  -43.8478 H         1 UNK         0.3000 
    131 H131       -3.2579  -10.7689  -45.2327 H         1 UNK         0.0600 
    132 H132       -4.0420  -11.8931  -47.2726 H         1 UNK         0.0800 
    133 H133       -2.6235  -12.9002  -47.3218 H         1 UNK         0.0800 
    134 H134       -2.1353  -14.8768  -45.9892 H         1 UNK         0.0800 
    135 H135       -3.2772  -15.7476  -45.0026 H         1 UNK         0.0800 
    136 H136       -2.5695  -14.7181  -48.5356 H         1 UNK         0.1150 
    137 H137       -4.8298  -17.9499  -50.2017 H         1 UNK         0.1150 
    138 H138       -4.7789  -17.3349  -45.9585 H         1 UNK         0.1150 
    139 H139       -6.1241  -19.0639  -46.8255 H         1 UNK         0.0800 
    140 H140       -6.6759  -18.8928  -48.4724 H         1 UNK         0.0800 
    141 H141       -2.7420  -19.7810  -47.8829 H         1 UNK         0.0800 
    142 H142       -3.5794  -19.9837  -46.3657 H         1 UNK         0.0800 
    143 H143       -2.8783  -22.3776  -48.1181 H         1 UNK         0.0600 
    144 H144       -0.9003  -20.8329  -46.8053 H         1 UNK         0.3000 
    145 H145        1.4906  -23.5155  -46.5542 H         1 UNK         0.0600 
    146 H146        2.8130  -21.8219  -47.7945 H         1 UNK         0.0600 
    147 H147        1.6568  -22.6007  -48.8588 H         1 UNK         0.0600 
    148 H148        1.3389  -20.9740  -48.2602 H         1 UNK         0.0600 
    149 H149        1.6718  -20.7975  -45.7686 H         1 UNK         0.3000 
    150 H150        0.4231  -21.2518  -42.4091 H         1 UNK         0.0600 
    151 H151        2.6186  -20.1700  -42.0030 H         1 UNK         0.0600 
    152 H152        2.8449  -21.8486  -42.4728 H         1 UNK         0.0600 
    153 H153        3.1455  -20.5648  -43.6375 H         1 UNK         0.0600 
    154 H154        1.2665  -18.8894  -43.6948 H         1 UNK         0.3000 
    155 H155       -1.9071  -17.8918  -45.0489 H         1 UNK         0.0600 
    156 H156       -0.0823  -16.8466  -42.8128 H         1 UNK         0.0600 
    157 H157       -1.7892  -17.2298  -42.6375 H         1 UNK         0.0600 
    158 H158       -1.2947  -15.9147  -43.6864 H         1 UNK         0.0600 
    159 H159        0.7084  -16.7299  -45.1729 H         1 UNK         0.3000 
    160 H160        1.7107  -18.1970  -48.2656 H         1 UNK         0.0600 
    161 H161        0.8723  -15.3689  -47.4194 H         1 UNK         0.0600 
    162 H162        0.2695  -16.2494  -48.8153 H         1 UNK         0.0600 
    163 H163        1.9580  -15.7643  -48.7505 H         1 UNK         0.0600 
    164 H164        2.9108  -16.3640  -46.3744 H         1 UNK         0.3000 
    165 H165        4.6829  -18.8480  -44.5109 H         1 UNK         0.0600 
    166 H166        6.6949  -17.6844  -45.3642 H         1 UNK         0.0600 
    167 H167        6.0270  -18.7184  -46.6168 H         1 UNK         0.0600 
    168 H168        5.7645  -16.9797  -46.6874 H         1 UNK         0.0600 
    169 H169        4.9502  -16.0295  -44.5408 H         1 UNK         0.3000 
    170 H170        2.1509  -15.1055  -42.6304 H         1 UNK         0.0600 
    171 H171        3.6015  -16.0706  -40.8386 H         1 UNK         0.0600 
    172 H172        5.0189  -15.3562  -41.5995 H         1 UNK         0.0600 
    173 H173        3.7541  -14.3236  -40.9328 H         1 UNK         0.0600 
    174 H174        4.1667  -13.3939  -43.1063 H         1 UNK         0.3000 
    175 H175        4.9127  -12.3799  -45.2319 H         1 UNK         0.0600 
    176 H176        2.5332  -12.2964  -47.1594 H         1 UNK         0.0600 
    177 H177        3.9927  -11.3140  -47.2689 H         1 UNK         0.0600 
    178 H178        4.0871  -13.0549  -47.4877 H         1 UNK         0.0600 
    179 H179        2.4894  -10.8153  -45.2225 H         1 UNK         0.3000 
    180 H180        2.5051   -9.9664  -41.8144 H         1 UNK         0.0600 
    181 H181        3.5767   -8.1535  -44.0354 H         1 UNK         0.0600 
    182 H182        4.3760   -8.5131  -42.5133 H         1 UNK         0.0600 
    183 H183        2.8676   -7.6136  -42.5138 H         1 UNK         0.0600 
    184 H184        0.5311   -9.7020  -42.6781 H         1 UNK         0.3000 
    185 H185       -1.2344   -9.6284  -44.0902 H         1 UNK         0.0600 
    186 H186       -0.7593   -7.2815  -43.5034 H         1 UNK         0.0600 
    187 H187       -0.4554   -6.8847  -45.1903 H         1 UNK         0.0600 
    188 H188       -2.0708   -7.3598  -44.6692 H         1 UNK         0.0600 
    189 H189       -0.5271   -8.7610  -46.8537 H         1 UNK         0.3000 
    190 H190       -2.3428  -21.7553  -44.6149 H         1 UNK         0.3000 
    191 H191       -4.5699  -23.2239  -43.6672 H         1 UNK         0.0600 
    192 H192       -3.2872  -21.6455  -42.2596 H         1 UNK         0.0600 
    193 H193       -3.2990  -23.2351  -41.5107 H         1 UNK         0.0600 
    194 H194       -1.8580  -22.6724  -42.3502 H         1 UNK         0.0600 
    195 H195       -1.2647  -24.2964  -44.5021 H         1 UNK         0.3000 
    196 H196       -1.5873  -26.9910  -43.5716 H         1 UNK         0.0600 
    197 H197        0.5652  -27.3546  -44.7955 H         1 UNK         0.0600 
    198 H198        0.6287  -25.9405  -43.7548 H         1 UNK         0.0600 
    199 H199        0.4435  -25.7440  -45.4950 H         1 UNK         0.0600 
    200 H200       -1.5689  -25.6011  -46.9226 H         1 UNK         0.3000 
    201 H201       -2.1406  -28.2542  -48.0253 H         1 UNK         0.0600 
    202 H202       -0.3837  -26.7888  -48.9916 H         1 UNK         0.0600 
    203 H203       -1.5973  -25.5746  -49.3865 H         1 UNK         0.0600 
    204 H204       -1.6361  -27.1447  -50.1720 H         1 UNK         0.0600 
    205 H205       -4.0016  -25.3438  -47.3910 H         1 UNK         0.3000 
    206 H206       -6.0472  -24.6340  -47.8069 H         1 UNK         0.0600 
    207 H207       -6.8069  -26.9734  -47.1482 H         1 UNK         0.0600 
    208 H208       -7.9054  -26.1364  -48.2265 H         1 UNK         0.0600 
    209 H209       -6.8545  -27.3920  -48.8598 H         1 UNK         0.0600 
    210 H210       -7.8212  -24.6314  -49.7545 H         1 UNK         0.3000 
    211 H211       -8.3352  -23.8078  -51.7646 H         1 UNK         0.0600 
    212 H212       -6.4054  -26.0016  -52.6928 H         1 UNK         0.0600 
    213 H213       -7.6965  -25.2899  -53.6533 H         1 UNK         0.0600 
    214 H214       -8.0892  -26.2421  -52.2314 H         1 UNK         0.0600 
    215 H215       -6.7338  -21.9851  -50.7492 H         1 UNK         0.3000 
    216 H216       -5.3995  -20.2350  -51.1031 H         1 UNK         0.0600 
    217 H217       -5.7459  -20.7794  -54.0917 H         1 UNK         0.0600 
    218 H218       -5.2055  -19.2775  -53.3594 H         1 UNK         0.0600 
    219 H219       -6.8449  -19.8414  -53.0837 H         1 UNK         0.0600 
    220 H220       -4.1160  -22.4944  -50.3700 H         1 UNK         0.3000 
    221 H221       -2.1462  -23.4544  -50.0513 H         1 UNK         0.0600 
    222 H222       -0.8669  -21.1239  -51.5771 H         1 UNK         0.0600 
    223 H223       -1.2748  -21.0947  -49.8629 H         1 UNK         0.0600 
    224 H224       -0.0661  -22.2189  -50.4670 H         1 UNK         0.0600 
    225 H225       -3.5858  -24.6616  -51.8568 H         1 UNK         0.3000 
    226 H226       -3.7853  -25.9448  -53.6556 H         1 UNK         0.0600 
    227 H227       -1.8937  -27.1835  -52.6146 H         1 UNK         0.0600 
    228 H228       -1.8313  -27.3015  -54.3645 H         1 UNK         0.0600 
    229 H229       -0.7324  -26.2168  -53.5233 H         1 UNK         0.0600 
    230 H230       -4.1178  -23.4392  -54.2497 H         1 UNK         0.3000 
    231 H231       -4.3664  -21.9087  -55.7531 H         1 UNK         0.0600 
    232 H232       -3.1528  -23.8002  -57.8314 H         1 UNK         0.0600 
    233 H233       -4.1683  -22.4041  -58.1515 H         1 UNK         0.0600 
    234 H234       -4.8417  -23.7964  -57.3215 H         1 UNK         0.0600 
    235 H235       -1.2919  -22.5893  -54.7105 H         1 UNK         0.3000 
    236 H236        0.3164  -21.0340  -56.4804 H         1 UNK         0.0600 
    237 H237        1.1945  -22.7719  -54.8794 H         1 UNK         0.0600 
    238 H238        2.0279  -21.2303  -54.7398 H         1 UNK         0.0600 
    239 H239        0.8336  -21.6860  -53.5358 H         1 UNK         0.0600 
    240 H240       -1.7796  -20.1181  -53.8060 H         1 UNK         0.3000 
    241 H241       -0.8056  -17.3307  -53.8231 H         1 UNK         0.0600 
    242 H242       -3.9428  -17.6862  -56.2130 H         1 UNK         0.3800 
    243 H243       -2.7891  -18.9644  -55.9337 H         1 UNK         0.3800 
    244 H244       -3.0417  -18.2944  -52.0071 H         1 UNK         0.0800 
    245 H245       -1.4166  -18.7853  -51.6546 H         1 UNK         0.0800 
    246 H246       -3.9788  -16.1269  -51.6496 H         1 UNK         0.0800 
    247 H247       -3.2193  -14.7342  -50.9350 H         1 UNK         0.0800 
@<TRIPOS>BOND
     1    1    2 1    
     2    1  127 1    
     3    1  128 1    
     4    1  129 1    
     5    2    3 2    
     6    2    4 am   BACKBONE|DICT|INTERRES
     7    4    5 1    
     8    4  130 1    
     9    5    6 1    
    10    5   65 1    
    11    5  131 1    
    12    6    7 1    
    13    6  132 1    
    14    6  133 1    
    15    7    8 1    
    16    8    9 1    
    17    8  134 1    
    18    8  135 1    
    19    9   10 ar   
    20    9   14 ar   
    21   10   11 ar   
    22   10  136 1    
    23   11   12 ar   
    24   11  126 1    
    25   12   13 ar   
    26   12  137 1    
    27   13   14 ar   
    28   13   15 1    
    29   14  138 1    
    30   15   16 1    
    31   15  139 1    
    32   15  140 1    
    33   16   17 1    
    34   17   18 1    
    35   17  141 1    
    36   17  142 1    
    37   18   19 1    
    38   18   67 1    
    39   18  143 1    
    40   19   20 am   BACKBONE|DICT|INTERRES
    41   19  144 1    
    42   20   21 2    
    43   20   22 1    
    44   22   23 1    
    45   22   24 1    
    46   22  145 1    
    47   23  146 1    
    48   23  147 1    
    49   23  148 1    
    50   24   25 am   BACKBONE|DICT|INTERRES
    51   24  149 1    
    52   25   26 2    
    53   25   27 1    
    54   27   28 1    
    55   27   29 1    
    56   27  150 1    
    57   28  151 1    
    58   28  152 1    
    59   28  153 1    
    60   29   30 am   BACKBONE|DICT|INTERRES
    61   29  154 1    
    62   30   31 2    
    63   30   32 1    
    64   32   33 1    
    65   32   34 1    
    66   32  155 1    
    67   33  156 1    
    68   33  157 1    
    69   33  158 1    
    70   34   35 am   BACKBONE|DICT|INTERRES
    71   34  159 1    
    72   35   36 2    
    73   35   37 1    
    74   37   38 1    
    75   37   39 1    
    76   37  160 1    
    77   38  161 1    
    78   38  162 1    
    79   38  163 1    
    80   39   40 am   BACKBONE|DICT|INTERRES
    81   39  164 1    
    82   40   41 2    
    83   40   42 1    
    84   42   43 1    
    85   42   44 1    
    86   42  165 1    
    87   43  166 1    
    88   43  167 1    
    89   43  168 1    
    90   44   45 am   BACKBONE|DICT|INTERRES
    91   44  169 1    
    92   45   46 2    
    93   45   47 1    
    94   47   48 1    
    95   47   49 1    
    96   47  170 1    
    97   48  171 1    
    98   48  172 1    
    99   48  173 1    
   100   49   50 am   BACKBONE|DICT|INTERRES
   101   49  174 1    
   102   50   51 2    
   103   50   52 1    
   104   52   53 1    
   105   52   54 1    
   106   52  175 1    
   107   53  176 1    
   108   53  177 1    
   109   53  178 1    
   110   54   55 am   BACKBONE|DICT|INTERRES
   111   54  179 1    
   112   55   56 2    
   113   55   57 1    
   114   57   58 1    
   115   57   59 1    
   116   57  180 1    
   117   58  181 1    
   118   58  182 1    
   119   58  183 1    
   120   59   60 am   BACKBONE|DICT|INTERRES
   121   59  184 1    
   122   60   61 2    
   123   60   62 1    
   124   62   63 1    
   125   62   64 1    
   126   62  185 1    
   127   63  186 1    
   128   63  187 1    
   129   63  188 1    
   130   64   65 am   BACKBONE|DICT|INTERRES
   131   64  189 1    
   132   65   66 2    
   133   67   68 2    
   134   67   69 am   BACKBONE|DICT|INTERRES
   135   69   70 1    
   136   69  190 1    
   137   70   71 1    
   138   70   72 1    
   139   70  191 1    
   140   71  192 1    
   141   71  193 1    
   142   71  194 1    
   143   72   73 2    
   144   72   74 am   BACKBONE|DICT|INTERRES
   145   74   75 1    
   146   74  195 1    
   147   75   76 1    
   148   75   77 1    
   149   75  196 1    
   150   76  197 1    
   151   76  198 1    
   152   76  199 1    
   153   77   78 2    
   154   77   79 am   BACKBONE|DICT|INTERRES
   155   79   80 1    
   156   79  200 1    
   157   80   81 1    
   158   80   82 1    
   159   80  201 1    
   160   81  202 1    
   161   81  203 1    
   162   81  204 1    
   163   82   83 2    
   164   82   84 am   BACKBONE|DICT|INTERRES
   165   84   85 1    
   166   84  205 1    
   167   85   86 1    
   168   85   87 1    
   169   85  206 1    
   170   86  207 1    
   171   86  208 1    
   172   86  209 1    
   173   87   88 2    
   174   87   89 am   BACKBONE|DICT|INTERRES
   175   89   90 1    
   176   89  210 1    
   177   90   91 1    
   178   90   92 1    
   179   90  211 1    
   180   91  212 1    
   181   91  213 1    
   182   91  214 1    
   183   92   93 2    
   184   92   94 am   BACKBONE|DICT|INTERRES
   185   94   95 1    
   186   94  215 1    
   187   95   96 1    
   188   95   97 1    
   189   95  216 1    
   190   96  217 1    
   191   96  218 1    
   192   96  219 1    
   193   97   98 2    
   194   97   99 am   BACKBONE|DICT|INTERRES
   195   99  100 1    
   196   99  220 1    
   197  100  101 1    
   198  100  102 1    
   199  100  221 1    
   200  101  222 1    
   201  101  223 1    
   202  101  224 1    
   203  102  103 2    
   204  102  104 am   BACKBONE|DICT|INTERRES
   205  104  105 1    
   206  104  225 1    
   207  105  106 1    
   208  105  107 1    
   209  105  226 1    
   210  106  227 1    
   211  106  228 1    
   212  106  229 1    
   213  107  108 2    
   214  107  109 am   BACKBONE|DICT|INTERRES
   215  109  110 1    
   216  109  230 1    
   217  110  111 1    
   218  110  112 1    
   219  110  231 1    
   220  111  232 1    
   221  111  233 1    
   222  111  234 1    
   223  112  113 2    
   224  112  114 am   BACKBONE|DICT|INTERRES
   225  114  115 1    
   226  114  235 1    
   227  115  116 1    
   228  115  117 1    
   229  115  236 1    
   230  116  237 1    
   231  116  238 1    
   232  116  239 1    
   233  117  118 2    
   234  117  119 am   BACKBONE|DICT|INTERRES
   235  119  120 1    
   236  119  240 1    
   237  120  121 1    
   238  120  124 1    
   239  120  241 1    
   240  121  122 am   BACKBONE|DICT|INTERRES
   241  121  123 2    
   242  122  242 1    
   243  122  243 1    
   244  124  125 1    
   245  124  244 1    
   246  124  245 1    
   247  125  126 1    
   248  126  246 1    
   249  126  247 1    
@<TRIPOS>SUBSTRUCTURE
     1 UNK         1 GROUP             0       ****    0 ROOT    
