@<TRIPOS>MOLECULE
3R540
247   249    1
SMALL
USER_CHARGES


@<TRIPOS>ATOM
      1 CA          4.6554  -11.4779  -47.3898 C.3       0 UNK        -0.1800 
      2 C           3.5947  -12.5570  -47.2329 C.2       0 UNK         0.5000 
      3 O           3.5603  -13.2350  -46.2070 O.2       0 UNK        -0.5000 
      4 N           2.7204  -12.7105  -48.2362 N.am      1 UNK        -0.5000 
      5 CA          1.6420  -13.7076  -48.2805 C.3       1 UNK         0.1400 
      6 C6          0.8937  -13.6865  -49.6341 C.3       23 UNK        -0.0398 
      7 S7          1.8992  -14.3791  -50.9896 S.3       23 UNK        -0.2404 
      8 C8          1.6023  -16.1690  -50.7976 C.3       23 UNK        -0.0205 
      9 C9          0.1686  -16.5610  -51.1278 C.ar      23 UNK        -0.0193 
     10 C10        -0.2095  -16.7868  -52.4545 C.ar      23 UNK        -0.1150 
     11 C11        -1.5295  -17.1343  -52.7737 C.ar      23 UNK        -0.0193 
     12 C12        -2.4667  -17.2354  -51.7413 C.ar      23 UNK        -0.1150 
     13 C13        -2.1017  -17.0238  -50.4087 C.ar      23 UNK        -0.0193 
     14 C14        -0.7792  -16.6956  -50.1089 C.ar      23 UNK        -0.1150 
     15 C15        -3.1431  -17.1091  -49.3018 C.3       23 UNK        -0.0205 
     16 S16        -3.8947  -18.7645  -49.2081 S.3       23 UNK        -0.2404 
     17 C17        -3.5648  -19.3023  -47.4983 C.3       23 UNK        -0.0398 
     18 CA         -2.5799  -20.4982  -47.4401 C.3       11 UNK         0.1400 
     19 N          -1.1800  -20.0818  -47.5829 N.am      11 UNK        -0.5000 
     20 C          -0.1238  -20.9080  -47.6214 C.2       10 UNK         0.5000 
     21 O          -0.2200  -22.1335  -47.5497 O.2       10 UNK        -0.5000 
     22 CA          1.2851  -20.2814  -47.6762 C.3       10 UNK         0.1400 
     23 CB          1.2865  -18.7554  -47.8986 C.3       10 UNK        -0.1800 
     24 N           2.0734  -20.6172  -46.4849 N.am      10 UNK        -0.5000 
     25 C           1.7149  -20.4145  -45.2093 C.2       9 UNK         0.5000 
     26 O           0.6291  -19.9330  -44.8759 O.2       9 UNK        -0.5000 
     27 CA          2.7358  -20.8376  -44.1399 C.3       9 UNK         0.1400 
     28 CB          4.0225  -19.9968  -44.1994 C.3       9 UNK        -0.1800 
     29 N           2.1531  -20.6932  -42.8097 N.am      9 UNK        -0.5000 
     30 C           2.1253  -21.6432  -41.8682 C.2       8 UNK         0.5000 
     31 O           2.6185  -22.7622  -42.0164 O.2       8 UNK        -0.5000 
     32 CA          1.4578  -21.2692  -40.5322 C.3       8 UNK         0.1400 
     33 CB          1.9036  -22.1663  -39.3609 C.3       8 UNK        -0.1800 
     34 N           1.7156  -19.8676  -40.2066 N.am      8 UNK        -0.5000 
     35 C           0.8834  -19.0622  -39.5382 C.2       7 UNK         0.5000 
     36 O          -0.2197  -19.4224  -39.1236 O.2       7 UNK        -0.5000 
     37 CA          1.3605  -17.6210  -39.2673 C.3       7 UNK         0.1400 
     38 CB          2.8333  -17.3581  -39.6445 C.3       7 UNK        -0.1800 
     39 N           0.5145  -16.6862  -39.9990 N.am      7 UNK        -0.5000 
     40 C          -0.5982  -16.1085  -39.5285 C.2       6 UNK         0.5000 
     41 O          -1.0007  -16.2363  -38.3711 O.2       6 UNK        -0.5000 
     42 CA         -1.4000  -15.2274  -40.5082 C.3       6 UNK         0.1400 
     43 CB         -1.0896  -13.7417  -40.2698 C.3       6 UNK        -0.1800 
     44 N          -1.1543  -15.5550  -41.9149 N.am      6 UNK        -0.5000 
     45 C          -1.6015  -16.6633  -42.5223 C.2       5 UNK         0.5000 
     46 O          -2.3481  -17.4784  -41.9813 O.2       5 UNK        -0.5000 
     47 CA         -1.1255  -16.9193  -43.9655 C.3       5 UNK         0.1400 
     48 CB         -2.1066  -16.3124  -44.9787 C.3       5 UNK        -0.1800 
     49 N           0.2201  -16.4115  -44.2372 N.am      5 UNK        -0.5000 
     50 C           1.3397  -16.8792  -43.6664 C.2       4 UNK         0.5000 
     51 O           1.3637  -17.7784  -42.8242 O.2       4 UNK        -0.5000 
     52 CA          2.6525  -16.1848  -44.0671 C.3       4 UNK         0.1400 
     53 CB          3.0570  -16.5474  -45.5053 C.3       4 UNK        -0.1800 
     54 N           2.5696  -14.7316  -43.9377 N.am      4 UNK        -0.5000 
     55 C           2.3465  -14.0718  -42.7924 C.2       3 UNK         0.5000 
     56 O           2.2464  -14.6158  -41.6936 O.2       3 UNK        -0.5000 
     57 CA          2.1596  -12.5491  -42.9020 C.3       3 UNK         0.1400 
     58 CB          3.5155  -11.8273  -42.9259 C.3       3 UNK        -0.1800 
     59 N           1.3808  -12.1727  -44.0822 N.am      3 UNK        -0.5000 
     60 C           0.0764  -12.4367  -44.2443 C.2       2 UNK         0.5000 
     61 O          -0.6164  -13.0092  -43.4047 O.2       2 UNK        -0.5000 
     62 CA         -0.5470  -12.0274  -45.5900 C.3       2 UNK         0.1400 
     63 CB         -0.8953  -10.5315  -45.5982 C.3       2 UNK        -0.1800 
     64 N           0.3277  -12.3316  -46.7227 N.am      2 UNK        -0.5000 
     65 C           0.6421  -13.5744  -47.1142 C.2       1 UNK         0.5000 
     66 O           0.2028  -14.5923  -46.5778 O.2       1 UNK        -0.5000 
     67 C          -2.8572  -21.3503  -46.1841 C.2       11 UNK         0.5000 
     68 O          -3.7301  -22.2174  -46.2479 O.2       11 UNK        -0.5000 
     69 N          -2.1184  -21.1206  -45.0900 N.am      12 UNK        -0.5000 
     70 CA         -2.2687  -21.8759  -43.8454 C.3       12 UNK         0.1400 
     71 CB         -1.7510  -21.0307  -42.6734 C.3       12 UNK        -0.1800 
     72 C          -1.5788  -23.2536  -43.8870 C.2       12 UNK         0.5000 
     73 O          -1.9477  -24.1275  -43.1022 O.2       12 UNK        -0.5000 
     74 N          -0.6097  -23.4336  -44.7951 N.am      13 UNK        -0.5000 
     75 CA          0.0897  -24.7002  -45.0145 C.3       13 UNK         0.1400 
     76 CB          1.5655  -24.4218  -45.3371 C.3       13 UNK        -0.1800 
     77 C          -0.5649  -25.5119  -46.1433 C.2       13 UNK         0.5000 
     78 O          -0.7503  -26.7204  -45.9986 O.2       13 UNK        -0.5000 
     79 N          -0.9049  -24.8326  -47.2463 N.am      14 UNK        -0.5000 
     80 CA         -1.4834  -25.4246  -48.4532 C.3       14 UNK         0.1400 
     81 CB         -1.2792  -24.4442  -49.6169 C.3       14 UNK        -0.1800 
     82 C          -2.9791  -25.7649  -48.3252 C.2       14 UNK         0.5000 
     83 O          -3.4868  -26.5136  -49.1602 O.2       14 UNK        -0.5000 
     84 N          -3.6507  -25.1908  -47.3148 N.am      15 UNK        -0.5000 
     85 CA         -5.0982  -25.2044  -47.0875 C.3       15 UNK         0.1400 
     86 CB         -5.6309  -26.6355  -46.8608 C.3       15 UNK        -0.1800 
     87 C          -5.8232  -24.4436  -48.2144 C.2       15 UNK         0.5000 
     88 O          -6.5119  -25.0483  -49.0375 O.2       15 UNK        -0.5000 
     89 N          -5.6114  -23.1201  -48.2184 N.am      16 UNK        -0.5000 
     90 CA         -6.0964  -22.1280  -49.1807 C.3       16 UNK         0.1400 
     91 CB         -7.6367  -22.1209  -49.2801 C.3       16 UNK        -0.1800 
     92 C          -5.4037  -22.2642  -50.5498 C.2       16 UNK         0.5000 
     93 O          -6.0118  -22.7157  -51.5216 O.2       16 UNK        -0.5000 
     94 N          -4.1423  -21.8092  -50.6093 N.am      17 UNK        -0.5000 
     95 CA         -3.3240  -21.6841  -51.8235 C.3       17 UNK         0.1400 
     96 CB         -1.9496  -21.0962  -51.4604 C.3       17 UNK        -0.1800 
     97 C          -3.9755  -20.8241  -52.9241 C.2       17 UNK         0.5000 
     98 O          -3.7167  -21.0526  -54.1038 O.2       17 UNK        -0.5000 
     99 N          -4.8507  -19.8884  -52.5301 N.am      18 UNK        -0.5000 
    100 CA        -5.6764  -19.0562  -53.4077 C.3       18 UNK         0.1400 
    101 CB        -6.5179  -18.1104  -52.5373 C.3       18 UNK        -0.1800 
    102 C         -6.5851  -19.8492  -54.3715 C.2       18 UNK         0.5000 
    103 O         -6.9219  -19.3287  -55.4349 O.2       18 UNK        -0.5000 
    104 N         -6.9476  -21.0892  -54.0069 N.am      19 UNK        -0.5000 
    105 CA        -7.7019  -22.0061  -54.8635 C.3       19 UNK         0.1400 
    106 CB        -8.2954  -23.1320  -54.0035 C.3       19 UNK        -0.1800 
    107 C         -6.8475  -22.5910  -56.0060 C.2       19 UNK         0.5000 
    108 O         -7.3848  -22.8681  -57.0790 O.2       19 UNK        -0.5000 
    109 N         -5.5408  -22.7648  -55.7620 N.am      20 UNK        -0.5000 
    110 CA        -4.5653  -23.2221  -56.7527 C.3       20 UNK         0.1400 
    111 CB        -3.4211  -23.9569  -56.0365 C.3       20 UNK        -0.1800 
    112 C         -4.0218  -22.0525  -57.5929 C.2       20 UNK         0.5000 
    113 O         -3.7980  -22.2235  -58.7913 O.2       20 UNK        -0.5000 
    114 N         -3.8417  -20.8931  -56.9427 N.am      21 UNK        -0.5000 
    115 CA        -3.3574  -19.6164  -57.4764 C.3       21 UNK         0.1400 
    116 CB        -4.4198  -19.0006  -58.4103 C.3       21 UNK        -0.1800 
    117 C         -1.9613  -19.7262  -58.1400 C.2       21 UNK         0.5000 
    118 O         -1.8533  -19.5445  -59.3529 O.2       21 UNK        -0.5000 
    119 N         -0.8840  -20.0265  -57.3995 N.am      22 UNK        -0.5000 
    120 CA        -0.7968  -20.2695  -55.9454 C.3       22 UNK         0.1400 
    121 C         -0.2262  -21.6787  -55.6084 C.2       22 UNK         0.5000 
    122 N         -0.0769  -22.5820  -56.5703 N.am      22 UNK        -0.7600 
    123 O          0.0766  -21.9688  -54.4555 O.2       22 UNK        -0.5000 
    124 C124       -0.0320  -19.1410  -55.2010 C.3       23 UNK        -0.0398 
    125 S125       -0.7268  -17.4780  -55.4981 S.3       23 UNK        -0.2404 
    126 C126       -2.0131  -17.3778  -54.2050 C.3       23 UNK        -0.0205 
    127 H127        4.5544  -10.9438  -48.3348 H         1 UNK         0.0600 
    128 H128        5.6494  -11.9234  -47.3542 H         1 UNK         0.0600 
    129 H129        4.5758  -10.7543  -46.5785 H         1 UNK         0.0600 
    130 H130        2.8119  -12.1322  -49.0595 H         1 UNK         0.3000 
    131 H131        2.1116  -14.6858  -48.1630 H         1 UNK         0.0600 
    132 H132        0.6223  -12.6634  -49.8995 H         1 UNK         0.0800 
    133 H133       -0.0523  -14.2228  -49.5821 H         1 UNK         0.0800 
    134 H134        1.8598  -16.4737  -49.7830 H         1 UNK         0.0800 
    135 H135        2.2856  -16.7091  -51.4547 H         1 UNK         0.0800 
    136 H136        0.5333  -16.6749  -53.2303 H         1 UNK         0.1150 
    137 H137       -3.4922  -17.4792  -51.9745 H         1 UNK         0.1150 
    138 H138       -0.4919  -16.5168  -49.0822 H         1 UNK         0.1150 
    139 H139       -2.7093  -16.8248  -48.3431 H         1 UNK         0.0800 
    140 H140       -3.9298  -16.3811  -49.5038 H         1 UNK         0.0800 
    141 H141       -4.5394  -19.5721  -47.0856 H         1 UNK         0.0800 
    142 H142       -3.2117  -18.4746  -46.8832 H         1 UNK         0.0800 
    143 H143       -2.7856  -21.1598  -48.2820 H         1 UNK         0.0600 
    144 H144       -1.0087  -19.0886  -47.6223 H         1 UNK         0.3000 
    145 H145        1.7893  -20.7421  -48.5267 H         1 UNK         0.0600 
    146 H146        0.7883  -18.5129  -48.8351 H         1 UNK         0.0600 
    147 H147        0.7904  -18.2121  -47.0929 H         1 UNK         0.0600 
    148 H148        2.3050  -18.3748  -47.9742 H         1 UNK         0.0600 
    149 H149        2.9644  -21.0557  -46.6693 H         1 UNK         0.3000 
    150 H150        2.9941  -21.8776  -44.3414 H         1 UNK         0.0600 
    151 H151        4.4503  -19.9750  -45.2021 H         1 UNK         0.0600 
    152 H152        4.7823  -20.4093  -43.5355 H         1 UNK         0.0600 
    153 H153        3.8448  -18.9683  -43.8888 H         1 UNK         0.0600 
    154 H154        1.6694  -19.8119  -42.6560 H         1 UNK         0.3000 
    155 H155        0.3867  -21.4142  -40.6789 H         1 UNK         0.0600 
    156 H156        2.9760  -22.0843  -39.1808 H         1 UNK         0.0600 
    157 H157        1.6803  -23.2151  -39.5603 H         1 UNK         0.0600 
    158 H158        1.3876  -21.8986  -38.4388 H         1 UNK         0.0600 
    159 H159        2.5916  -19.4910  -40.5419 H         1 UNK         0.3000 
    160 H160        1.2614  -17.4486  -38.1938 H         1 UNK         0.0600 
    161 H161        3.0148  -17.4764  -40.7131 H         1 UNK         0.0600 
    162 H162        3.5058  -18.0298  -39.1095 H         1 UNK         0.0600 
    163 H163        3.1222  -16.3408  -39.3795 H         1 UNK         0.0600 
    164 H164        0.7572  -16.5407  -40.9709 H         1 UNK         0.3000 
    165 H165       -2.4597  -15.3879  -40.2993 H         1 UNK         0.0600 
    166 H166       -1.7204  -13.1032  -40.8883 H         1 UNK         0.0600 
    167 H167       -1.2699  -13.4649  -39.2304 H         1 UNK         0.0600 
    168 H168       -0.0491  -13.5078  -40.4965 H         1 UNK         0.0600 
    169 H169       -0.6089  -14.8877  -42.4487 H         1 UNK         0.3000 
    170 H170       -1.1085  -18.0005  -44.1155 H         1 UNK         0.0600 
    171 H171       -3.1147  -16.7016  -44.8309 H         1 UNK         0.0600 
    172 H172       -2.1540  -15.2264  -44.8875 H         1 UNK         0.0600 
    173 H173       -1.8102  -16.5478  -46.0006 H         1 UNK         0.0600 
    174 H174        0.2920  -15.6749  -44.9332 H         1 UNK         0.3000 
    175 H175        3.4353  -16.5356  -43.3917 H         1 UNK         0.0600 
    176 H176        2.3434  -16.1658  -46.2340 H         1 UNK         0.0600 
    177 H177        4.0361  -16.1376  -45.7535 H         1 UNK         0.0600 
    178 H178        3.1101  -17.6261  -45.6445 H         1 UNK         0.0600 
    179 H179        2.7043  -14.1906  -44.7877 H         1 UNK         0.3000 
    180 H180        1.6147  -12.2160  -42.0162 H         1 UNK         0.0600 
    181 H181        3.3858  -10.7451  -42.9423 H         1 UNK         0.0600 
    182 H182        4.1096  -12.1074  -43.7963 H         1 UNK         0.0600 
    183 H183        4.1007  -12.0709  -42.0383 H         1 UNK         0.0600 
    184 H184        1.8888  -11.7501  -44.8448 H         1 UNK         0.3000 
    185 H185       -1.4730  -12.5936  -45.7133 H         1 UNK         0.0600 
    186 H186       -1.4079  -10.2514  -46.5186 H         1 UNK         0.0600 
    187 H187       -1.5588  -10.2817  -44.7691 H         1 UNK         0.0600 
    188 H188       -0.0054   -9.9077  -45.5059 H         1 UNK         0.0600 
    189 H189        0.7410  -11.5490  -47.2083 H         1 UNK         0.3000 
    190 H190       -1.3621  -20.4438  -45.1213 H         1 UNK         0.3000 
    191 H191       -3.3320  -22.0563  -43.6722 H         1 UNK         0.0600 
    192 H192       -1.8559  -21.5638  -41.7278 H         1 UNK         0.0600 
    193 H193       -2.3145  -20.1028  -42.5836 H         1 UNK         0.0600 
    194 H194       -0.7011  -20.7706  -42.7929 H         1 UNK         0.0600 
    195 H195       -0.4028  -22.6817  -45.4394 H         1 UNK         0.3000 
    196 H196        0.0601  -25.3083  -44.1077 H         1 UNK         0.0600 
    197 H197        1.6782  -23.7371  -46.1784 H         1 UNK         0.0600 
    198 H198        2.0727  -23.9901  -44.4757 H         1 UNK         0.0600 
    199 H199        2.0923  -25.3430  -45.5891 H         1 UNK         0.0600 
    200 H200       -0.6802  -23.8408  -47.3030 H         1 UNK         0.3000 
    201 H201       -0.9478  -26.3487  -48.6807 H         1 UNK         0.0600 
    202 H202       -0.2269  -24.1904  -49.7461 H         1 UNK         0.0600 
    203 H203       -1.8312  -23.5207  -49.4445 H         1 UNK         0.0600 
    204 H204       -1.6320  -24.8674  -50.5583 H         1 UNK         0.0600 
    205 H205       -3.1283  -24.5703  -46.7119 H         1 UNK         0.3000 
    206 H206       -5.2710  -24.6486  -46.1644 H         1 UNK         0.0600 
    207 H207       -5.0924  -27.1317  -46.0535 H         1 UNK         0.0600 
    208 H208       -6.6853  -26.6132  -46.5834 H         1 UNK         0.0600 
    209 H209       -5.5459  -27.2576  -47.7518 H         1 UNK         0.0600 
    210 H210       -5.0027  -22.7573  -47.4879 H         1 UNK         0.3000 
    211 H211       -5.8100  -21.1562  -48.7774 H         1 UNK         0.0600 
    212 H212       -7.9777  -21.2970  -49.9081 H         1 UNK         0.0600 
    213 H213       -8.0944  -21.9932  -48.2993 H         1 UNK         0.0600 
    214 H214       -8.0291  -23.0395  -49.7166 H         1 UNK         0.0600 
    215 H215       -3.7312  -21.4333  -49.7706 H         1 UNK         0.3000 
    216 H216       -3.1779  -22.6862  -52.2314 H         1 UNK         0.0600 
    217 H217       -2.0320  -20.0968  -51.0347 H         1 UNK         0.0600 
    218 H218       -1.3171  -21.0139  -52.3446 H         1 UNK         0.0600 
    219 H219       -1.4153  -21.7177  -50.7448 H         1 UNK         0.0600 
    220 H220       -4.9866  -19.7611  -51.5381 H         1 UNK         0.3000 
    221 H221       -5.0048  -18.4530  -54.0208 H         1 UNK         0.0600 
    222 H222       -5.8888  -17.4801  -51.9088 H         1 UNK         0.0600 
    223 H223       -7.1953  -18.6630  -51.8850 H         1 UNK         0.0600 
    224 H224       -7.1249  -17.4469  -53.1548 H         1 UNK         0.0600 
    225 H225       -6.6284  -21.4609  -53.1189 H         1 UNK         0.3000 
    226 H226       -8.5297  -21.4548  -55.3148 H         1 UNK         0.0600 
    227 H227       -7.5164  -23.7433  -53.5464 H         1 UNK         0.0600 
    228 H228       -8.9197  -22.7324  -53.2041 H         1 UNK         0.0600 
    229 H229       -8.9198  -23.7937  -54.6050 H         1 UNK         0.0600 
    230 H230       -5.1694  -22.4626  -54.8712 H         1 UNK         0.3000 
    231 H231       -5.0442  -23.9304  -57.4323 H         1 UNK         0.0600 
    232 H232       -2.6835  -24.3208  -56.7528 H         1 UNK         0.0600 
    233 H233       -3.7928  -24.8207  -55.4854 H         1 UNK         0.0600 
    234 H234       -2.8995  -23.3100  -55.3309 H         1 UNK         0.0600 
    235 H235       -3.9909  -20.9074  -55.9372 H         1 UNK         0.3000 
    236 H236       -3.2573  -18.9364  -56.6303 H         1 UNK         0.0600 
    237 H237       -4.5973  -19.6185  -59.2910 H         1 UNK         0.0600 
    238 H238       -5.3713  -18.8766  -57.8928 H         1 UNK         0.0600 
    239 H239       -4.1087  -18.0148  -58.7580 H         1 UNK         0.0600 
    240 H240        0.0028  -20.0922  -57.8768 H         1 UNK         0.3000 
    241 H241       -1.7890  -20.2885  -55.5099 H         1 UNK         0.0600 
    242 H242        0.2946  -23.4899  -56.3393 H         1 UNK         0.3800 
    243 H243       -0.3351  -22.3743  -57.5220 H         1 UNK         0.3800 
    244 H244        1.0131  -19.1276  -55.5140 H         1 UNK         0.0800 
    245 H245       -0.0223  -19.3249  -54.1251 H         1 UNK         0.0800 
    246 H246       -2.6950  -16.5698  -54.4730 H         1 UNK         0.0800 
    247 H247       -2.5995  -18.2963  -54.2315 H         1 UNK         0.0800 
@<TRIPOS>BOND
     1    1    2 1    
     2    1  127 1    
     3    1  128 1    
     4    1  129 1    
     5    2    3 2    
     6    2    4 am   BACKBONE|DICT|INTERRES
     7    4    5 1    
     8    4  130 1    
     9    5    6 1    
    10    5   65 1    
    11    5  131 1    
    12    6    7 1    
    13    6  132 1    
    14    6  133 1    
    15    7    8 1    
    16    8    9 1    
    17    8  134 1    
    18    8  135 1    
    19    9   10 ar   
    20    9   14 ar   
    21   10   11 ar   
    22   10  136 1    
    23   11   12 ar   
    24   11  126 1    
    25   12   13 ar   
    26   12  137 1    
    27   13   14 ar   
    28   13   15 1    
    29   14  138 1    
    30   15   16 1    
    31   15  139 1    
    32   15  140 1    
    33   16   17 1    
    34   17   18 1    
    35   17  141 1    
    36   17  142 1    
    37   18   19 1    
    38   18   67 1    
    39   18  143 1    
    40   19   20 am   BACKBONE|DICT|INTERRES
    41   19  144 1    
    42   20   21 2    
    43   20   22 1    
    44   22   23 1    
    45   22   24 1    
    46   22  145 1    
    47   23  146 1    
    48   23  147 1    
    49   23  148 1    
    50   24   25 am   BACKBONE|DICT|INTERRES
    51   24  149 1    
    52   25   26 2    
    53   25   27 1    
    54   27   28 1    
    55   27   29 1    
    56   27  150 1    
    57   28  151 1    
    58   28  152 1    
    59   28  153 1    
    60   29   30 am   BACKBONE|DICT|INTERRES
    61   29  154 1    
    62   30   31 2    
    63   30   32 1    
    64   32   33 1    
    65   32   34 1    
    66   32  155 1    
    67   33  156 1    
    68   33  157 1    
    69   33  158 1    
    70   34   35 am   BACKBONE|DICT|INTERRES
    71   34  159 1    
    72   35   36 2    
    73   35   37 1    
    74   37   38 1    
    75   37   39 1    
    76   37  160 1    
    77   38  161 1    
    78   38  162 1    
    79   38  163 1    
    80   39   40 am   BACKBONE|DICT|INTERRES
    81   39  164 1    
    82   40   41 2    
    83   40   42 1    
    84   42   43 1    
    85   42   44 1    
    86   42  165 1    
    87   43  166 1    
    88   43  167 1    
    89   43  168 1    
    90   44   45 am   BACKBONE|DICT|INTERRES
    91   44  169 1    
    92   45   46 2    
    93   45   47 1    
    94   47   48 1    
    95   47   49 1    
    96   47  170 1    
    97   48  171 1    
    98   48  172 1    
    99   48  173 1    
   100   49   50 am   BACKBONE|DICT|INTERRES
   101   49  174 1    
   102   50   51 2    
   103   50   52 1    
   104   52   53 1    
   105   52   54 1    
   106   52  175 1    
   107   53  176 1    
   108   53  177 1    
   109   53  178 1    
   110   54   55 am   BACKBONE|DICT|INTERRES
   111   54  179 1    
   112   55   56 2    
   113   55   57 1    
   114   57   58 1    
   115   57   59 1    
   116   57  180 1    
   117   58  181 1    
   118   58  182 1    
   119   58  183 1    
   120   59   60 am   BACKBONE|DICT|INTERRES
   121   59  184 1    
   122   60   61 2    
   123   60   62 1    
   124   62   63 1    
   125   62   64 1    
   126   62  185 1    
   127   63  186 1    
   128   63  187 1    
   129   63  188 1    
   130   64   65 am   BACKBONE|DICT|INTERRES
   131   64  189 1    
   132   65   66 2    
   133   67   68 2    
   134   67   69 am   BACKBONE|DICT|INTERRES
   135   69   70 1    
   136   69  190 1    
   137   70   71 1    
   138   70   72 1    
   139   70  191 1    
   140   71  192 1    
   141   71  193 1    
   142   71  194 1    
   143   72   73 2    
   144   72   74 am   BACKBONE|DICT|INTERRES
   145   74   75 1    
   146   74  195 1    
   147   75   76 1    
   148   75   77 1    
   149   75  196 1    
   150   76  197 1    
   151   76  198 1    
   152   76  199 1    
   153   77   78 2    
   154   77   79 am   BACKBONE|DICT|INTERRES
   155   79   80 1    
   156   79  200 1    
   157   80   81 1    
   158   80   82 1    
   159   80  201 1    
   160   81  202 1    
   161   81  203 1    
   162   81  204 1    
   163   82   83 2    
   164   82   84 am   BACKBONE|DICT|INTERRES
   165   84   85 1    
   166   84  205 1    
   167   85   86 1    
   168   85   87 1    
   169   85  206 1    
   170   86  207 1    
   171   86  208 1    
   172   86  209 1    
   173   87   88 2    
   174   87   89 am   BACKBONE|DICT|INTERRES
   175   89   90 1    
   176   89  210 1    
   177   90   91 1    
   178   90   92 1    
   179   90  211 1    
   180   91  212 1    
   181   91  213 1    
   182   91  214 1    
   183   92   93 2    
   184   92   94 am   BACKBONE|DICT|INTERRES
   185   94   95 1    
   186   94  215 1    
   187   95   96 1    
   188   95   97 1    
   189   95  216 1    
   190   96  217 1    
   191   96  218 1    
   192   96  219 1    
   193   97   98 2    
   194   97   99 am   BACKBONE|DICT|INTERRES
   195   99  100 1    
   196   99  220 1    
   197  100  101 1    
   198  100  102 1    
   199  100  221 1    
   200  101  222 1    
   201  101  223 1    
   202  101  224 1    
   203  102  103 2    
   204  102  104 am   BACKBONE|DICT|INTERRES
   205  104  105 1    
   206  104  225 1    
   207  105  106 1    
   208  105  107 1    
   209  105  226 1    
   210  106  227 1    
   211  106  228 1    
   212  106  229 1    
   213  107  108 2    
   214  107  109 am   BACKBONE|DICT|INTERRES
   215  109  110 1    
   216  109  230 1    
   217  110  111 1    
   218  110  112 1    
   219  110  231 1    
   220  111  232 1    
   221  111  233 1    
   222  111  234 1    
   223  112  113 2    
   224  112  114 am   BACKBONE|DICT|INTERRES
   225  114  115 1    
   226  114  235 1    
   227  115  116 1    
   228  115  117 1    
   229  115  236 1    
   230  116  237 1    
   231  116  238 1    
   232  116  239 1    
   233  117  118 2    
   234  117  119 am   BACKBONE|DICT|INTERRES
   235  119  120 1    
   236  119  240 1    
   237  120  121 1    
   238  120  124 1    
   239  120  241 1    
   240  121  122 am   BACKBONE|DICT|INTERRES
   241  121  123 2    
   242  122  242 1    
   243  122  243 1    
   244  124  125 1    
   245  124  244 1    
   246  124  245 1    
   247  125  126 1    
   248  126  246 1    
   249  126  247 1    
@<TRIPOS>SUBSTRUCTURE
     1 UNK         1 GROUP             0       ****    0 ROOT    
