@<TRIPOS>MOLECULE
3R540
247   249    1
SMALL
USER_CHARGES


@<TRIPOS>ATOM
      1 CA          4.4584  -10.1836  -47.7269 C.3       0 UNK        -0.1800 
      2 C           4.0615  -10.9397  -48.9936 C.2       0 UNK         0.5000 
      3 O           4.1856  -10.3930  -50.0874 O.2       0 UNK        -0.5000 
      4 N           3.5779  -12.1867  -48.9049 N.am      1 UNK        -0.5000 
      5 CA          3.3578  -12.9634  -47.6750 C.3       1 UNK         0.1400 
      6 C6          3.4782  -14.4870  -47.9164 C.3       23 UNK        -0.0398 
      7 S7          5.1259  -14.9801  -48.5281 S.3       23 UNK        -0.2404 
      8 C8          4.7372  -15.6489  -50.1779 C.3       23 UNK        -0.0205 
      9 C9          3.8429  -16.8792  -50.1055 C.ar      23 UNK        -0.0193 
     10 C10         2.5292  -16.8256  -50.5807 C.ar      23 UNK        -0.1150 
     11 C11         1.7018  -17.9502  -50.5132 C.ar      23 UNK        -0.0193 
     12 C12         2.1948  -19.1343  -49.9597 C.ar      23 UNK        -0.1150 
     13 C13         3.5071  -19.2008  -49.4837 C.ar      23 UNK        -0.0193 
     14 C14         4.3288  -18.0732  -49.5653 C.ar      23 UNK        -0.1150 
     15 C15         4.0303  -20.4858  -48.8676 C.3       23 UNK        -0.0205 
     16 S16         3.8002  -20.4608  -47.0668 S.3       23 UNK        -0.2404 
     17 C17         4.2469  -22.1649  -46.6114 C.3       23 UNK        -0.0398 
     18 CA          3.0462  -23.1119  -46.3675 C.3       11 UNK         0.1400 
     19 N           2.1248  -22.6544  -45.3143 N.am      11 UNK        -0.5000 
     20 C           1.2926  -23.4819  -44.6619 C.2       10 UNK         0.5000 
     21 O           1.2408  -24.6930  -44.8766 O.2       10 UNK        -0.5000 
     22 CA          0.3211  -22.8707  -43.6381 C.3       10 UNK         0.1400 
     23 CB          1.0402  -22.5156  -42.3280 C.3       10 UNK        -0.1800 
     24 N          -0.3938  -21.7078  -44.1606 N.am      10 UNK        -0.5000 
     25 C          -1.2939  -21.7564  -45.1534 C.2       9 UNK         0.5000 
     26 O          -1.6225  -22.7934  -45.7304 O.2       9 UNK        -0.5000 
     27 CA         -1.9216  -20.4226  -45.5962 C.3       9 UNK         0.1400 
     28 CB         -3.1431  -20.0843  -44.7301 C.3       9 UNK        -0.1800 
     29 N          -0.9753  -19.3087  -45.5754 N.am      9 UNK        -0.5000 
     30 C           0.1136  -19.2241  -46.3536 C.2       8 UNK         0.5000 
     31 O           0.4016  -20.0574  -47.2105 O.2       8 UNK        -0.5000 
     32 CA          1.0654  -18.0433  -46.0819 C.3       8 UNK         0.1400 
     33 CB          0.5299  -16.7486  -46.7129 C.3       8 UNK        -0.1800 
     34 N           1.2993  -17.8419  -44.6492 N.am      8 UNK        -0.5000 
     35 C           1.8403  -18.7550  -43.8268 C.2       7 UNK         0.5000 
     36 O           2.2538  -19.8551  -44.1917 O.2       7 UNK        -0.5000 
     37 CA          1.8649  -18.4072  -42.3301 C.3       7 UNK         0.1400 
     38 CB          3.0838  -17.5388  -41.9824 C.3       7 UNK        -0.1800 
     39 N           0.6333  -17.7322  -41.9220 N.am      7 UNK        -0.5000 
     40 C          -0.5446  -18.3522  -41.7615 C.2       6 UNK         0.5000 
     41 O          -0.6980  -19.5664  -41.8919 O.2       6 UNK        -0.5000 
     42 CA         -1.7620  -17.4656  -41.4345 C.3       6 UNK         0.1400 
     43 CB         -1.8564  -17.2136  -39.9224 C.3       6 UNK        -0.1800 
     44 N          -1.7386  -16.1822  -42.1385 N.am      6 UNK        -0.5000 
     45 C          -1.8527  -16.0482  -43.4670 C.2       5 UNK         0.5000 
     46 O          -2.0422  -16.9931  -44.2311 O.2       5 UNK        -0.5000 
     47 CA         -1.6812  -14.6310  -44.0484 C.3       5 UNK         0.1400 
     48 CB         -3.0401  -13.9211  -44.1330 C.3       5 UNK        -0.1800 
     49 N          -0.7332  -13.7774  -43.3241 N.am      5 UNK        -0.5000 
     50 C           0.5446  -14.0823  -43.0549 C.2       4 UNK         0.5000 
     51 O           1.0539  -15.1726  -43.3190 O.2       4 UNK        -0.5000 
     52 CA          1.3830  -12.9637  -42.4172 C.3       4 UNK         0.1400 
     53 CB          2.8429  -13.3790  -42.1597 C.3       4 UNK        -0.1800 
     54 N           1.3620  -11.8203  -43.3211 N.am      4 UNK        -0.5000 
     55 C           1.0664  -10.5566  -42.9932 C.2       3 UNK         0.5000 
     56 O           0.8281  -10.1889  -41.8423 O.2       3 UNK        -0.5000 
     57 CA          1.0168   -9.5235  -44.1411 C.3       3 UNK         0.1400 
     58 CB          2.3051   -8.6862  -44.1635 C.3       3 UNK        -0.1800 
     59 N           0.8258  -10.1235  -45.4640 N.am      3 UNK        -0.5000 
     60 C          -0.2808  -10.7590  -45.8737 C.2       2 UNK         0.5000 
     61 O          -1.3155  -10.8189  -45.2097 O.2       2 UNK        -0.5000 
     62 CA         -0.2099  -11.4827  -47.2355 C.3       2 UNK         0.1400 
     63 CB         -0.8733  -10.6316  -48.3285 C.3       2 UNK        -0.1800 
     64 N           1.1437  -11.8493  -47.6761 N.am      2 UNK        -0.5000 
     65 C           2.0003  -12.6420  -47.0123 C.2       1 UNK         0.5000 
     66 O           1.7602  -13.1033  -45.8989 O.2       1 UNK        -0.5000 
     67 C           2.3146  -23.5056  -47.6712 C.2       11 UNK         0.5000 
     68 O           2.8038  -24.3724  -48.3963 O.2       11 UNK        -0.5000 
     69 N           1.1324  -22.9211  -47.9176 N.am      12 UNK        -0.5000 
     70 CA          0.1899  -23.3409  -48.9592 C.3       12 UNK         0.1400 
     71 CB         -0.8369  -22.2201  -49.1889 C.3       12 UNK        -0.1800 
     72 C          -0.5432  -24.6615  -48.6377 C.2       12 UNK         0.5000 
     73 O          -1.2744  -25.1578  -49.4951 O.2       12 UNK        -0.5000 
     74 N          -0.3864  -25.1809  -47.4087 N.am      13 UNK        -0.5000 
     75 CA         -1.0320  -26.3756  -46.8505 C.3       13 UNK         0.1400 
     76 CB         -0.5277  -27.6460  -47.5657 C.3       13 UNK        -0.1800 
     77 C          -2.5731  -26.2795  -46.8203 C.2       13 UNK         0.5000 
     78 O          -3.2543  -27.3053  -46.8658 O.2       13 UNK        -0.5000 
     79 N          -3.0879  -25.0410  -46.7629 N.am      14 UNK        -0.5000 
     80 CA         -4.4961  -24.6470  -46.8280 C.3       14 UNK         0.1400 
     81 CB         -5.2127  -25.0075  -45.5116 C.3       14 UNK        -0.1800 
     82 C          -5.2370  -25.1713  -48.0794 C.2       14 UNK         0.5000 
     83 O          -6.4375  -25.4376  -48.0010 O.2       14 UNK        -0.5000 
     84 N          -4.5228  -25.2974  -49.2111 N.am      15 UNK        -0.5000 
     85 CA         -5.0170  -25.8067  -50.4955 C.3       15 UNK         0.1400 
     86 CB         -3.8430  -25.8886  -51.4838 C.3       15 UNK        -0.1800 
     87 C          -6.1635  -24.9444  -51.0564 C.2       15 UNK         0.5000 
     88 O          -5.9066  -23.8870  -51.6377 O.2       15 UNK        -0.5000 
     89 N          -7.4054  -25.3744  -50.7908 N.am      16 UNK        -0.5000 
     90 CA         -8.6587  -24.6391  -51.0002 C.3       16 UNK         0.1400 
     91 CB         -8.9464  -24.4645  -52.5062 C.3       16 UNK        -0.1800 
     92 C          -8.6824  -23.3060  -50.2194 C.2       16 UNK         0.5000 
     93 O          -9.0932  -22.2807  -50.7592 O.2       16 UNK        -0.5000 
     94 N          -8.1685  -23.3311  -48.9790 N.am      17 UNK        -0.5000 
     95 CA         -7.9000  -22.1716  -48.1151 C.3       17 UNK         0.1400 
     96 CB         -9.2086  -21.4701  -47.6955 C.3       17 UNK        -0.1800 
     97 C          -6.8609  -21.2076  -48.7336 C.2       17 UNK         0.5000 
     98 O          -6.9640  -19.9915  -48.5731 O.2       17 UNK        -0.5000 
     99 N          -5.8907  -21.7957  -49.4492 N.am      18 UNK        -0.5000 
    100 CA        -4.8199  -21.1815  -50.2397 C.3       18 UNK         0.1400 
    101 CB        -3.9643  -20.2070  -49.4071 C.3       18 UNK        -0.1800 
    102 C         -5.2896  -20.5665  -51.5740 C.2       18 UNK         0.5000 
    103 O         -4.4652  -19.9807  -52.2795 O.2       18 UNK        -0.5000 
    104 N         -6.5660  -20.7461  -51.9493 N.am      19 UNK        -0.5000 
    105 CA        -7.1179  -20.2883  -53.2282 C.3       19 UNK         0.1400 
    106 CB        -8.6507  -20.3643  -53.2029 C.3       19 UNK        -0.1800 
    107 C         -6.5641  -21.0615  -54.4404 C.2       19 UNK         0.5000 
    108 O         -6.5133  -20.4991  -55.5344 O.2       19 UNK        -0.5000 
    109 N         -6.1474  -22.3193  -54.2328 N.am      20 UNK        -0.5000 
    110 CA        -5.5002  -23.1352  -55.2612 C.3       20 UNK         0.1400 
    111 CB        -5.7697  -24.6204  -54.9773 C.3       20 UNK        -0.1800 
    112 C         -3.9860  -22.8650  -55.3437 C.2       20 UNK         0.5000 
    113 O         -3.3976  -23.0532  -56.4090 O.2       20 UNK        -0.5000 
    114 N         -3.3826  -22.4430  -54.2238 N.am      21 UNK        -0.5000 
    115 CA        -1.9561  -22.1453  -54.1121 C.3       21 UNK         0.1400 
    116 CB        -1.5191  -22.2826  -52.6460 C.3       21 UNK        -0.1800 
    117 C         -1.6184  -20.7473  -54.6539 C.2       21 UNK         0.5000 
    118 O         -0.7728  -20.6283  -55.5417 O.2       21 UNK        -0.5000 
    119 N         -2.2828  -19.7255  -54.1026 N.am      22 UNK        -0.5000 
    120 CA        -2.0767  -18.3045  -54.4236 C.3       22 UNK         0.1400 
    121 C         -3.3893  -17.5973  -54.8505 C.2       22 UNK         0.5000 
    122 N         -4.5452  -17.9859  -54.3296 N.am      22 UNK        -0.7600 
    123 O         -3.3591  -16.6829  -55.6695 O.2       22 UNK        -0.5000 
    124 C124       -1.4297  -17.5346  -53.2439 C.3       23 UNK        -0.0398 
    125 S125        0.2518  -18.1160  -52.8448 S.3       23 UNK        -0.2404 
    126 C126        0.2795  -17.8784  -51.0423 C.3       23 UNK        -0.0205 
    127 H127        3.6448  -10.1613  -47.0036 H         1 UNK         0.0600 
    128 H128        4.7163   -9.1511  -47.9640 H         1 UNK         0.0600 
    129 H129        5.3297  -10.6457  -47.2630 H         1 UNK         0.0600 
    130 H130        3.3411  -12.6666  -49.7611 H         1 UNK         0.3000 
    131 H131        4.1255  -12.6985  -46.9459 H         1 UNK         0.0600 
    132 H132        3.3176  -15.0348  -46.9858 H         1 UNK         0.0800 
    133 H133        2.7007  -14.8252  -48.6019 H         1 UNK         0.0800 
    134 H134        4.2785  -14.8666  -50.7845 H         1 UNK         0.0800 
    135 H135        5.6690  -15.9159  -50.6782 H         1 UNK         0.0800 
    136 H136        2.1474  -15.9093  -51.0089 H         1 UNK         0.1150 
    137 H137        1.5568  -20.0037  -49.8915 H         1 UNK         0.1150 
    138 H138        5.3420  -18.1184  -49.1909 H         1 UNK         0.1150 
    139 H139        3.5102  -21.3426  -49.2979 H         1 UNK         0.0800 
    140 H140        5.0886  -20.6130  -49.1002 H         1 UNK         0.0800 
    141 H141        4.8394  -22.1059  -45.6976 H         1 UNK         0.0800 
    142 H142        4.9189  -22.5817  -47.3637 H         1 UNK         0.0800 
    143 H143        3.4888  -24.0416  -46.0021 H         1 UNK         0.0600 
    144 H144        2.1274  -21.6613  -45.0946 H         1 UNK         0.3000 
    145 H145       -0.4265  -23.6317  -43.4036 H         1 UNK         0.0600 
    146 H146        0.3401  -22.1354  -41.5841 H         1 UNK         0.0600 
    147 H147        1.5216  -23.3956  -41.8998 H         1 UNK         0.0600 
    148 H148        1.8135  -21.7632  -42.4762 H         1 UNK         0.0600 
    149 H149       -0.1974  -20.8172  -43.7221 H         1 UNK         0.3000 
    150 H150       -2.2634  -20.5436  -46.6238 H         1 UNK         0.0600 
    151 H151       -3.8693  -20.8981  -44.7425 H         1 UNK         0.0600 
    152 H152       -3.6495  -19.1911  -45.0965 H         1 UNK         0.0600 
    153 H153       -2.8628  -19.9074  -43.6912 H         1 UNK         0.0600 
    154 H154       -1.1827  -18.5468  -44.9355 H         1 UNK         0.3000 
    155 H155        2.0280  -18.2642  -46.5438 H         1 UNK         0.0600 
    156 H156        0.5370  -16.8205  -47.8012 H         1 UNK         0.0600 
    157 H157        1.1385  -15.8882  -46.4365 H         1 UNK         0.0600 
    158 H158       -0.4951  -16.5423  -46.4076 H         1 UNK         0.0600 
    159 H159        1.0241  -16.9474  -44.2562 H         1 UNK         0.3000 
    160 H160        1.9490  -19.3397  -41.7681 H         1 UNK         0.0600 
    161 H161        3.0986  -16.6081  -42.5492 H         1 UNK         0.0600 
    162 H162        4.0105  -18.0686  -42.2061 H         1 UNK         0.0600 
    163 H163        3.1005  -17.2871  -40.9220 H         1 UNK         0.0600 
    164 H164        0.6623  -16.7210  -41.9029 H         1 UNK         0.3000 
    165 H165       -2.6582  -18.0063  -41.7465 H         1 UNK         0.0600 
    166 H166       -2.7578  -16.6543  -39.6713 H         1 UNK         0.0600 
    167 H167       -1.8952  -18.1547  -39.3721 H         1 UNK         0.0600 
    168 H168       -0.9977  -16.6520  -39.5524 H         1 UNK         0.0600 
    169 H169       -1.5825  -15.3547  -41.5823 H         1 UNK         0.3000 
    170 H170       -1.2951  -14.7411  -45.0631 H         1 UNK         0.0600 
    171 H171       -3.7640  -14.5254  -44.6815 H         1 UNK         0.0600 
    172 H172       -3.4553  -13.7281  -43.1432 H         1 UNK         0.0600 
    173 H173       -2.9564  -12.9676  -44.6543 H         1 UNK         0.0600 
    174 H174       -1.0557  -12.8464  -43.1014 H         1 UNK         0.3000 
    175 H175        0.9171  -12.7147  -41.4618 H         1 UNK         0.0600 
    176 H176        3.3481  -13.6632  -43.0840 H         1 UNK         0.0600 
    177 H177        3.4085  -12.5654  -41.7057 H         1 UNK         0.0600 
    178 H178        2.8933  -14.2300  -41.4796 H         1 UNK         0.0600 
    179 H179        1.5015  -12.0586  -44.2997 H         1 UNK         0.3000 
    180 H180        0.1748   -8.8561  -43.9461 H         1 UNK         0.0600 
    181 H181        3.1819   -9.3024  -44.3672 H         1 UNK         0.0600 
    182 H182        2.4670   -8.1922  -43.2045 H         1 UNK         0.0600 
    183 H183        2.2570   -7.9069  -44.9244 H         1 UNK         0.0600 
    184 H184        1.6216  -10.1140  -46.0826 H         1 UNK         0.3000 
    185 H185       -0.7788  -12.4090  -47.1315 H         1 UNK         0.0600 
    186 H186       -1.8933  -10.3621  -48.0507 H         1 UNK         0.0600 
    187 H187       -0.3249   -9.7051  -48.5039 H         1 UNK         0.0600 
    188 H188       -0.9290  -11.1739  -49.2726 H         1 UNK         0.0600 
    189 H189        1.4245  -11.5098  -48.5849 H         1 UNK         0.3000 
    190 H190        0.8348  -22.1527  -47.3261 H         1 UNK         0.3000 
    191 H191        0.7402  -23.4958  -49.8893 H         1 UNK         0.0600 
    192 H192       -1.3363  -21.9402  -48.2640 H         1 UNK         0.0600 
    193 H193       -0.3679  -21.3274  -49.6007 H         1 UNK         0.0600 
    194 H194       -1.6160  -22.5299  -49.8836 H         1 UNK         0.0600 
    195 H195        0.2085  -24.6831  -46.7579 H         1 UNK         0.3000 
    196 H196       -0.7146  -26.4342  -45.8088 H         1 UNK         0.0600 
    197 H197        0.5615  -27.6878  -47.5714 H         1 UNK         0.0600 
    198 H198       -0.8711  -27.6918  -48.5996 H         1 UNK         0.0600 
    199 H199       -0.8828  -28.5463  -47.0631 H         1 UNK         0.0600 
    200 H200       -2.4324  -24.2719  -46.6438 H         1 UNK         0.3000 
    201 H201       -4.4983  -23.5595  -46.9148 H         1 UNK         0.0600 
    202 H202       -6.2244  -24.6006  -45.4887 H         1 UNK         0.0600 
    203 H203       -4.6821  -24.5995  -44.6511 H         1 UNK         0.0600 
    204 H204       -5.2897  -26.0870  -45.3776 H         1 UNK         0.0600 
    205 H205       -3.5331  -25.0846  -49.1778 H         1 UNK         0.3000 
    206 H206       -5.3895  -26.8201  -50.3337 H         1 UNK         0.0600 
    207 H207       -3.0583  -26.5457  -51.1084 H         1 UNK         0.0600 
    208 H208       -3.3987  -24.9097  -51.6666 H         1 UNK         0.0600 
    209 H209       -4.1661  -26.2908  -52.4441 H         1 UNK         0.0600 
    210 H210       -7.4974  -26.2288  -50.2581 H         1 UNK         0.3000 
    211 H211       -9.4555  -25.2539  -50.5796 H         1 UNK         0.0600 
    212 H212       -8.9231  -25.4223  -53.0257 H         1 UNK         0.0600 
    213 H213       -9.9344  -24.0318  -52.6670 H         1 UNK         0.0600 
    214 H214       -8.2225  -23.8070  -52.9855 H         1 UNK         0.0600 
    215 H215       -7.8137  -24.2188  -48.6318 H         1 UNK         0.3000 
    216 H216       -7.4390  -22.5697  -47.2100 H         1 UNK         0.0600 
    217 H217       -9.0171  -20.7107  -46.9366 H         1 UNK         0.0600 
    218 H218       -9.6936  -20.9734  -48.5362 H         1 UNK         0.0600 
    219 H219       -9.9176  -22.1804  -47.2706 H         1 UNK         0.0600 
    220 H220       -5.9704  -22.7938  -49.5823 H         1 UNK         0.3000 
    221 H221       -4.1683  -22.0099  -50.5208 H         1 UNK         0.0600 
    222 H222       -3.0575  -19.9256  -49.9442 H         1 UNK         0.0600 
    223 H223       -4.5013  -19.2872  -49.1751 H         1 UNK         0.0600 
    224 H224       -3.6563  -20.6643  -48.4684 H         1 UNK         0.0600 
    225 H225       -7.1959  -21.2556  -51.3422 H         1 UNK         0.3000 
    226 H226       -6.8461  -19.2386  -53.3486 H         1 UNK         0.0600 
    227 H227       -9.0605  -19.8633  -52.3256 H         1 UNK         0.0600 
    228 H228       -9.0761  -19.8803  -54.0828 H         1 UNK         0.0600 
    229 H229       -9.0037  -21.3955  -53.2008 H         1 UNK         0.0600 
    230 H230       -6.2168  -22.7233  -53.3039 H         1 UNK         0.3000 
    231 H231       -5.9339  -22.9009  -56.2358 H         1 UNK         0.0600 
    232 H232       -5.3546  -25.2487  -55.7661 H         1 UNK         0.0600 
    233 H233       -6.8387  -24.8266  -54.9257 H         1 UNK         0.0600 
    234 H234       -5.3200  -24.9380  -54.0379 H         1 UNK         0.0600 
    235 H235       -3.9500  -22.2891  -53.4049 H         1 UNK         0.3000 
    236 H236       -1.3944  -22.8781  -54.6957 H         1 UNK         0.0600 
    237 H237       -2.0691  -21.6010  -51.9971 H         1 UNK         0.0600 
    238 H238       -1.6747  -23.2977  -52.2811 H         1 UNK         0.0600 
    239 H239       -0.4580  -22.0565  -52.5316 H         1 UNK         0.0600 
    240 H240       -2.9912  -19.9186  -53.4011 H         1 UNK         0.3000 
    241 H241       -1.4052  -18.2183  -55.2800 H         1 UNK         0.0600 
    242 H242       -5.3925  -17.5280  -54.6236 H         1 UNK         0.3800 
    243 H243       -4.5763  -18.7076  -53.6166 H         1 UNK         0.3800 
    244 H244       -2.0614  -17.6151  -52.3572 H         1 UNK         0.0800 
    245 H245       -1.3563  -16.4697  -53.4724 H         1 UNK         0.0800 
    246 H246       -0.3482  -18.6330  -50.5648 H         1 UNK         0.0800 
    247 H247       -0.1526  -16.9084  -50.7911 H         1 UNK         0.0800 
@<TRIPOS>BOND
     1    1    2 1    
     2    1  127 1    
     3    1  128 1    
     4    1  129 1    
     5    2    3 2    
     6    2    4 am   BACKBONE|DICT|INTERRES
     7    4    5 1    
     8    4  130 1    
     9    5    6 1    
    10    5   65 1    
    11    5  131 1    
    12    6    7 1    
    13    6  132 1    
    14    6  133 1    
    15    7    8 1    
    16    8    9 1    
    17    8  134 1    
    18    8  135 1    
    19    9   10 ar   
    20    9   14 ar   
    21   10   11 ar   
    22   10  136 1    
    23   11   12 ar   
    24   11  126 1    
    25   12   13 ar   
    26   12  137 1    
    27   13   14 ar   
    28   13   15 1    
    29   14  138 1    
    30   15   16 1    
    31   15  139 1    
    32   15  140 1    
    33   16   17 1    
    34   17   18 1    
    35   17  141 1    
    36   17  142 1    
    37   18   19 1    
    38   18   67 1    
    39   18  143 1    
    40   19   20 am   BACKBONE|DICT|INTERRES
    41   19  144 1    
    42   20   21 2    
    43   20   22 1    
    44   22   23 1    
    45   22   24 1    
    46   22  145 1    
    47   23  146 1    
    48   23  147 1    
    49   23  148 1    
    50   24   25 am   BACKBONE|DICT|INTERRES
    51   24  149 1    
    52   25   26 2    
    53   25   27 1    
    54   27   28 1    
    55   27   29 1    
    56   27  150 1    
    57   28  151 1    
    58   28  152 1    
    59   28  153 1    
    60   29   30 am   BACKBONE|DICT|INTERRES
    61   29  154 1    
    62   30   31 2    
    63   30   32 1    
    64   32   33 1    
    65   32   34 1    
    66   32  155 1    
    67   33  156 1    
    68   33  157 1    
    69   33  158 1    
    70   34   35 am   BACKBONE|DICT|INTERRES
    71   34  159 1    
    72   35   36 2    
    73   35   37 1    
    74   37   38 1    
    75   37   39 1    
    76   37  160 1    
    77   38  161 1    
    78   38  162 1    
    79   38  163 1    
    80   39   40 am   BACKBONE|DICT|INTERRES
    81   39  164 1    
    82   40   41 2    
    83   40   42 1    
    84   42   43 1    
    85   42   44 1    
    86   42  165 1    
    87   43  166 1    
    88   43  167 1    
    89   43  168 1    
    90   44   45 am   BACKBONE|DICT|INTERRES
    91   44  169 1    
    92   45   46 2    
    93   45   47 1    
    94   47   48 1    
    95   47   49 1    
    96   47  170 1    
    97   48  171 1    
    98   48  172 1    
    99   48  173 1    
   100   49   50 am   BACKBONE|DICT|INTERRES
   101   49  174 1    
   102   50   51 2    
   103   50   52 1    
   104   52   53 1    
   105   52   54 1    
   106   52  175 1    
   107   53  176 1    
   108   53  177 1    
   109   53  178 1    
   110   54   55 am   BACKBONE|DICT|INTERRES
   111   54  179 1    
   112   55   56 2    
   113   55   57 1    
   114   57   58 1    
   115   57   59 1    
   116   57  180 1    
   117   58  181 1    
   118   58  182 1    
   119   58  183 1    
   120   59   60 am   BACKBONE|DICT|INTERRES
   121   59  184 1    
   122   60   61 2    
   123   60   62 1    
   124   62   63 1    
   125   62   64 1    
   126   62  185 1    
   127   63  186 1    
   128   63  187 1    
   129   63  188 1    
   130   64   65 am   BACKBONE|DICT|INTERRES
   131   64  189 1    
   132   65   66 2    
   133   67   68 2    
   134   67   69 am   BACKBONE|DICT|INTERRES
   135   69   70 1    
   136   69  190 1    
   137   70   71 1    
   138   70   72 1    
   139   70  191 1    
   140   71  192 1    
   141   71  193 1    
   142   71  194 1    
   143   72   73 2    
   144   72   74 am   BACKBONE|DICT|INTERRES
   145   74   75 1    
   146   74  195 1    
   147   75   76 1    
   148   75   77 1    
   149   75  196 1    
   150   76  197 1    
   151   76  198 1    
   152   76  199 1    
   153   77   78 2    
   154   77   79 am   BACKBONE|DICT|INTERRES
   155   79   80 1    
   156   79  200 1    
   157   80   81 1    
   158   80   82 1    
   159   80  201 1    
   160   81  202 1    
   161   81  203 1    
   162   81  204 1    
   163   82   83 2    
   164   82   84 am   BACKBONE|DICT|INTERRES
   165   84   85 1    
   166   84  205 1    
   167   85   86 1    
   168   85   87 1    
   169   85  206 1    
   170   86  207 1    
   171   86  208 1    
   172   86  209 1    
   173   87   88 2    
   174   87   89 am   BACKBONE|DICT|INTERRES
   175   89   90 1    
   176   89  210 1    
   177   90   91 1    
   178   90   92 1    
   179   90  211 1    
   180   91  212 1    
   181   91  213 1    
   182   91  214 1    
   183   92   93 2    
   184   92   94 am   BACKBONE|DICT|INTERRES
   185   94   95 1    
   186   94  215 1    
   187   95   96 1    
   188   95   97 1    
   189   95  216 1    
   190   96  217 1    
   191   96  218 1    
   192   96  219 1    
   193   97   98 2    
   194   97   99 am   BACKBONE|DICT|INTERRES
   195   99  100 1    
   196   99  220 1    
   197  100  101 1    
   198  100  102 1    
   199  100  221 1    
   200  101  222 1    
   201  101  223 1    
   202  101  224 1    
   203  102  103 2    
   204  102  104 am   BACKBONE|DICT|INTERRES
   205  104  105 1    
   206  104  225 1    
   207  105  106 1    
   208  105  107 1    
   209  105  226 1    
   210  106  227 1    
   211  106  228 1    
   212  106  229 1    
   213  107  108 2    
   214  107  109 am   BACKBONE|DICT|INTERRES
   215  109  110 1    
   216  109  230 1    
   217  110  111 1    
   218  110  112 1    
   219  110  231 1    
   220  111  232 1    
   221  111  233 1    
   222  111  234 1    
   223  112  113 2    
   224  112  114 am   BACKBONE|DICT|INTERRES
   225  114  115 1    
   226  114  235 1    
   227  115  116 1    
   228  115  117 1    
   229  115  236 1    
   230  116  237 1    
   231  116  238 1    
   232  116  239 1    
   233  117  118 2    
   234  117  119 am   BACKBONE|DICT|INTERRES
   235  119  120 1    
   236  119  240 1    
   237  120  121 1    
   238  120  124 1    
   239  120  241 1    
   240  121  122 am   BACKBONE|DICT|INTERRES
   241  121  123 2    
   242  122  242 1    
   243  122  243 1    
   244  124  125 1    
   245  124  244 1    
   246  124  245 1    
   247  125  126 1    
   248  126  246 1    
   249  126  247 1    
@<TRIPOS>SUBSTRUCTURE
     1 UNK         1 GROUP             0       ****    0 ROOT    
