@<TRIPOS>MOLECULE
3R540
247   249    1
SMALL
USER_CHARGES


@<TRIPOS>ATOM
      1 CA         -4.7124  -15.9073  -43.8983 C.3       0 UNK        -0.1800 
      2 C          -4.5477  -15.6484  -45.3896 C.2       0 UNK         0.5000 
      3 O          -5.2787  -14.8325  -45.9516 O.2       0 UNK        -0.5000 
      4 N          -3.5900  -16.3334  -46.0248 N.am      1 UNK        -0.5000 
      5 CA         -3.1963  -16.1352  -47.4240 C.3       1 UNK         0.1400 
      6 C6         -2.3169  -17.3115  -47.9350 C.3       23 UNK        -0.0398 
      7 S7         -2.7666  -17.8508  -49.6136 S.3       23 UNK        -0.2404 
      8 C8         -3.3903  -19.5349  -49.3145 C.3       23 UNK        -0.0205 
      9 C9         -4.8288  -19.5270  -48.8315 C.ar      23 UNK        -0.0193 
     10 C10        -5.8646  -19.7313  -49.7398 C.ar      23 UNK        -0.1150 
     11 C11        -7.1968  -19.6106  -49.3409 C.ar      23 UNK        -0.0193 
     12 C12        -7.4836  -19.4148  -47.9846 C.ar      23 UNK        -0.1150 
     13 C13        -6.4565  -19.2829  -47.0416 C.ar      23 UNK        -0.0193 
     14 C14        -5.1311  -19.2996  -47.4885 C.ar      23 UNK        -0.1150 
     15 C15        -6.8262  -19.1022  -45.5652 C.3       23 UNK        -0.0205 
     16 S16        -5.4876  -19.3632  -44.3372 S.3       23 UNK        -0.2404 
     17 C17        -4.9614  -21.0815  -44.6559 C.3       23 UNK        -0.0398 
     18 CA         -3.4241  -21.1798  -44.8643 C.3       11 UNK         0.1400 
     19 N          -2.6242  -20.9935  -43.6532 N.am      11 UNK        -0.5000 
     20 C          -2.6146  -21.7175  -42.5273 C.2       10 UNK         0.5000 
     21 O          -3.3437  -22.6919  -42.3351 O.2       10 UNK        -0.5000 
     22 CA         -1.5980  -21.3067  -41.4416 C.3       10 UNK         0.1400 
     23 CB         -0.4495  -22.3264  -41.3858 C.3       10 UNK        -0.1800 
     24 N          -1.0311  -19.9711  -41.6499 N.am      10 UNK        -0.5000 
     25 C          -1.6870  -18.8183  -41.4523 C.2       9 UNK         0.5000 
     26 O          -2.8200  -18.7493  -40.9761 O.2       9 UNK        -0.5000 
     27 CA         -0.9712  -17.5297  -41.9013 C.3       9 UNK         0.1400 
     28 CB         -0.0552  -16.9967  -40.7898 C.3       9 UNK        -0.1800 
     29 N          -0.1869  -17.7127  -43.1236 N.am      9 UNK        -0.5000 
     30 C          -0.6953  -17.9972  -44.3292 C.2       8 UNK         0.5000 
     31 O          -1.8987  -18.1022  -44.5590 O.2       8 UNK        -0.5000 
     32 CA          0.3062  -18.2515  -45.4638 C.3       8 UNK         0.1400 
     33 CB          0.8020  -16.9369  -46.0781 C.3       8 UNK        -0.1800 
     34 N           1.4488  -19.0412  -45.0180 N.am      8 UNK        -0.5000 
     35 C           1.4208  -20.3579  -44.7790 C.2       7 UNK         0.5000 
     36 O           0.4318  -21.0699  -44.9570 O.2       7 UNK        -0.5000 
     37 CA          2.7227  -20.9749  -44.2340 C.3       7 UNK         0.1400 
     38 CB          3.6424  -21.3843  -45.3951 C.3       7 UNK        -0.1800 
     39 N           3.4541  -20.0780  -43.3340 N.am      7 UNK        -0.5000 
     40 C           3.0176  -19.6975  -42.1247 C.2       6 UNK         0.5000 
     41 O           1.9531  -20.0736  -41.6346 O.2       6 UNK        -0.5000 
     42 CA          3.8906  -18.6815  -41.3588 C.3       6 UNK         0.1400 
     43 CB          5.0262  -19.3990  -40.6141 C.3       6 UNK        -0.1800 
     44 N           4.4542  -17.6156  -42.1987 N.am      6 UNK        -0.5000 
     45 C           3.7297  -16.7865  -42.9621 C.2       5 UNK         0.5000 
     46 O           2.5055  -16.8812  -43.0723 O.2       5 UNK        -0.5000 
     47 CA          4.4963  -15.7086  -43.7597 C.3       5 UNK         0.1400 
     48 CB          5.4063  -16.3578  -44.8156 C.3       5 UNK        -0.1800 
     49 N           3.5676  -14.8128  -44.4491 N.am      5 UNK        -0.5000 
     50 C           2.8015  -13.8841  -43.8704 C.2       4 UNK         0.5000 
     51 O           3.0039  -13.4593  -42.7308 O.2       4 UNK        -0.5000 
     52 CA          1.5782  -13.3942  -44.6839 C.3       4 UNK         0.1400 
     53 CB          0.7238  -12.3769  -43.9058 C.3       4 UNK        -0.1800 
     54 N           1.8559  -12.8380  -46.0133 N.am      4 UNK        -0.5000 
     55 C           2.3672  -13.4597  -47.0860 C.2       3 UNK         0.5000 
     56 O           2.8357  -14.5987  -47.0764 O.2       3 UNK        -0.5000 
     57 CA          2.2431  -12.6782  -48.4100 C.3       3 UNK         0.1400 
     58 CB          3.1163  -13.2533  -49.5458 C.3       3 UNK        -0.1800 
     59 N           0.8324  -12.5788  -48.8123 N.am      3 UNK        -0.5000 
     60 C           0.0034  -13.5968  -49.0956 C.2       2 UNK         0.5000 
     61 O           0.3574  -14.7719  -49.2132 O.2       2 UNK        -0.5000 
     62 CA         -1.4852  -13.2333  -49.2747 C.3       2 UNK         0.1400 
     63 CB         -1.7879  -12.8526  -50.7311 C.3       2 UNK        -0.1800 
     64 N          -2.3565  -14.3410  -48.8743 N.am      2 UNK        -0.5000 
     65 C          -2.4657  -14.7855  -47.6156 C.2       1 UNK         0.5000 
     66 O          -1.9687  -14.2024  -46.6467 O.2       1 UNK        -0.5000 
     67 C          -3.0372  -22.4435  -45.6484 C.2       11 UNK         0.5000 
     68 O          -2.6228  -22.3197  -46.7986 O.2       11 UNK        -0.5000 
     69 N          -3.1830  -23.6235  -45.0323 N.am      12 UNK        -0.5000 
     70 CA         -3.0902  -24.9457  -45.6601 C.3       12 UNK         0.1400 
     71 CB         -3.2903  -26.0244  -44.5853 C.3       12 UNK        -0.1800 
     72 C          -1.7923  -25.2054  -46.4473 C.2       12 UNK         0.5000 
     73 O          -1.8432  -25.7931  -47.5281 O.2       12 UNK        -0.5000 
     74 N          -0.6604  -24.7410  -45.9041 N.am      13 UNK        -0.5000 
     75 CA          0.6643  -24.8985  -46.5036 C.3       13 UNK         0.1400 
     76 CB          1.7300  -24.5970  -45.4413 C.3       13 UNK        -0.1800 
     77 C           0.8760  -24.0393  -47.7658 C.2       13 UNK         0.5000 
     78 O           1.6358  -24.4471  -48.6440 O.2       13 UNK        -0.5000 
     79 N           0.2023  -22.8843  -47.8428 N.am      14 UNK        -0.5000 
     80 CA          0.2105  -22.0028  -49.0108 C.3       14 UNK         0.1400 
     81 CB          0.1278  -20.5440  -48.5408 C.3       14 UNK        -0.1800 
     82 C          -0.9277  -22.3420  -49.9905 C.2       14 UNK         0.5000 
     83 O          -0.7386  -22.2304  -51.2005 O.2       14 UNK        -0.5000 
     84 N          -2.0834  -22.7737  -49.4643 N.am      15 UNK        -0.5000 
     85 CA         -3.2527  -23.2048  -50.2335 C.3       15 UNK         0.1400 
     86 CB         -4.4373  -23.4393  -49.2858 C.3       15 UNK        -0.1800 
     87 C          -2.9799  -24.4547  -51.0884 C.2       15 UNK         0.5000 
     88 O          -3.5621  -24.5863  -52.1655 O.2       15 UNK        -0.5000 
     89 N          -2.0611  -25.3168  -50.6304 N.am      16 UNK        -0.5000 
     90 CA         -1.4564  -26.3974  -51.4066 C.3       16 UNK         0.1400 
     91 CB         -0.5049  -27.1934  -50.4990 C.3       16 UNK        -0.1800 
     92 C          -0.7221  -25.8306  -52.6395 C.2       16 UNK         0.5000 
     93 O           0.3158  -25.1852  -52.4883 O.2       16 UNK        -0.5000 
     94 N          -1.3190  -26.0402  -53.8211 N.am      17 UNK        -0.5000 
     95 CA         -0.9422  -25.4874  -55.1300 C.3       17 UNK         0.1400 
     96 CB          0.5034  -25.8649  -55.5191 C.3       17 UNK        -0.1800 
     97 C          -1.2288  -23.9752  -55.2897 C.2       17 UNK         0.5000 
     98 O          -0.7732  -23.3831  -56.2691 O.2       17 UNK        -0.5000 
     99 N          -2.0160  -23.3967  -54.3673 N.am      18 UNK        -0.5000 
    100 CA        -2.5511  -22.0294  -54.3586 C.3       18 UNK         0.1400 
    101 CB        -3.7086  -21.9232  -55.3713 C.3       18 UNK        -0.1800 
    102 C         -1.4815  -20.9333  -54.5530 C.2       18 UNK         0.5000 
    103 O         -1.5993  -20.0981  -55.4545 O.2       18 UNK        -0.5000 
    104 N         -0.4439  -20.9612  -53.7071 N.am      19 UNK        -0.5000 
    105 CA         0.6298  -19.9705  -53.6739 C.3       19 UNK         0.1400 
    106 CB         1.7407  -20.4501  -52.7256 C.3       19 UNK        -0.1800 
    107 C          0.0760  -18.5997  -53.2466 C.2       19 UNK         0.5000 
    108 O         -0.4046  -18.4671  -52.1218 O.2       19 UNK        -0.5000 
    109 N          0.1206  -17.6320  -54.1735 N.am      20 UNK        -0.5000 
    110 CA        -0.4912  -16.2996  -54.0848 C.3       20 UNK         0.1400 
    111 CB         0.1306  -15.4680  -52.9426 C.3       20 UNK        -0.1800 
    112 C         -2.0366  -16.3454  -54.0364 C.2       20 UNK         0.5000 
    113 O         -2.6613  -15.4691  -53.4328 O.2       20 UNK        -0.5000 
    114 N         -2.6237  -17.3569  -54.6986 N.am      21 UNK        -0.5000 
    115 CA        -4.0573  -17.6432  -54.7958 C.3       21 UNK         0.1400 
    116 CB        -4.7742  -16.5663  -55.6424 C.3       21 UNK        -0.1800 
    117 C         -4.6678  -17.8712  -53.3991 C.2       21 UNK         0.5000 
    118 O         -4.3483  -18.8819  -52.7730 O.2       21 UNK        -0.5000 
    119 N         -5.4982  -16.9262  -52.9442 N.am      22 UNK        -0.5000 
    120 CA        -6.0024  -16.8089  -51.5677 C.3       22 UNK         0.1400 
    121 C         -5.6439  -15.4281  -50.9425 C.2       22 UNK         0.5000 
    122 N         -4.6557  -14.7009  -51.4535 N.am      22 UNK        -0.7600 
    123 O         -6.2632  -14.9983  -49.9741 O.2       22 UNK        -0.5000 
    124 C124       -7.5197  -17.1449  -51.4500 C.3       23 UNK        -0.0398 
    125 S125       -7.9467  -18.8504  -51.9601 S.3       23 UNK        -0.2404 
    126 C126       -8.3274  -19.6740  -50.3658 C.3       23 UNK        -0.0205 
    127 H127       -4.0254  -16.6751  -43.5410 H         1 UNK         0.0600 
    128 H128       -5.7289  -16.2373  -43.6843 H         1 UNK         0.0600 
    129 H129       -4.5226  -14.9937  -43.3352 H         1 UNK         0.0600 
    130 H130       -3.0141  -16.9769  -45.4867 H         1 UNK         0.3000 
    131 H131       -4.1210  -16.0970  -48.0050 H         1 UNK         0.0600 
    132 H132       -1.2575  -17.0553  -47.9612 H         1 UNK         0.0800 
    133 H133       -2.3769  -18.1677  -47.2652 H         1 UNK         0.0800 
    134 H134       -2.7657  -20.0609  -48.5956 H         1 UNK         0.0800 
    135 H135       -3.3118  -20.0904  -50.2497 H         1 UNK         0.0800 
    136 H136       -5.6285  -19.9133  -50.7782 H         1 UNK         0.1150 
    137 H137       -8.5133  -19.3558  -47.6606 H         1 UNK         0.1150 
    138 H138       -4.3280  -19.1281  -46.7943 H         1 UNK         0.1150 
    139 H139       -7.2115  -18.0903  -45.4337 H         1 UNK         0.0800 
    140 H140       -7.6459  -19.7781  -45.3170 H         1 UNK         0.0800 
    141 H141       -5.4958  -21.4481  -45.5341 H         1 UNK         0.0800 
    142 H142       -5.2919  -21.7098  -43.8286 H         1 UNK         0.0800 
    143 H143       -3.1176  -20.3541  -45.5045 H         1 UNK         0.0600 
    144 H144       -1.9823  -20.2141  -43.7007 H         1 UNK         0.3000 
    145 H145       -2.1177  -21.3189  -40.4815 H         1 UNK         0.0600 
    146 H146        0.2464  -22.0923  -40.5800 H         1 UNK         0.0600 
    147 H147       -0.8257  -23.3344  -41.2063 H         1 UNK         0.0600 
    148 H148        0.1144  -22.3466  -42.3194 H         1 UNK         0.0600 
    149 H149       -0.0675  -19.9342  -41.9661 H         1 UNK         0.3000 
    150 H150       -1.7362  -16.7776  -42.1049 H         1 UNK         0.0600 
    151 H151       -0.6180  -16.8125  -39.8739 H         1 UNK         0.0600 
    152 H152        0.4117  -16.0555  -41.0815 H         1 UNK         0.0600 
    153 H153        0.7399  -17.7038  -40.5518 H         1 UNK         0.0600 
    154 H154        0.8195  -17.5824  -43.0414 H         1 UNK         0.3000 
    155 H155       -0.2222  -18.8067  -46.2385 H         1 UNK         0.0600 
    156 H156        1.5408  -16.4544  -45.4439 H         1 UNK         0.0600 
    157 H157       -0.0094  -16.2237  -46.2231 H         1 UNK         0.0600 
    158 H158        1.2652  -17.1070  -47.0503 H         1 UNK         0.0600 
    159 H159        2.2848  -18.5275  -44.7807 H         1 UNK         0.3000 
    160 H160        2.4538  -21.8704  -43.6706 H         1 UNK         0.0600 
    161 H161        4.0118  -20.5155  -45.9413 H         1 UNK         0.0600 
    162 H162        3.1177  -22.0170  -46.1121 H         1 UNK         0.0600 
    163 H163        4.5041  -21.9467  -45.0353 H         1 UNK         0.0600 
    164 H164        4.3378  -19.7179  -43.6628 H         1 UNK         0.3000 
    165 H165        3.2503  -18.2025  -40.6153 H         1 UNK         0.0600 
    166 H166        5.5809  -18.7075  -39.9796 H         1 UNK         0.0600 
    167 H167        4.6340  -20.1860  -39.9684 H         1 UNK         0.0600 
    168 H168        5.7322  -19.8620  -41.3046 H         1 UNK         0.0600 
    169 H169        5.4559  -17.4944  -42.1581 H         1 UNK         0.3000 
    170 H170        5.1053  -15.1278  -43.0643 H         1 UNK         0.0600 
    171 H171        6.1627  -16.9940  -44.3549 H         1 UNK         0.0600 
    172 H172        4.8366  -16.9735  -45.5131 H         1 UNK         0.0600 
    173 H173        5.9345  -15.6011  -45.3962 H         1 UNK         0.0600 
    174 H174        3.3488  -15.0424  -45.4166 H         1 UNK         0.3000 
    175 H175        0.9488  -14.2720  -44.8357 H         1 UNK         0.0600 
    176 H176        1.2659  -11.4467  -43.7315 H         1 UNK         0.0600 
    177 H177       -0.1931  -12.1378  -44.4453 H         1 UNK         0.0600 
    178 H178        0.4266  -12.7736  -42.9340 H         1 UNK         0.0600 
    179 H179        1.5172  -11.8971  -46.1497 H         1 UNK         0.3000 
    180 H180        2.5905  -11.6619  -48.2172 H         1 UNK         0.0600 
    181 H181        2.8613  -14.2864  -49.7829 H         1 UNK         0.0600 
    182 H182        4.1703  -13.2374  -49.2669 H         1 UNK         0.0600 
    183 H183        3.0114  -12.6661  -50.4580 H         1 UNK         0.0600 
    184 H184        0.4368  -11.6507  -48.7557 H         1 UNK         0.3000 
    185 H185       -1.7097  -12.3744  -48.6386 H         1 UNK         0.0600 
    186 H186       -1.0922  -12.0959  -51.0960 H         1 UNK         0.0600 
    187 H187       -1.7142  -13.7148  -51.3935 H         1 UNK         0.0600 
    188 H188       -2.7915  -12.4396  -50.8284 H         1 UNK         0.0600 
    189 H189       -2.7357  -14.9051  -49.6221 H         1 UNK         0.3000 
    190 H190       -3.4542  -23.6009  -44.0535 H         1 UNK         0.3000 
    191 H191       -3.9175  -25.0216  -46.3672 H         1 UNK         0.0600 
    192 H192       -2.5245  -25.9667  -43.8107 H         1 UNK         0.0600 
    193 H193       -3.2453  -27.0241  -45.0196 H         1 UNK         0.0600 
    194 H194       -4.2627  -25.9246  -44.1027 H         1 UNK         0.0600 
    195 H195       -0.7138  -24.2396  -45.0297 H         1 UNK         0.3000 
    196 H196        0.7783  -25.9424  -46.8043 H         1 UNK         0.0600 
    197 H197        1.6855  -25.3179  -44.6248 H         1 UNK         0.0600 
    198 H198        2.7350  -24.6445  -45.8629 H         1 UNK         0.0600 
    199 H199        1.5929  -23.6047  -45.0160 H         1 UNK         0.0600 
    200 H200       -0.4220  -22.6309  -47.0869 H         1 UNK         0.3000 
    201 H201        1.1495  -22.1181  -49.5566 H         1 UNK         0.0600 
    202 H202       -0.6952  -20.3994  -47.8430 H         1 UNK         0.0600 
    203 H203       -0.0182  -19.8612  -49.3798 H         1 UNK         0.0600 
    204 H204        1.0454  -20.2465  -48.0333 H         1 UNK         0.0600 
    205 H205       -2.1907  -22.7675  -48.4516 H         1 UNK         0.3000 
    206 H206       -3.5192  -22.3953  -50.9152 H         1 UNK         0.0600 
    207 H207       -4.6713  -22.5414  -48.7135 H         1 UNK         0.0600 
    208 H208       -5.3346  -23.7114  -49.8428 H         1 UNK         0.0600 
    209 H209       -4.2305  -24.2439  -48.5810 H         1 UNK         0.0600 
    210 H210       -1.6619  -25.1439  -49.7168 H         1 UNK         0.3000 
    211 H211       -2.2527  -27.0675  -51.7366 H         1 UNK         0.0600 
    212 H212        0.2877  -26.5629  -50.0936 H         1 UNK         0.0600 
    213 H213       -0.0305  -28.0071  -51.0487 H         1 UNK         0.0600 
    214 H214       -1.0405  -27.6354  -49.6585 H         1 UNK         0.0600 
    215 H215       -2.1883  -26.5568  -53.8185 H         1 UNK         0.3000 
    216 H216       -1.6005  -25.9798  -55.8470 H         1 UNK         0.0600 
    217 H217        0.6973  -25.6338  -56.5671 H         1 UNK         0.0600 
    218 H218        0.6840  -26.9315  -55.3855 H         1 UNK         0.0600 
    219 H219        1.2404  -25.3207  -54.9285 H         1 UNK         0.0600 
    220 H220       -2.3501  -23.9817  -53.6085 H         1 UNK         0.3000 
    221 H221       -2.9706  -21.8692  -53.3643 H         1 UNK         0.0600 
    222 H222       -3.3600  -22.0455  -56.3975 H         1 UNK         0.0600 
    223 H223       -4.4675  -22.6823  -55.1818 H         1 UNK         0.0600 
    224 H224       -4.2007  -20.9534  -55.3021 H         1 UNK         0.0600 
    225 H225       -0.4703  -21.6157  -52.9274 H         1 UNK         0.3000 
    226 H226        1.0519  -19.8955  -54.6782 H         1 UNK         0.0600 
    227 H227        2.1266  -21.4235  -53.0291 H         1 UNK         0.0600 
    228 H228        2.5779  -19.7513  -52.7237 H         1 UNK         0.0600 
    229 H229        1.3851  -20.5371  -51.6984 H         1 UNK         0.0600 
    230 H230        0.5255  -17.8571  -55.0719 H         1 UNK         0.3000 
    231 H231       -0.2408  -15.7970  -55.0198 H         1 UNK         0.0600 
    232 H232        1.2193  -15.5075  -52.9689 H         1 UNK         0.0600 
    233 H233       -0.1943  -15.8160  -51.9611 H         1 UNK         0.0600 
    234 H234       -0.1551  -14.4197  -53.0290 H         1 UNK         0.0600 
    235 H235       -2.0253  -18.0728  -55.0961 H         1 UNK         0.3000 
    236 H236       -4.1479  -18.5894  -55.3295 H         1 UNK         0.0600 
    237 H237       -5.8349  -16.7960  -55.7516 H         1 UNK         0.0600 
    238 H238       -4.6913  -15.5689  -55.2101 H         1 UNK         0.0600 
    239 H239       -4.3528  -16.5221  -56.6467 H         1 UNK         0.0600 
    240 H240       -5.6784  -16.1275  -53.5347 H         1 UNK         0.3000 
    241 H241       -5.4531  -17.5037  -50.9399 H         1 UNK         0.0600 
    242 H242       -4.4739  -13.7922  -51.0620 H         1 UNK         0.3800 
    243 H243       -4.0720  -15.0457  -52.2126 H         1 UNK         0.3800 
    244 H244       -7.8655  -17.0006  -50.4251 H         1 UNK         0.0800 
    245 H245       -8.1012  -16.4535  -52.0611 H         1 UNK         0.0800 
    246 H246       -8.5615  -20.7213  -50.5599 H         1 UNK         0.0800 
    247 H247       -9.2334  -19.2246  -49.9562 H         1 UNK         0.0800 
@<TRIPOS>BOND
     1    1    2 1    
     2    1  127 1    
     3    1  128 1    
     4    1  129 1    
     5    2    3 2    
     6    2    4 am   BACKBONE|DICT|INTERRES
     7    4    5 1    
     8    4  130 1    
     9    5    6 1    
    10    5   65 1    
    11    5  131 1    
    12    6    7 1    
    13    6  132 1    
    14    6  133 1    
    15    7    8 1    
    16    8    9 1    
    17    8  134 1    
    18    8  135 1    
    19    9   10 ar   
    20    9   14 ar   
    21   10   11 ar   
    22   10  136 1    
    23   11   12 ar   
    24   11  126 1    
    25   12   13 ar   
    26   12  137 1    
    27   13   14 ar   
    28   13   15 1    
    29   14  138 1    
    30   15   16 1    
    31   15  139 1    
    32   15  140 1    
    33   16   17 1    
    34   17   18 1    
    35   17  141 1    
    36   17  142 1    
    37   18   19 1    
    38   18   67 1    
    39   18  143 1    
    40   19   20 am   BACKBONE|DICT|INTERRES
    41   19  144 1    
    42   20   21 2    
    43   20   22 1    
    44   22   23 1    
    45   22   24 1    
    46   22  145 1    
    47   23  146 1    
    48   23  147 1    
    49   23  148 1    
    50   24   25 am   BACKBONE|DICT|INTERRES
    51   24  149 1    
    52   25   26 2    
    53   25   27 1    
    54   27   28 1    
    55   27   29 1    
    56   27  150 1    
    57   28  151 1    
    58   28  152 1    
    59   28  153 1    
    60   29   30 am   BACKBONE|DICT|INTERRES
    61   29  154 1    
    62   30   31 2    
    63   30   32 1    
    64   32   33 1    
    65   32   34 1    
    66   32  155 1    
    67   33  156 1    
    68   33  157 1    
    69   33  158 1    
    70   34   35 am   BACKBONE|DICT|INTERRES
    71   34  159 1    
    72   35   36 2    
    73   35   37 1    
    74   37   38 1    
    75   37   39 1    
    76   37  160 1    
    77   38  161 1    
    78   38  162 1    
    79   38  163 1    
    80   39   40 am   BACKBONE|DICT|INTERRES
    81   39  164 1    
    82   40   41 2    
    83   40   42 1    
    84   42   43 1    
    85   42   44 1    
    86   42  165 1    
    87   43  166 1    
    88   43  167 1    
    89   43  168 1    
    90   44   45 am   BACKBONE|DICT|INTERRES
    91   44  169 1    
    92   45   46 2    
    93   45   47 1    
    94   47   48 1    
    95   47   49 1    
    96   47  170 1    
    97   48  171 1    
    98   48  172 1    
    99   48  173 1    
   100   49   50 am   BACKBONE|DICT|INTERRES
   101   49  174 1    
   102   50   51 2    
   103   50   52 1    
   104   52   53 1    
   105   52   54 1    
   106   52  175 1    
   107   53  176 1    
   108   53  177 1    
   109   53  178 1    
   110   54   55 am   BACKBONE|DICT|INTERRES
   111   54  179 1    
   112   55   56 2    
   113   55   57 1    
   114   57   58 1    
   115   57   59 1    
   116   57  180 1    
   117   58  181 1    
   118   58  182 1    
   119   58  183 1    
   120   59   60 am   BACKBONE|DICT|INTERRES
   121   59  184 1    
   122   60   61 2    
   123   60   62 1    
   124   62   63 1    
   125   62   64 1    
   126   62  185 1    
   127   63  186 1    
   128   63  187 1    
   129   63  188 1    
   130   64   65 am   BACKBONE|DICT|INTERRES
   131   64  189 1    
   132   65   66 2    
   133   67   68 2    
   134   67   69 am   BACKBONE|DICT|INTERRES
   135   69   70 1    
   136   69  190 1    
   137   70   71 1    
   138   70   72 1    
   139   70  191 1    
   140   71  192 1    
   141   71  193 1    
   142   71  194 1    
   143   72   73 2    
   144   72   74 am   BACKBONE|DICT|INTERRES
   145   74   75 1    
   146   74  195 1    
   147   75   76 1    
   148   75   77 1    
   149   75  196 1    
   150   76  197 1    
   151   76  198 1    
   152   76  199 1    
   153   77   78 2    
   154   77   79 am   BACKBONE|DICT|INTERRES
   155   79   80 1    
   156   79  200 1    
   157   80   81 1    
   158   80   82 1    
   159   80  201 1    
   160   81  202 1    
   161   81  203 1    
   162   81  204 1    
   163   82   83 2    
   164   82   84 am   BACKBONE|DICT|INTERRES
   165   84   85 1    
   166   84  205 1    
   167   85   86 1    
   168   85   87 1    
   169   85  206 1    
   170   86  207 1    
   171   86  208 1    
   172   86  209 1    
   173   87   88 2    
   174   87   89 am   BACKBONE|DICT|INTERRES
   175   89   90 1    
   176   89  210 1    
   177   90   91 1    
   178   90   92 1    
   179   90  211 1    
   180   91  212 1    
   181   91  213 1    
   182   91  214 1    
   183   92   93 2    
   184   92   94 am   BACKBONE|DICT|INTERRES
   185   94   95 1    
   186   94  215 1    
   187   95   96 1    
   188   95   97 1    
   189   95  216 1    
   190   96  217 1    
   191   96  218 1    
   192   96  219 1    
   193   97   98 2    
   194   97   99 am   BACKBONE|DICT|INTERRES
   195   99  100 1    
   196   99  220 1    
   197  100  101 1    
   198  100  102 1    
   199  100  221 1    
   200  101  222 1    
   201  101  223 1    
   202  101  224 1    
   203  102  103 2    
   204  102  104 am   BACKBONE|DICT|INTERRES
   205  104  105 1    
   206  104  225 1    
   207  105  106 1    
   208  105  107 1    
   209  105  226 1    
   210  106  227 1    
   211  106  228 1    
   212  106  229 1    
   213  107  108 2    
   214  107  109 am   BACKBONE|DICT|INTERRES
   215  109  110 1    
   216  109  230 1    
   217  110  111 1    
   218  110  112 1    
   219  110  231 1    
   220  111  232 1    
   221  111  233 1    
   222  111  234 1    
   223  112  113 2    
   224  112  114 am   BACKBONE|DICT|INTERRES
   225  114  115 1    
   226  114  235 1    
   227  115  116 1    
   228  115  117 1    
   229  115  236 1    
   230  116  237 1    
   231  116  238 1    
   232  116  239 1    
   233  117  118 2    
   234  117  119 am   BACKBONE|DICT|INTERRES
   235  119  120 1    
   236  119  240 1    
   237  120  121 1    
   238  120  124 1    
   239  120  241 1    
   240  121  122 am   BACKBONE|DICT|INTERRES
   241  121  123 2    
   242  122  242 1    
   243  122  243 1    
   244  124  125 1    
   245  124  244 1    
   246  124  245 1    
   247  125  126 1    
   248  126  246 1    
   249  126  247 1    
@<TRIPOS>SUBSTRUCTURE
     1 UNK         1 GROUP             0       ****    0 ROOT    
