@<TRIPOS>MOLECULE
3R540
247   249    1
SMALL
USER_CHARGES


@<TRIPOS>ATOM
      1 CA          4.6464  -13.6473  -45.3823 C.3       0 UNK        -0.1800 
      2 C           3.3972  -13.7606  -46.2427 C.2       0 UNK         0.5000 
      3 O           2.2882  -13.7337  -45.7077 O.2       0 UNK        -0.5000 
      4 N           3.5797  -13.8922  -47.5640 N.am      1 UNK        -0.5000 
      5 CA          2.5253  -14.0623  -48.5715 C.3       1 UNK         0.1400 
      6 C6          3.1002  -14.3115  -49.9899 C.3       23 UNK        -0.0398 
      7 S7          4.2032  -15.7621  -50.0966 S.3       23 UNK        -0.2404 
      8 C8          3.3050  -16.8345  -51.2635 C.3       23 UNK        -0.0205 
      9 C9          2.3439  -17.7623  -50.5393 C.ar      23 UNK        -0.0193 
     10 C10         1.0916  -17.3035  -50.1175 C.ar      23 UNK        -0.1150 
     11 C11         0.2263  -18.1521  -49.4212 C.ar      23 UNK        -0.0193 
     12 C12         0.6090  -19.4729  -49.1750 C.ar      23 UNK        -0.1150 
     13 C13         1.8515  -19.9449  -49.6030 C.ar      23 UNK        -0.0193 
     14 C14         2.7171  -19.0847  -50.2813 C.ar      23 UNK        -0.1150 
     15 C15         2.2546  -21.3797  -49.3180 C.3       23 UNK        -0.0205 
     16 S16         2.8584  -21.5599  -47.6131 S.3       23 UNK        -0.2404 
     17 C17         2.5751  -23.3420  -47.3443 C.3       23 UNK        -0.0398 
     18 CA          1.3075  -23.6623  -46.5132 C.3       11 UNK         0.1400 
     19 N           1.3516  -23.0678  -45.1710 N.am      11 UNK        -0.5000 
     20 C           0.5159  -23.3447  -44.1598 C.2       10 UNK         0.5000 
     21 O          -0.5404  -23.9620  -44.2978 O.2       10 UNK        -0.5000 
     22 CA          0.9617  -22.9194  -42.7497 C.3       10 UNK         0.1400 
     23 CB          2.4944  -22.8805  -42.5848 C.3       10 UNK        -0.1800 
     24 N           0.4072  -21.6188  -42.3895 N.am      10 UNK        -0.5000 
     25 C          -0.6823  -21.4347  -41.6322 C.2       9 UNK         0.5000 
     26 O          -1.3832  -22.3500  -41.1982 O.2       9 UNK        -0.5000 
     27 CA         -1.0412  -19.9794  -41.2770 C.3       9 UNK         0.1400 
     28 CB         -0.1526  -19.4606  -40.1360 C.3       9 UNK        -0.1800 
     29 N          -0.9349  -19.0789  -42.4225 N.am      9 UNK        -0.5000 
     30 C          -1.7955  -19.0640  -43.4486 C.2       8 UNK         0.5000 
     31 O          -2.8002  -19.7727  -43.5070 O.2       8 UNK        -0.5000 
     32 CA         -1.4850  -18.0948  -44.6026 C.3       8 UNK         0.1400 
     33 CB         -2.1632  -16.7380  -44.3729 C.3       8 UNK        -0.1800 
     34 N          -0.0483  -17.8996  -44.7965 N.am      8 UNK        -0.5000 
     35 C           0.7657  -18.8088  -45.3517 C.2       7 UNK         0.5000 
     36 O           0.3814  -19.8974  -45.7794 O.2       7 UNK        -0.5000 
     37 CA          2.2659  -18.4536  -45.3873 C.3       7 UNK         0.1400 
     38 CB          2.5813  -17.5132  -46.5586 C.3       7 UNK        -0.1800 
     39 N           2.7274  -17.8264  -44.1493 N.am      7 UNK        -0.5000 
     40 C           2.7489  -18.4281  -42.9532 C.2       6 UNK         0.5000 
     41 O           2.3974  -19.5913  -42.7683 O.2       6 UNK        -0.5000 
     42 CA          3.1904  -17.5724  -41.7516 C.3       6 UNK         0.1400 
     43 CB          4.7102  -17.6705  -41.5547 C.3       6 UNK        -0.1800 
     44 N           2.8068  -16.1605  -41.8464 N.am      6 UNK        -0.5000 
     45 C           1.5568  -15.6988  -41.9967 C.2       5 UNK         0.5000 
     46 O           0.5777  -16.4350  -42.1339 O.2       5 UNK        -0.5000 
     47 CA          1.3636  -14.1709  -42.0086 C.3       5 UNK         0.1400 
     48 CB          2.6700  -13.3635  -41.8658 C.3       5 UNK        -0.1800 
     49 N           0.7092  -13.7696  -43.2482 N.am      5 UNK        -0.5000 
     50 C          -0.6023  -13.5484  -43.3983 C.2       4 UNK         0.5000 
     51 O          -1.4355  -13.6838  -42.5002 O.2       4 UNK        -0.5000 
     52 CA         -1.0226  -13.0365  -44.7918 C.3       4 UNK         0.1400 
     53 CB         -2.5112  -12.6441  -44.8844 C.3       4 UNK        -0.1800 
     54 N          -0.1549  -11.9407  -45.2334 N.am      4 UNK        -0.5000 
     55 C           0.0525  -10.7659  -44.6156 C.2       3 UNK         0.5000 
     56 O          -0.5894  -10.3712  -43.6417 O.2       3 UNK        -0.5000 
     57 CA          1.2024   -9.8930  -45.1532 C.3       3 UNK         0.1400 
     58 CB          2.4439  -10.0497  -44.2604 C.3       3 UNK        -0.1800 
     59 N           1.5729  -10.2233  -46.5285 N.am      3 UNK        -0.5000 
     60 C           0.8669   -9.8763  -47.6124 C.2       2 UNK         0.5000 
     61 O          -0.1499   -9.1829  -47.5767 O.2       2 UNK        -0.5000 
     62 CA          1.3815  -10.4057  -48.9623 C.3       2 UNK         0.1400 
     63 CB          2.2767   -9.3601  -49.6446 C.3       2 UNK        -0.1800 
     64 N           2.1252  -11.6623  -48.8368 N.am      2 UNK        -0.5000 
     65 C           1.5637  -12.8582  -48.6061 C.2       1 UNK         0.5000 
     66 O           0.3592  -13.0272  -48.4164 O.2       1 UNK        -0.5000 
     67 C           0.0049  -23.4294  -47.3095 C.2       11 UNK         0.5000 
     68 O          -0.3047  -24.2413  -48.1817 O.2       11 UNK        -0.5000 
     69 N          -0.7684  -22.3832  -46.9840 N.am      12 UNK        -0.5000 
     70 CA         -2.1064  -22.1449  -47.5376 C.3       12 UNK         0.1400 
     71 CB         -2.6769  -20.8438  -46.9716 C.3       12 UNK        -0.1800 
     72 C          -3.0950  -23.3020  -47.2971 C.2       12 UNK         0.5000 
     73 O          -3.9461  -23.5514  -48.1513 O.2       12 UNK        -0.5000 
     74 N          -2.9290  -24.0303  -46.1819 N.am      13 UNK        -0.5000 
     75 CA         -3.7213  -25.2105  -45.8253 C.3       13 UNK         0.1400 
     76 CB         -3.3975  -25.6197  -44.3807 C.3       13 UNK        -0.1800 
     77 C          -3.5280  -26.4060  -46.7820 C.2       13 UNK         0.5000 
     78 O          -4.3806  -27.2937  -46.8110 O.2       13 UNK        -0.5000 
     79 N          -2.4416  -26.3997  -47.5691 N.am      14 UNK        -0.5000 
     80 CA         -2.1766  -27.3645  -48.6380 C.3       14 UNK         0.1400 
     81 CB         -0.6555  -27.5134  -48.8124 C.3       14 UNK        -0.1800 
     82 C          -2.8578  -26.9816  -49.9712 C.2       14 UNK         0.5000 
     83 O          -2.6260  -27.6641  -50.9697 O.2       14 UNK        -0.5000 
     84 N          -3.6739  -25.9132  -49.9701 N.am      15 UNK        -0.5000 
     85 CA         -4.3985  -25.3337  -51.1038 C.3       15 UNK         0.1400 
     86 CB         -5.3903  -26.3479  -51.7117 C.3       15 UNK        -0.1800 
     87 C          -3.4211  -24.7260  -52.1269 C.2       15 UNK         0.5000 
     88 O          -3.3510  -25.1742  -53.2727 O.2       15 UNK        -0.5000 
     89 N          -2.6656  -23.7220  -51.6592 N.am      16 UNK        -0.5000 
     90 CA         -1.5284  -23.0826  -52.3308 C.3       16 UNK         0.1400 
     91 CB         -1.0244  -21.9249  -51.4558 C.3       16 UNK        -0.1800 
     92 C          -1.7759  -22.5925  -53.7713 C.2       16 UNK         0.5000 
     93 O          -0.8641  -22.6799  -54.5947 O.2       16 UNK        -0.5000 
     94 N          -2.9909  -22.1072  -54.0550 N.am      17 UNK        -0.5000 
     95 CA         -3.4166  -21.6600  -55.3855 C.3       17 UNK         0.1400 
     96 CB         -3.6672  -20.1436  -55.3428 C.3       17 UNK        -0.1800 
     97 C          -4.6504  -22.4507  -55.8578 C.2       17 UNK         0.5000 
     98 O          -5.5542  -21.8735  -56.4632 O.2       17 UNK        -0.5000 
     99 N          -4.6937  -23.7489  -55.5145 N.am      18 UNK        -0.5000 
    100 CA        -5.8409  -24.6661  -55.6281 C.3       18 UNK         0.1400 
    101 CB        -6.3032  -24.8349  -57.0902 C.3       18 UNK        -0.1800 
    102 C         -6.9980  -24.2979  -54.6706 C.2       18 UNK         0.5000 
    103 O         -8.1078  -24.8154  -54.8021 O.2       18 UNK        -0.5000 
    104 N         -6.6894  -23.4326  -53.7015 N.am      19 UNK        -0.5000 
    105 CA        -7.5154  -22.9107  -52.6292 C.3       19 UNK         0.1400 
    106 CB        -8.5588  -21.9246  -53.1855 C.3       19 UNK        -0.1800 
    107 C         -6.5615  -22.2030  -51.6557 C.2       19 UNK         0.5000 
    108 O         -5.4437  -21.8389  -52.0427 O.2       19 UNK        -0.5000 
    109 N         -7.0248  -22.0004  -50.4182 N.am      20 UNK        -0.5000 
    110 CA        -6.2916  -21.3123  -49.3495 C.3       20 UNK         0.1400 
    111 CB        -6.8399  -21.7838  -47.9926 C.3       20 UNK        -0.1800 
    112 C         -6.3314  -19.7725  -49.4641 C.2       20 UNK         0.5000 
    113 O         -5.7740  -19.0880  -48.6070 O.2       20 UNK        -0.5000 
    114 N         -6.9904  -19.2508  -50.5090 N.am      21 UNK        -0.5000 
    115 CA        -7.0533  -17.8273  -50.8453 C.3       21 UNK         0.1400 
    116 CB        -8.1663  -17.6161  -51.8837 C.3       21 UNK        -0.1800 
    117 C         -5.7158  -17.2643  -51.3689 C.2       21 UNK         0.5000 
    118 O         -5.4998  -16.0553  -51.2809 O.2       21 UNK        -0.5000 
    119 N         -4.8542  -18.1444  -51.9012 N.am      22 UNK        -0.5000 
    120 CA        -3.4922  -17.8521  -52.3905 C.3       22 UNK         0.1400 
    121 C         -3.4279  -16.9833  -53.6856 C.2       22 UNK         0.5000 
    122 N         -4.5234  -16.7870  -54.4091 N.am      22 UNK        -0.7600 
    123 O         -2.3619  -16.5061  -54.0647 O.2       22 UNK        -0.5000 
    124 C124       -2.5404  -17.3161  -51.2835 C.3       23 UNK        -0.0398 
    125 S125       -2.5043  -18.3730  -49.7980 S.3       23 UNK        -0.2404 
    126 C126       -1.1055  -17.6422  -48.8970 C.3       23 UNK        -0.0205 
    127 H127        4.6331  -12.7139  -44.8201 H         1 UNK         0.0600 
    128 H128        4.6880  -14.4744  -44.6739 H         1 UNK         0.0600 
    129 H129        5.5558  -13.6690  -45.9831 H         1 UNK         0.0600 
    130 H130        4.5228  -13.9276  -47.9242 H         1 UNK         0.3000 
    131 H131        1.9396  -14.9382  -48.2860 H         1 UNK         0.0600 
    132 H132        3.6783  -13.4496  -50.3273 H         1 UNK         0.0800 
    133 H133        2.2882  -14.4186  -50.7106 H         1 UNK         0.0800 
    134 H134        4.0367  -17.4212  -51.8211 H         1 UNK         0.0800 
    135 H135        2.7731  -16.2420  -52.0089 H         1 UNK         0.0800 
    136 H136        0.7995  -16.2817  -50.3112 H         1 UNK         0.1150 
    137 H137       -0.0541  -20.1305  -48.6317 H         1 UNK         0.1150 
    138 H138        3.6858  -19.4428  -50.6005 H         1 UNK         0.1150 
    139 H139        1.3962  -22.0300  -49.4820 H         1 UNK         0.0800 
    140 H140        3.0279  -21.7108  -50.0127 H         1 UNK         0.0800 
    141 H141        2.5528  -23.8651  -48.3022 H         1 UNK         0.0800 
    142 H142        3.4507  -23.7352  -46.8263 H         1 UNK         0.0800 
    143 H143        1.3295  -24.7407  -46.3415 H         1 UNK         0.0600 
    144 H144        2.1608  -22.4965  -44.9777 H         1 UNK         0.3000 
    145 H145        0.5917  -23.6829  -42.0622 H         1 UNK         0.0600 
    146 H146        2.7674  -22.6688  -41.5509 H         1 UNK         0.0600 
    147 H147        2.9403  -23.8414  -42.8450 H         1 UNK         0.0600 
    148 H148        2.9630  -22.1189  -43.2081 H         1 UNK         0.0600 
    149 H149        0.9477  -20.8076  -42.6789 H         1 UNK         0.3000 
    150 H150       -2.0759  -19.9645  -40.9277 H         1 UNK         0.0600 
    151 H151       -0.2764  -20.0699  -39.2400 H         1 UNK         0.0600 
    152 H152       -0.4072  -18.4341  -39.8710 H         1 UNK         0.0600 
    153 H153        0.9033  -19.4860  -40.4039 H         1 UNK         0.0600 
    154 H154       -0.1701  -18.4144  -42.4226 H         1 UNK         0.3000 
    155 H155       -1.9024  -18.5173  -45.5156 H         1 UNK         0.0600 
    156 H156       -1.9709  -16.0550  -45.1998 H         1 UNK         0.0600 
    157 H157       -1.8170  -16.2689  -43.4522 H         1 UNK         0.0600 
    158 H158       -3.2447  -16.8532  -44.2923 H         1 UNK         0.0600 
    159 H159        0.3553  -17.0695  -44.3858 H         1 UNK         0.3000 
    160 H160        2.8287  -19.3786  -45.5246 H         1 UNK         0.0600 
    161 H161        1.9964  -16.5945  -46.5077 H         1 UNK         0.0600 
    162 H162        2.3586  -17.9939  -47.5085 H         1 UNK         0.0600 
    163 H163        3.6365  -17.2407  -46.5810 H         1 UNK         0.0600 
    164 H164        3.0217  -16.8633  -44.2063 H         1 UNK         0.3000 
    165 H165        2.7064  -17.9815  -40.8633 H         1 UNK         0.0600 
    166 H166        5.2542  -17.2380  -42.3954 H         1 UNK         0.0600 
    167 H167        5.0254  -17.1536  -40.6481 H         1 UNK         0.0600 
    168 H168        5.0253  -18.7106  -41.4595 H         1 UNK         0.0600 
    169 H169        3.5527  -15.4883  -41.7425 H         1 UNK         0.3000 
    170 H170        0.7293  -13.9268  -41.1542 H         1 UNK         0.0600 
    171 H171        3.1801  -13.5920  -40.9291 H         1 UNK         0.0600 
    172 H172        3.3621  -13.5547  -42.6860 H         1 UNK         0.0600 
    173 H173        2.4620  -12.2933  -41.8582 H         1 UNK         0.0600 
    174 H174        1.3060  -13.6734  -44.0661 H         1 UNK         0.3000 
    175 H175       -0.8525  -13.8585  -45.4886 H         1 UNK         0.0600 
    176 H176       -2.7648  -12.3005  -45.8872 H         1 UNK         0.0600 
    177 H177       -3.1517  -13.4982  -44.6616 H         1 UNK         0.0600 
    178 H178       -2.7691  -11.8509  -44.1824 H         1 UNK         0.0600 
    179 H179        0.4500  -12.1688  -46.0114 H         1 UNK         0.3000 
    180 H180        0.8786   -8.8507  -45.1151 H         1 UNK         0.0600 
    181 H181        2.2209   -9.7726  -43.2292 H         1 UNK         0.0600 
    182 H182        2.8042  -11.0789  -44.2509 H         1 UNK         0.0600 
    183 H183        3.2589   -9.4097  -44.5988 H         1 UNK         0.0600 
    184 H184        2.3950  -10.7942  -46.6550 H         1 UNK         0.3000 
    185 H185        0.5130  -10.5801  -49.6013 H         1 UNK         0.0600 
    186 H186        2.5920   -9.6952  -50.6329 H         1 UNK         0.0600 
    187 H187        1.7442   -8.4173  -49.7775 H         1 UNK         0.0600 
    188 H188        3.1723   -9.1511  -49.0582 H         1 UNK         0.0600 
    189 H189        3.1263  -11.6078  -48.9579 H         1 UNK         0.3000 
    190 H190       -0.4201  -21.7114  -46.3062 H         1 UNK         0.3000 
    191 H191       -2.0038  -22.0225  -48.6158 H         1 UNK         0.0600 
    192 H192       -3.6609  -20.6278  -47.3896 H         1 UNK         0.0600 
    193 H193       -2.0315  -20.0041  -47.2172 H         1 UNK         0.0600 
    194 H194       -2.7796  -20.8932  -45.8884 H         1 UNK         0.0600 
    195 H195       -2.1671  -23.7959  -45.5523 H         1 UNK         0.3000 
    196 H196       -4.7746  -24.9260  -45.8704 H         1 UNK         0.0600 
    197 H197       -4.0411  -26.4368  -44.0526 H         1 UNK         0.0600 
    198 H198       -3.5475  -24.7896  -43.6900 H         1 UNK         0.0600 
    199 H199       -2.3651  -25.9567  -44.2813 H         1 UNK         0.0600 
    200 H200       -1.7982  -25.6187  -47.5112 H         1 UNK         0.3000 
    201 H201       -2.5723  -28.3385  -48.3431 H         1 UNK         0.0600 
    202 H202       -0.1646  -27.7240  -47.8622 H         1 UNK         0.0600 
    203 H203       -0.2062  -26.6138  -49.2328 H         1 UNK         0.0600 
    204 H204       -0.4201  -28.3372  -49.4872 H         1 UNK         0.0600 
    205 H205       -3.7617  -25.3918  -49.1051 H         1 UNK         0.3000 
    206 H206       -4.9851  -24.5097  -50.6965 H         1 UNK         0.0600 
    207 H207       -6.0418  -26.7677  -50.9454 H         1 UNK         0.0600 
    208 H208       -6.0306  -25.8721  -52.4513 H         1 UNK         0.0600 
    209 H209       -4.8838  -27.1748  -52.2098 H         1 UNK         0.0600 
    210 H210       -2.8238  -23.4333  -50.7051 H         1 UNK         0.3000 
    211 H211       -0.7367  -23.8324  -52.3843 H         1 UNK         0.0600 
    212 H212       -1.8025  -21.1802  -51.2822 H         1 UNK         0.0600 
    213 H213       -0.1793  -21.4143  -51.9200 H         1 UNK         0.0600 
    214 H214       -0.6847  -22.2907  -50.4885 H         1 UNK         0.0600 
    215 H215       -3.6802  -22.0580  -53.3131 H         1 UNK         0.3000 
    216 H216       -2.6390  -21.8483  -56.1281 H         1 UNK         0.0600 
    217 H217       -3.9557  -19.7602  -56.3222 H         1 UNK         0.0600 
    218 H218       -4.4621  -19.8895  -54.6408 H         1 UNK         0.0600 
    219 H219       -2.7648  -19.6102  -55.0450 H         1 UNK         0.0600 
    220 H220       -3.9133  -24.1231  -54.9830 H         1 UNK         0.3000 
    221 H221       -5.4748  -25.6364  -55.2894 H         1 UNK         0.0600 
    222 H222       -6.7917  -23.9382  -57.4716 H         1 UNK         0.0600 
    223 H223       -5.4639  -25.0671  -57.7456 H         1 UNK         0.0600 
    224 H224       -7.0188  -25.6531  -57.1784 H         1 UNK         0.0600 
    225 H225       -5.7464  -23.0691  -53.6758 H         1 UNK         0.3000 
    226 H226       -8.0075  -23.7401  -52.1176 H         1 UNK         0.0600 
    227 H227       -9.1704  -21.5041  -52.3865 H         1 UNK         0.0600 
    228 H228       -8.0854  -21.0943  -53.7117 H         1 UNK         0.0600 
    229 H229       -9.2374  -22.4156  -53.8829 H         1 UNK         0.0600 
    230 H230       -7.9538  -22.3204  -50.1822 H         1 UNK         0.3000 
    231 H231       -5.2403  -21.6006  -49.4082 H         1 UNK         0.0600 
    232 H232       -6.2775  -21.3446  -47.1676 H         1 UNK         0.0600 
    233 H233       -6.7600  -22.8665  -47.8918 H         1 UNK         0.0600 
    234 H234       -7.8869  -21.5079  -47.8628 H         1 UNK         0.0600 
    235 H235       -7.4405  -19.8870  -51.1484 H         1 UNK         0.3000 
    236 H236       -7.3143  -17.2717  -49.9421 H         1 UNK         0.0600 
    237 H237       -7.9693  -18.1670  -52.8043 H         1 UNK         0.0600 
    238 H238       -9.1326  -17.9415  -51.4978 H         1 UNK         0.0600 
    239 H239       -8.2617  -16.5614  -52.1457 H         1 UNK         0.0600 
    240 H240       -5.1252  -19.1169  -51.9239 H         1 UNK         0.3000 
    241 H241       -3.0942  -18.8203  -52.6948 H         1 UNK         0.0600 
    242 H242       -4.4692  -16.2337  -55.2495 H         1 UNK         0.3800 
    243 H243       -5.4070  -17.1699  -54.1162 H         1 UNK         0.3800 
    244 H244       -2.8261  -16.3065  -50.9853 H         1 UNK         0.0800 
    245 H245       -1.5214  -17.2455  -51.6674 H         1 UNK         0.0800 
    246 H246       -1.1598  -16.5537  -48.9498 H         1 UNK         0.0800 
    247 H247       -1.1890  -17.8960  -47.8403 H         1 UNK         0.0800 
@<TRIPOS>BOND
     1    1    2 1    
     2    1  127 1    
     3    1  128 1    
     4    1  129 1    
     5    2    3 2    
     6    2    4 am   BACKBONE|DICT|INTERRES
     7    4    5 1    
     8    4  130 1    
     9    5    6 1    
    10    5   65 1    
    11    5  131 1    
    12    6    7 1    
    13    6  132 1    
    14    6  133 1    
    15    7    8 1    
    16    8    9 1    
    17    8  134 1    
    18    8  135 1    
    19    9   10 ar   
    20    9   14 ar   
    21   10   11 ar   
    22   10  136 1    
    23   11   12 ar   
    24   11  126 1    
    25   12   13 ar   
    26   12  137 1    
    27   13   14 ar   
    28   13   15 1    
    29   14  138 1    
    30   15   16 1    
    31   15  139 1    
    32   15  140 1    
    33   16   17 1    
    34   17   18 1    
    35   17  141 1    
    36   17  142 1    
    37   18   19 1    
    38   18   67 1    
    39   18  143 1    
    40   19   20 am   BACKBONE|DICT|INTERRES
    41   19  144 1    
    42   20   21 2    
    43   20   22 1    
    44   22   23 1    
    45   22   24 1    
    46   22  145 1    
    47   23  146 1    
    48   23  147 1    
    49   23  148 1    
    50   24   25 am   BACKBONE|DICT|INTERRES
    51   24  149 1    
    52   25   26 2    
    53   25   27 1    
    54   27   28 1    
    55   27   29 1    
    56   27  150 1    
    57   28  151 1    
    58   28  152 1    
    59   28  153 1    
    60   29   30 am   BACKBONE|DICT|INTERRES
    61   29  154 1    
    62   30   31 2    
    63   30   32 1    
    64   32   33 1    
    65   32   34 1    
    66   32  155 1    
    67   33  156 1    
    68   33  157 1    
    69   33  158 1    
    70   34   35 am   BACKBONE|DICT|INTERRES
    71   34  159 1    
    72   35   36 2    
    73   35   37 1    
    74   37   38 1    
    75   37   39 1    
    76   37  160 1    
    77   38  161 1    
    78   38  162 1    
    79   38  163 1    
    80   39   40 am   BACKBONE|DICT|INTERRES
    81   39  164 1    
    82   40   41 2    
    83   40   42 1    
    84   42   43 1    
    85   42   44 1    
    86   42  165 1    
    87   43  166 1    
    88   43  167 1    
    89   43  168 1    
    90   44   45 am   BACKBONE|DICT|INTERRES
    91   44  169 1    
    92   45   46 2    
    93   45   47 1    
    94   47   48 1    
    95   47   49 1    
    96   47  170 1    
    97   48  171 1    
    98   48  172 1    
    99   48  173 1    
   100   49   50 am   BACKBONE|DICT|INTERRES
   101   49  174 1    
   102   50   51 2    
   103   50   52 1    
   104   52   53 1    
   105   52   54 1    
   106   52  175 1    
   107   53  176 1    
   108   53  177 1    
   109   53  178 1    
   110   54   55 am   BACKBONE|DICT|INTERRES
   111   54  179 1    
   112   55   56 2    
   113   55   57 1    
   114   57   58 1    
   115   57   59 1    
   116   57  180 1    
   117   58  181 1    
   118   58  182 1    
   119   58  183 1    
   120   59   60 am   BACKBONE|DICT|INTERRES
   121   59  184 1    
   122   60   61 2    
   123   60   62 1    
   124   62   63 1    
   125   62   64 1    
   126   62  185 1    
   127   63  186 1    
   128   63  187 1    
   129   63  188 1    
   130   64   65 am   BACKBONE|DICT|INTERRES
   131   64  189 1    
   132   65   66 2    
   133   67   68 2    
   134   67   69 am   BACKBONE|DICT|INTERRES
   135   69   70 1    
   136   69  190 1    
   137   70   71 1    
   138   70   72 1    
   139   70  191 1    
   140   71  192 1    
   141   71  193 1    
   142   71  194 1    
   143   72   73 2    
   144   72   74 am   BACKBONE|DICT|INTERRES
   145   74   75 1    
   146   74  195 1    
   147   75   76 1    
   148   75   77 1    
   149   75  196 1    
   150   76  197 1    
   151   76  198 1    
   152   76  199 1    
   153   77   78 2    
   154   77   79 am   BACKBONE|DICT|INTERRES
   155   79   80 1    
   156   79  200 1    
   157   80   81 1    
   158   80   82 1    
   159   80  201 1    
   160   81  202 1    
   161   81  203 1    
   162   81  204 1    
   163   82   83 2    
   164   82   84 am   BACKBONE|DICT|INTERRES
   165   84   85 1    
   166   84  205 1    
   167   85   86 1    
   168   85   87 1    
   169   85  206 1    
   170   86  207 1    
   171   86  208 1    
   172   86  209 1    
   173   87   88 2    
   174   87   89 am   BACKBONE|DICT|INTERRES
   175   89   90 1    
   176   89  210 1    
   177   90   91 1    
   178   90   92 1    
   179   90  211 1    
   180   91  212 1    
   181   91  213 1    
   182   91  214 1    
   183   92   93 2    
   184   92   94 am   BACKBONE|DICT|INTERRES
   185   94   95 1    
   186   94  215 1    
   187   95   96 1    
   188   95   97 1    
   189   95  216 1    
   190   96  217 1    
   191   96  218 1    
   192   96  219 1    
   193   97   98 2    
   194   97   99 am   BACKBONE|DICT|INTERRES
   195   99  100 1    
   196   99  220 1    
   197  100  101 1    
   198  100  102 1    
   199  100  221 1    
   200  101  222 1    
   201  101  223 1    
   202  101  224 1    
   203  102  103 2    
   204  102  104 am   BACKBONE|DICT|INTERRES
   205  104  105 1    
   206  104  225 1    
   207  105  106 1    
   208  105  107 1    
   209  105  226 1    
   210  106  227 1    
   211  106  228 1    
   212  106  229 1    
   213  107  108 2    
   214  107  109 am   BACKBONE|DICT|INTERRES
   215  109  110 1    
   216  109  230 1    
   217  110  111 1    
   218  110  112 1    
   219  110  231 1    
   220  111  232 1    
   221  111  233 1    
   222  111  234 1    
   223  112  113 2    
   224  112  114 am   BACKBONE|DICT|INTERRES
   225  114  115 1    
   226  114  235 1    
   227  115  116 1    
   228  115  117 1    
   229  115  236 1    
   230  116  237 1    
   231  116  238 1    
   232  116  239 1    
   233  117  118 2    
   234  117  119 am   BACKBONE|DICT|INTERRES
   235  119  120 1    
   236  119  240 1    
   237  120  121 1    
   238  120  124 1    
   239  120  241 1    
   240  121  122 am   BACKBONE|DICT|INTERRES
   241  121  123 2    
   242  122  242 1    
   243  122  243 1    
   244  124  125 1    
   245  124  244 1    
   246  124  245 1    
   247  125  126 1    
   248  126  246 1    
   249  126  247 1    
@<TRIPOS>SUBSTRUCTURE
     1 UNK         1 GROUP             0       ****    0 ROOT    
