@<TRIPOS>MOLECULE
3R540
247   249    1
SMALL
USER_CHARGES


@<TRIPOS>ATOM
      1 CA         -2.2046  -13.3728  -44.5316 C.3       0 UNK        -0.1800 
      2 C          -0.9661  -13.4645  -45.4108 C.2       0 UNK         0.5000 
      3 O          -0.1661  -14.3903  -45.2658 O.2       0 UNK        -0.5000 
      4 N          -0.8128  -12.4872  -46.3104 N.am      1 UNK        -0.5000 
      5 CA          0.2138  -12.3464  -47.3542 C.3       1 UNK         0.1400 
      6 C6          0.2370  -13.5097  -48.3807 C.3       23 UNK        -0.0398 
      7 S7         -1.3559  -13.6679  -49.2620 S.3       23 UNK        -0.2404 
      8 C8         -1.7586  -15.4241  -49.0128 C.3       23 UNK        -0.0205 
      9 C9         -1.0188  -16.3116  -50.0020 C.ar      23 UNK        -0.0193 
     10 C10        -1.5456  -16.5329  -51.2772 C.ar      23 UNK        -0.1150 
     11 C11        -0.8855  -17.3652  -52.1859 C.ar      23 UNK        -0.0193 
     12 C12         0.3176  -17.9727  -51.8099 C.ar      23 UNK        -0.1150 
     13 C13         0.8556  -17.7605  -50.5370 C.ar      23 UNK        -0.0193 
     14 C14         0.1794  -16.9294  -49.6389 C.ar      23 UNK        -0.1150 
     15 C15         2.1475  -18.4531  -50.1128 C.3       23 UNK        -0.0205 
     16 S16         2.0420  -20.2754  -50.1631 S.3       23 UNK        -0.2404 
     17 C17         0.3987  -20.5764  -49.4363 C.3       23 UNK        -0.0398 
     18 CA          0.3338  -21.8507  -48.5592 C.3       11 UNK         0.1400 
     19 N           1.0315  -21.6638  -47.2905 N.am      11 UNK        -0.5000 
     20 C           1.6650  -22.6202  -46.6025 C.2       10 UNK         0.5000 
     21 O           1.7064  -23.8031  -46.9411 O.2       10 UNK        -0.5000 
     22 CA          2.3929  -22.1699  -45.3227 C.3       10 UNK         0.1400 
     23 CB          3.6981  -21.4328  -45.6633 C.3       10 UNK        -0.1800 
     24 N           1.5539  -21.3109  -44.4893 N.am      10 UNK        -0.5000 
     25 C           0.5655  -21.7591  -43.7044 C.2       9 UNK         0.5000 
     26 O           0.3071  -22.9527  -43.5494 O.2       9 UNK        -0.5000 
     27 CA         -0.2828  -20.7008  -42.9714 C.3       9 UNK         0.1400 
     28 CB          0.3337  -20.3619  -41.6063 C.3       9 UNK        -0.1800 
     29 N          -0.4689  -19.4741  -43.7484 N.am      9 UNK        -0.5000 
     30 C          -1.1613  -19.4039  -44.8939 C.2       8 UNK         0.5000 
     31 O          -1.7737  -20.3552  -45.3777 O.2       8 UNK        -0.5000 
     32 CA         -1.1390  -18.0614  -45.6509 C.3       8 UNK         0.1400 
     33 CB         -2.2569  -17.1408  -45.1475 C.3       8 UNK        -0.1800 
     34 N           0.1519  -17.3709  -45.5706 N.am      8 UNK        -0.5000 
     35 C           1.2950  -17.8669  -46.0651 C.2       7 UNK         0.5000 
     36 O           1.3586  -18.9260  -46.6854 O.2       7 UNK        -0.5000 
     37 CA          2.5911  -17.0952  -45.7702 C.3       7 UNK         0.1400 
     38 CB          2.7866  -15.9060  -46.7180 C.3       7 UNK        -0.1800 
     39 N           2.6521  -16.6481  -44.3803 N.am      7 UNK        -0.5000 
     40 C           2.8278  -17.4823  -43.3465 C.2       6 UNK         0.5000 
     41 O           2.9945  -18.6961  -43.4681 O.2       6 UNK        -0.5000 
     42 CA          2.7790  -16.8611  -41.9421 C.3       6 UNK         0.1400 
     43 CB          4.1512  -16.2916  -41.5556 C.3       6 UNK        -0.1800 
     44 N           1.7702  -15.8102  -41.8253 N.am      6 UNK        -0.5000 
     45 C           0.4467  -16.0087  -41.8654 C.2       5 UNK         0.5000 
     46 O          -0.0669  -17.1096  -42.0656 O.2       5 UNK        -0.5000 
     47 CA         -0.4388  -14.7633  -41.6554 C.3       5 UNK         0.1400 
     48 CB         -1.8966  -15.1076  -41.2856 C.3       5 UNK        -0.1800 
     49 N           0.1257  -13.7977  -40.7075 N.am      5 UNK        -0.5000 
     50 C           0.4015  -13.9863  -39.4094 C.2       4 UNK         0.5000 
     51 O           0.1721  -15.0339  -38.8027 O.2       4 UNK        -0.5000 
     52 CA          1.0844  -12.8034  -38.6882 C.3       4 UNK         0.1400 
     53 CB          1.4548  -13.1265  -37.2293 C.3       4 UNK        -0.1800 
     54 N           2.2950  -12.3831  -39.3967 N.am      4 UNK        -0.5000 
     55 C           2.3333  -11.5864  -40.4720 C.2       3 UNK         0.5000 
     56 O           1.3303  -11.0449  -40.9432 O.2       3 UNK        -0.5000 
     57 CA          3.7049  -11.3821  -41.1547 C.3       3 UNK         0.1400 
     58 CB          4.7772  -12.4045  -40.7171 C.3       3 UNK        -0.1800 
     59 N           3.6181  -11.3574  -42.6198 N.am      3 UNK        -0.5000 
     60 C           3.0601  -12.2767  -43.4207 C.2       2 UNK         0.5000 
     61 O           2.4867  -13.2970  -43.0290 O.2       2 UNK        -0.5000 
     62 CA          3.2200  -12.0384  -44.9255 C.3       2 UNK         0.1400 
     63 CB          4.4176  -12.8444  -45.4601 C.3       2 UNK        -0.1800 
     64 N           1.9865  -12.4163  -45.6110 N.am      2 UNK        -0.5000 
     65 C           1.6282  -12.0007  -46.8319 C.2       1 UNK         0.5000 
     66 O           2.3611  -11.3125  -47.5442 O.2       1 UNK        -0.5000 
     67 C          -1.1217  -22.2932  -48.3131 C.2       11 UNK         0.5000 
     68 O          -1.3912  -23.4918  -48.2369 O.2       11 UNK        -0.5000 
     69 N          -2.0408  -21.3181  -48.2561 N.am      12 UNK        -0.5000 
     70 CA         -3.4932  -21.4750  -48.3246 C.3       12 UNK         0.1400 
     71 CB         -4.1502  -20.0920  -48.2026 C.3       12 UNK        -0.1800 
     72 C          -4.1008  -22.4609  -47.3138 C.2       12 UNK         0.5000 
     73 O          -4.9938  -23.2220  -47.6845 O.2       12 UNK        -0.5000 
     74 N          -3.5890  -22.4660  -46.0779 N.am      13 UNK        -0.5000 
     75 CA         -4.0353  -23.3690  -45.0143 C.3       13 UNK         0.1400 
     76 CB         -3.4020  -22.9381  -43.6857 C.3       13 UNK        -0.1800 
     77 C          -3.7421  -24.8573  -45.2965 C.2       13 UNK         0.5000 
     78 O          -4.4589  -25.7161  -44.7808 O.2       13 UNK        -0.5000 
     79 N          -2.7130  -25.1360  -46.1075 N.am      14 UNK        -0.5000 
     80 CA         -2.3509  -26.4790  -46.5542 C.3       14 UNK         0.1400 
     81 CB         -0.8193  -26.6042  -46.5803 C.3       14 UNK        -0.1800 
     82 C          -2.9427  -26.7850  -47.9407 C.2       14 UNK         0.5000 
     83 O          -3.4250  -27.8965  -48.1610 O.2       14 UNK        -0.5000 
     84 N          -2.8811  -25.8050  -48.8531 N.am      15 UNK        -0.5000 
     85 CA         -3.2836  -25.9405  -50.2532 C.3       15 UNK         0.1400 
     86 CB         -2.7243  -24.7553  -51.0526 C.3       15 UNK        -0.1800 
     87 C          -4.8035  -26.0497  -50.4626 C.2       15 UNK         0.5000 
     88 O          -5.2243  -26.7680  -51.3694 O.2       15 UNK        -0.5000 
     89 N          -5.5829  -25.3366  -49.6336 N.am      16 UNK        -0.5000 
     90 CA         -7.0436  -25.1969  -49.6841 C.3       16 UNK         0.1400 
     91 CB         -7.7160  -26.5178  -49.2554 C.3       16 UNK        -0.1800 
     92 C          -7.5427  -24.6867  -51.0613 C.2       16 UNK         0.5000 
     93 O          -8.1566  -25.4513  -51.8056 O.2       16 UNK        -0.5000 
     94 N          -7.2823  -23.4278  -51.4418 N.am      17 UNK        -0.5000 
     95 CA         -6.6500  -22.3597  -50.6692 C.3       17 UNK         0.1400 
     96 CB         -7.7384  -21.5068  -49.9870 C.3       17 UNK        -0.1800 
     97 C          -5.6916  -21.5716  -51.5765 C.2       17 UNK         0.5000 
     98 O          -4.9206  -22.1882  -52.3139 O.2       17 UNK        -0.5000 
     99 N          -5.7397  -20.2330  -51.5262 N.am      18 UNK        -0.5000 
    100 CA        -4.8966  -19.3319  -52.3210 C.3       18 UNK         0.1400 
    101 CB        -5.1885  -17.8779  -51.9239 C.3       18 UNK        -0.1800 
    102 C         -5.0535  -19.5266  -53.8421 C.2       18 UNK         0.5000 
    103 O         -4.0706  -19.4259  -54.5742 O.2       18 UNK        -0.5000 
    104 N         -6.2720  -19.8721  -54.2796 N.am      19 UNK        -0.5000 
    105 CA        -6.5952  -20.2198  -55.6647 C.3       19 UNK         0.1400 
    106 CB        -8.1209  -20.3350  -55.8043 C.3       19 UNK        -0.1800 
    107 C         -5.9100  -21.5118  -56.1574 C.2       19 UNK         0.5000 
    108 O         -5.7168  -21.6628  -57.3639 O.2       19 UNK        -0.5000 
    109 N         -5.5532  -22.4115  -55.2293 N.am      20 UNK        -0.5000 
    110 CA        -4.7790  -23.6174  -55.5095 C.3       20 UNK         0.1400 
    111 CB        -5.1807  -24.7383  -54.5360 C.3       20 UNK        -0.1800 
    112 C         -3.2739  -23.3175  -55.4289 C.2       20 UNK         0.5000 
    113 O         -2.5407  -23.6679  -56.3541 O.2       20 UNK        -0.5000 
    114 N         -2.8447  -22.6481  -54.3472 N.am      21 UNK        -0.5000 
    115 CA        -1.4434  -22.3095  -54.0735 C.3       21 UNK         0.1400 
    116 CB        -1.3256  -21.6676  -52.6837 C.3       21 UNK        -0.1800 
    117 C         -0.7914  -21.4060  -55.1379 C.2       21 UNK         0.5000 
    118 O          0.3597  -21.6421  -55.5068 O.2       21 UNK        -0.5000 
    119 N         -1.5441  -20.4123  -55.6217 N.am      22 UNK        -0.5000 
    120 CA        -1.1476  -19.4945  -56.7024 C.3       22 UNK         0.1400 
    121 C         -1.7762  -19.8815  -58.0752 C.2       22 UNK         0.5000 
    122 N         -2.3508  -21.0680  -58.2380 N.am      22 UNK        -0.7600 
    123 O         -1.7271  -19.1027  -59.0235 O.2       22 UNK        -0.5000 
    124 C124       -1.4239  -18.0132  -56.3232 C.3       23 UNK        -0.0398 
    125 S125       -0.3809  -17.4275  -54.9410 S.3       23 UNK        -0.2404 
    126 C126       -1.5165  -17.6613  -53.5390 C.3       23 UNK        -0.0205 
    127 H127       -2.5093  -14.3602  -44.1890 H         1 UNK         0.0600 
    128 H128       -3.0416  -12.9364  -45.0769 H         1 UNK         0.0600 
    129 H129       -2.0039  -12.7522  -43.6586 H         1 UNK         0.0600 
    130 H130       -1.5072  -11.7535  -46.3245 H         1 UNK         0.3000 
    131 H131       -0.0933  -11.4563  -47.9061 H         1 UNK         0.0600 
    132 H132        0.4815  -14.4496  -47.8897 H         1 UNK         0.0800 
    133 H133        1.0118  -13.3476  -49.1320 H         1 UNK         0.0800 
    134 H134       -1.5352  -15.7164  -47.9860 H         1 UNK         0.0800 
    135 H135       -2.8339  -15.5584  -49.1380 H         1 UNK         0.0800 
    136 H136       -2.4797  -16.0649  -51.5541 H         1 UNK         0.1150 
    137 H137        0.8247  -18.6322  -52.5001 H         1 UNK         0.1150 
    138 H138        0.5755  -16.7714  -48.6485 H         1 UNK         0.1150 
    139 H139        2.9585  -18.1265  -50.7647 H         1 UNK         0.0800 
    140 H140        2.4299  -18.1580  -49.1023 H         1 UNK         0.0800 
    141 H141       -0.3017  -20.6346  -50.2693 H         1 UNK         0.0800 
    142 H142        0.0979  -19.7081  -48.8501 H         1 UNK         0.0800 
    143 H143        0.8131  -22.6598  -49.1150 H         1 UNK         0.0600 
    144 H144        1.0884  -20.7052  -46.9528 H         1 UNK         0.3000 
    145 H145        2.6542  -23.0639  -44.7524 H         1 UNK         0.0600 
    146 H146        4.2425  -21.1596  -44.7591 H         1 UNK         0.0600 
    147 H147        4.3561  -22.0628  -46.2630 H         1 UNK         0.0600 
    148 H148        3.5141  -20.5192  -46.2291 H         1 UNK         0.0600 
    149 H149        1.7272  -20.3149  -44.5358 H         1 UNK         0.3000 
    150 H150       -1.2685  -21.1310  -42.7910 H         1 UNK         0.0600 
    151 H151        0.4610  -21.2604  -41.0015 H         1 UNK         0.0600 
    152 H152       -0.3045  -19.6803  -41.0439 H         1 UNK         0.0600 
    153 H153        1.3129  -19.8951  -41.7104 H         1 UNK         0.0600 
    154 H154       -0.0649  -18.6256  -43.3643 H         1 UNK         0.3000 
    155 H155       -1.3324  -18.2788  -46.7034 H         1 UNK         0.0600 
    156 H156       -3.2243  -17.6436  -45.1808 H         1 UNK         0.0600 
    157 H157       -2.0817  -16.8301  -44.1181 H         1 UNK         0.0600 
    158 H158       -2.3374  -16.2462  -45.7632 H         1 UNK         0.0600 
    159 H159        0.1616  -16.4634  -45.1186 H         1 UNK         0.3000 
    160 H160        3.4185  -17.7870  -45.9440 H         1 UNK         0.0600 
    161 H161        2.1300  -15.0785  -46.4603 H         1 UNK         0.0600 
    162 H162        2.5947  -16.1795  -47.7545 H         1 UNK         0.0600 
    163 H163        3.8133  -15.5458  -46.6775 H         1 UNK         0.0600 
    164 H164        2.4924  -15.6674  -44.1939 H         1 UNK         0.3000 
    165 H165        2.5251  -17.6530  -41.2346 H         1 UNK         0.0600 
    166 H166        4.1436  -15.9023  -40.5375 H         1 UNK         0.0600 
    167 H167        4.9207  -17.0632  -41.6025 H         1 UNK         0.0600 
    168 H168        4.4541  -15.4851  -42.2247 H         1 UNK         0.0600 
    169 H169        2.1053  -14.8537  -41.7904 H         1 UNK         0.3000 
    170 H170       -0.4457  -14.2535  -42.6148 H         1 UNK         0.0600 
    171 H171       -1.9566  -15.6598  -40.3475 H         1 UNK         0.0600 
    172 H172       -2.5004  -14.2060  -41.1845 H         1 UNK         0.0600 
    173 H173       -2.3642  -15.7237  -42.0529 H         1 UNK         0.0600 
    174 H174        0.3944  -12.9029  -41.1034 H         1 UNK         0.3000 
    175 H175        0.3702  -11.9774  -38.6735 H         1 UNK         0.0600 
    176 H176        1.9020  -12.2633  -36.7362 H         1 UNK         0.0600 
    177 H177        2.1635  -13.9532  -37.1665 H         1 UNK         0.0600 
    178 H178        0.5714  -13.4048  -36.6533 H         1 UNK         0.0600 
    179 H179        3.1567  -12.8108  -39.0904 H         1 UNK         0.3000 
    180 H180        4.0469  -10.3919  -40.8511 H         1 UNK         0.0600 
    181 H181        4.4661  -13.4282  -40.9223 H         1 UNK         0.0600 
    182 H182        4.9960  -12.3254  -39.6518 H         1 UNK         0.0600 
    183 H183        5.7161  -12.2349  -41.2442 H         1 UNK         0.0600 
    184 H184        4.0387  -10.5480  -43.0540 H         1 UNK         0.3000 
    185 H185        3.3984  -10.9747  -45.0968 H         1 UNK         0.0600 
    186 H186        5.3512  -12.4722  -45.0373 H         1 UNK         0.0600 
    187 H187        4.3411  -13.8973  -45.1904 H         1 UNK         0.0600 
    188 H188        4.5040  -12.7769  -46.5443 H         1 UNK         0.0600 
    189 H189        1.3472  -12.9997  -45.0804 H         1 UNK         0.3000 
    190 H190       -1.7148  -20.3647  -48.2486 H         1 UNK         0.3000 
    191 H191       -3.7140  -21.8647  -49.3190 H         1 UNK         0.0600 
    192 H192       -3.8421  -19.4345  -49.0161 H         1 UNK         0.0600 
    193 H193       -5.2370  -20.1670  -48.2407 H         1 UNK         0.0600 
    194 H194       -3.8897  -19.6069  -47.2609 H         1 UNK         0.0600 
    195 H195       -2.8593  -21.7937  -45.8471 H         1 UNK         0.3000 
    196 H196       -5.1181  -23.2614  -44.9226 H         1 UNK         0.0600 
    197 H197       -3.7859  -23.5348  -42.8575 H         1 UNK         0.0600 
    198 H198       -3.6162  -21.8926  -43.4635 H         1 UNK         0.0600 
    199 H199       -2.3211  -23.0667  -43.7080 H         1 UNK         0.0600 
    200 H200       -2.1999  -24.3689  -46.5267 H         1 UNK         0.3000 
    201 H201       -2.7329  -27.2249  -45.8540 H         1 UNK         0.0600 
    202 H202       -0.3944  -26.4342  -45.5909 H         1 UNK         0.0600 
    203 H203       -0.3643  -25.8863  -47.2641 H         1 UNK         0.0600 
    204 H204       -0.5140  -27.6013  -46.8995 H         1 UNK         0.0600 
    205 H205       -2.4203  -24.9342  -48.5980 H         1 UNK         0.3000 
    206 H206       -2.8300  -26.8537  -50.6443 H         1 UNK         0.0600 
    207 H207       -1.6395  -24.6956  -50.9626 H         1 UNK         0.0600 
    208 H208       -2.9573  -24.8509  -52.1136 H         1 UNK         0.0600 
    209 H209       -3.1439  -23.8096  -50.7090 H         1 UNK         0.0600 
    210 H210       -5.1298  -24.7722  -48.9215 H         1 UNK         0.3000 
    211 H211       -7.3193  -24.4495  -48.9395 H         1 UNK         0.0600 
    212 H212       -7.4872  -27.3352  -49.9398 H         1 UNK         0.0600 
    213 H213       -8.8008  -26.4103  -49.2252 H         1 UNK         0.0600 
    214 H214       -7.3912  -26.8172  -48.2588 H         1 UNK         0.0600 
    215 H215       -7.5555  -23.1614  -52.3756 H         1 UNK         0.3000 
    216 H216       -6.0105  -22.7738  -49.8982 H         1 UNK         0.0600 
    217 H217       -8.3710  -22.1214  -49.3464 H         1 UNK         0.0600 
    218 H218       -7.3065  -20.7349  -49.3501 H         1 UNK         0.0600 
    219 H219       -8.3870  -21.0196  -50.7163 H         1 UNK         0.0600 
    220 H220       -6.4048  -19.7941  -50.9061 H         1 UNK         0.3000 
    221 H221       -3.8571  -19.5454  -52.0683 H         1 UNK         0.0600 
    222 H222       -6.2353  -17.6182  -52.0862 H         1 UNK         0.0600 
    223 H223       -4.9565  -17.7024  -50.8733 H         1 UNK         0.0600 
    224 H224       -4.5852  -17.1827  -52.5083 H         1 UNK         0.0600 
    225 H225       -7.0242  -19.9303  -53.6095 H         1 UNK         0.3000 
    226 H226       -6.2521  -19.4041  -56.3047 H         1 UNK         0.0600 
    227 H227       -8.6139  -19.4008  -55.5350 H         1 UNK         0.0600 
    228 H228       -8.4029  -20.5643  -56.8328 H         1 UNK         0.0600 
    229 H229       -8.5247  -21.1247  -55.1696 H         1 UNK         0.0600 
    230 H230       -5.6877  -22.1864  -54.2525 H         1 UNK         0.3000 
    231 H231       -4.9993  -23.9676  -56.5202 H         1 UNK         0.0600 
    232 H232       -4.6293  -25.6545  -54.7498 H         1 UNK         0.0600 
    233 H233       -6.2421  -24.9717  -54.6212 H         1 UNK         0.0600 
    234 H234       -4.9833  -24.4779  -53.4970 H         1 UNK         0.0600 
    235 H235       -3.5209  -22.4076  -53.6285 H         1 UNK         0.3000 
    236 H236       -0.8810  -23.2452  -54.0575 H         1 UNK         0.0600 
    237 H237       -1.5986  -22.3665  -51.8960 H         1 UNK         0.0600 
    238 H238       -0.2999  -21.3486  -52.4929 H         1 UNK         0.0600 
    239 H239       -1.9663  -20.7936  -52.5865 H         1 UNK         0.0600 
    240 H240       -2.4839  -20.2767  -55.2592 H         1 UNK         0.3000 
    241 H241       -0.0723  -19.5788  -56.8670 H         1 UNK         0.0600 
    242 H242       -2.3649  -21.7472  -57.4898 H         1 UNK         0.3800 
    243 H243       -2.7558  -21.3023  -59.1304 H         1 UNK         0.3800 
    244 H244       -1.2100  -17.3557  -57.1672 H         1 UNK         0.0800 
    245 H245       -2.4786  -17.8632  -56.0890 H         1 UNK         0.0800 
    246 H246       -2.4025  -17.0458  -53.6991 H         1 UNK         0.0800 
    247 H247       -1.8510  -18.6949  -53.5250 H         1 UNK         0.0800 
@<TRIPOS>BOND
     1    1    2 1    
     2    1  127 1    
     3    1  128 1    
     4    1  129 1    
     5    2    3 2    
     6    2    4 am   BACKBONE|DICT|INTERRES
     7    4    5 1    
     8    4  130 1    
     9    5    6 1    
    10    5   65 1    
    11    5  131 1    
    12    6    7 1    
    13    6  132 1    
    14    6  133 1    
    15    7    8 1    
    16    8    9 1    
    17    8  134 1    
    18    8  135 1    
    19    9   10 ar   
    20    9   14 ar   
    21   10   11 ar   
    22   10  136 1    
    23   11   12 ar   
    24   11  126 1    
    25   12   13 ar   
    26   12  137 1    
    27   13   14 ar   
    28   13   15 1    
    29   14  138 1    
    30   15   16 1    
    31   15  139 1    
    32   15  140 1    
    33   16   17 1    
    34   17   18 1    
    35   17  141 1    
    36   17  142 1    
    37   18   19 1    
    38   18   67 1    
    39   18  143 1    
    40   19   20 am   BACKBONE|DICT|INTERRES
    41   19  144 1    
    42   20   21 2    
    43   20   22 1    
    44   22   23 1    
    45   22   24 1    
    46   22  145 1    
    47   23  146 1    
    48   23  147 1    
    49   23  148 1    
    50   24   25 am   BACKBONE|DICT|INTERRES
    51   24  149 1    
    52   25   26 2    
    53   25   27 1    
    54   27   28 1    
    55   27   29 1    
    56   27  150 1    
    57   28  151 1    
    58   28  152 1    
    59   28  153 1    
    60   29   30 am   BACKBONE|DICT|INTERRES
    61   29  154 1    
    62   30   31 2    
    63   30   32 1    
    64   32   33 1    
    65   32   34 1    
    66   32  155 1    
    67   33  156 1    
    68   33  157 1    
    69   33  158 1    
    70   34   35 am   BACKBONE|DICT|INTERRES
    71   34  159 1    
    72   35   36 2    
    73   35   37 1    
    74   37   38 1    
    75   37   39 1    
    76   37  160 1    
    77   38  161 1    
    78   38  162 1    
    79   38  163 1    
    80   39   40 am   BACKBONE|DICT|INTERRES
    81   39  164 1    
    82   40   41 2    
    83   40   42 1    
    84   42   43 1    
    85   42   44 1    
    86   42  165 1    
    87   43  166 1    
    88   43  167 1    
    89   43  168 1    
    90   44   45 am   BACKBONE|DICT|INTERRES
    91   44  169 1    
    92   45   46 2    
    93   45   47 1    
    94   47   48 1    
    95   47   49 1    
    96   47  170 1    
    97   48  171 1    
    98   48  172 1    
    99   48  173 1    
   100   49   50 am   BACKBONE|DICT|INTERRES
   101   49  174 1    
   102   50   51 2    
   103   50   52 1    
   104   52   53 1    
   105   52   54 1    
   106   52  175 1    
   107   53  176 1    
   108   53  177 1    
   109   53  178 1    
   110   54   55 am   BACKBONE|DICT|INTERRES
   111   54  179 1    
   112   55   56 2    
   113   55   57 1    
   114   57   58 1    
   115   57   59 1    
   116   57  180 1    
   117   58  181 1    
   118   58  182 1    
   119   58  183 1    
   120   59   60 am   BACKBONE|DICT|INTERRES
   121   59  184 1    
   122   60   61 2    
   123   60   62 1    
   124   62   63 1    
   125   62   64 1    
   126   62  185 1    
   127   63  186 1    
   128   63  187 1    
   129   63  188 1    
   130   64   65 am   BACKBONE|DICT|INTERRES
   131   64  189 1    
   132   65   66 2    
   133   67   68 2    
   134   67   69 am   BACKBONE|DICT|INTERRES
   135   69   70 1    
   136   69  190 1    
   137   70   71 1    
   138   70   72 1    
   139   70  191 1    
   140   71  192 1    
   141   71  193 1    
   142   71  194 1    
   143   72   73 2    
   144   72   74 am   BACKBONE|DICT|INTERRES
   145   74   75 1    
   146   74  195 1    
   147   75   76 1    
   148   75   77 1    
   149   75  196 1    
   150   76  197 1    
   151   76  198 1    
   152   76  199 1    
   153   77   78 2    
   154   77   79 am   BACKBONE|DICT|INTERRES
   155   79   80 1    
   156   79  200 1    
   157   80   81 1    
   158   80   82 1    
   159   80  201 1    
   160   81  202 1    
   161   81  203 1    
   162   81  204 1    
   163   82   83 2    
   164   82   84 am   BACKBONE|DICT|INTERRES
   165   84   85 1    
   166   84  205 1    
   167   85   86 1    
   168   85   87 1    
   169   85  206 1    
   170   86  207 1    
   171   86  208 1    
   172   86  209 1    
   173   87   88 2    
   174   87   89 am   BACKBONE|DICT|INTERRES
   175   89   90 1    
   176   89  210 1    
   177   90   91 1    
   178   90   92 1    
   179   90  211 1    
   180   91  212 1    
   181   91  213 1    
   182   91  214 1    
   183   92   93 2    
   184   92   94 am   BACKBONE|DICT|INTERRES
   185   94   95 1    
   186   94  215 1    
   187   95   96 1    
   188   95   97 1    
   189   95  216 1    
   190   96  217 1    
   191   96  218 1    
   192   96  219 1    
   193   97   98 2    
   194   97   99 am   BACKBONE|DICT|INTERRES
   195   99  100 1    
   196   99  220 1    
   197  100  101 1    
   198  100  102 1    
   199  100  221 1    
   200  101  222 1    
   201  101  223 1    
   202  101  224 1    
   203  102  103 2    
   204  102  104 am   BACKBONE|DICT|INTERRES
   205  104  105 1    
   206  104  225 1    
   207  105  106 1    
   208  105  107 1    
   209  105  226 1    
   210  106  227 1    
   211  106  228 1    
   212  106  229 1    
   213  107  108 2    
   214  107  109 am   BACKBONE|DICT|INTERRES
   215  109  110 1    
   216  109  230 1    
   217  110  111 1    
   218  110  112 1    
   219  110  231 1    
   220  111  232 1    
   221  111  233 1    
   222  111  234 1    
   223  112  113 2    
   224  112  114 am   BACKBONE|DICT|INTERRES
   225  114  115 1    
   226  114  235 1    
   227  115  116 1    
   228  115  117 1    
   229  115  236 1    
   230  116  237 1    
   231  116  238 1    
   232  116  239 1    
   233  117  118 2    
   234  117  119 am   BACKBONE|DICT|INTERRES
   235  119  120 1    
   236  119  240 1    
   237  120  121 1    
   238  120  124 1    
   239  120  241 1    
   240  121  122 am   BACKBONE|DICT|INTERRES
   241  121  123 2    
   242  122  242 1    
   243  122  243 1    
   244  124  125 1    
   245  124  244 1    
   246  124  245 1    
   247  125  126 1    
   248  126  246 1    
   249  126  247 1    
@<TRIPOS>SUBSTRUCTURE
     1 UNK         1 GROUP             0       ****    0 ROOT    
