@<TRIPOS>MOLECULE
3R540
247   249    1
SMALL
USER_CHARGES


@<TRIPOS>ATOM
      1 CA          3.5863  -15.3341  -48.0271 C.3       0 UNK        -0.1800 
      2 C           2.2926  -15.0544  -47.2777 C.2       0 UNK         0.5000 
      3 O           2.1332  -15.4967  -46.1418 O.2       0 UNK        -0.5000 
      4 N           1.3772  -14.2969  -47.8943 N.am      1 UNK        -0.5000 
      5 CA          0.0099  -14.0323  -47.4143 C.3       1 UNK         0.1400 
      6 C6         -0.8962  -13.4292  -48.5224 C.3       23 UNK        -0.0398 
      7 S7         -0.7798  -14.2999  -50.1238 S.3       23 UNK        -0.2404 
      8 C8         -1.8742  -15.7264  -49.8477 C.3       23 UNK        -0.0205 
      9 C9         -1.5290  -16.8533  -50.8075 C.ar      23 UNK        -0.0193 
     10 C10        -2.3079  -17.0957  -51.9429 C.ar      23 UNK        -0.1150 
     11 C11        -1.9682  -18.1242  -52.8276 C.ar      23 UNK        -0.0193 
     12 C12        -0.8416  -18.9109  -52.5684 C.ar      23 UNK        -0.1150 
     13 C13        -0.0604  -18.6847  -51.4302 C.ar      23 UNK        -0.0193 
     14 C14        -0.4118  -17.6535  -50.5559 C.ar      23 UNK        -0.1150 
     15 C15         1.1618  -19.5450  -51.1251 C.3       23 UNK        -0.0205 
     16 S16         0.8843  -21.3438  -51.2882 S.3       23 UNK        -0.2404 
     17 C17        -0.7043  -21.6194  -50.4333 C.3       23 UNK        -0.0398 
     18 CA         -0.5523  -22.1825  -49.0031 C.3       11 UNK         0.1400 
     19 N           0.0340  -21.1836  -48.1074 N.am      11 UNK        -0.5000 
     20 C           0.4197  -21.3779  -46.8406 C.2       10 UNK         0.5000 
     21 O           0.3217  -22.4563  -46.2534 O.2       10 UNK        -0.5000 
     22 CA          0.9631  -20.1443  -46.0856 C.3       10 UNK         0.1400 
     23 CB          1.3890  -18.9795  -47.0053 C.3       10 UNK        -0.1800 
     24 N           0.0283  -19.6455  -45.0742 N.am      10 UNK        -0.5000 
     25 C          -1.2839  -19.3998  -45.2207 C.2       9 UNK         0.5000 
     26 O          -1.9104  -19.5772  -46.2655 O.2       9 UNK        -0.5000 
     27 CA         -2.0156  -18.8290  -43.9906 C.3       9 UNK         0.1400 
     28 CB         -2.3845  -19.9543  -43.0106 C.3       9 UNK        -0.1800 
     29 N          -1.2220  -17.8218  -43.2870 N.am      9 UNK        -0.5000 
     30 C          -0.8167  -16.6623  -43.8238 C.2       8 UNK         0.5000 
     31 O          -1.1966  -16.2558  -44.9213 O.2       8 UNK        -0.5000 
     32 CA          0.1800  -15.8125  -43.0106 C.3       8 UNK         0.1400 
     33 CB         -0.5361  -14.6028  -42.3939 C.3       8 UNK        -0.1800 
     34 N           0.8977  -16.5185  -41.9436 N.am      8 UNK        -0.5000 
     35 C           1.6949  -17.5896  -42.0807 C.2       7 UNK         0.5000 
     36 O           1.8444  -18.1969  -43.1415 O.2       7 UNK        -0.5000 
     37 CA          2.4293  -18.0842  -40.8199 C.3       7 UNK         0.1400 
     38 CB          3.9060  -18.4066  -41.1111 C.3       7 UNK        -0.1800 
     39 N           2.3574  -17.1109  -39.7253 N.am      7 UNK        -0.5000 
     40 C           1.6179  -17.2622  -38.6182 C.2       6 UNK         0.5000 
     41 O           0.8927  -18.2360  -38.4114 O.2       6 UNK        -0.5000 
     42 CA          1.6926  -16.1525  -37.5529 C.3       6 UNK         0.1400 
     43 CB          2.7757  -16.4839  -36.5149 C.3       6 UNK        -0.1800 
     44 N           1.9512  -14.8171  -38.0886 N.am      6 UNK        -0.5000 
     45 C           1.1002  -14.0793  -38.8098 C.2       5 UNK         0.5000 
     46 O          -0.0033  -14.4869  -39.1702 O.2       5 UNK        -0.5000 
     47 CA          1.5467  -12.6508  -39.1994 C.3       5 UNK         0.1400 
     48 CB          1.2750  -11.6533  -38.0583 C.3       5 UNK        -0.1800 
     49 N           2.9321  -12.5550  -39.6797 N.am      5 UNK        -0.5000 
     50 C           4.0764  -12.8266  -39.0322 C.2       4 UNK         0.5000 
     51 O           4.1346  -13.0583  -37.8232 O.2       4 UNK        -0.5000 
     52 CA          5.3628  -12.9182  -39.8857 C.3       4 UNK         0.1400 
     53 CB          6.3360  -13.9862  -39.3442 C.3       4 UNK        -0.1800 
     54 N           5.1260  -13.1439  -41.3189 N.am      4 UNK        -0.5000 
     55 C           4.4317  -14.1413  -41.8887 C.2       3 UNK         0.5000 
     56 O           3.8518  -15.0280  -41.2595 O.2       3 UNK        -0.5000 
     57 CA          4.3334  -14.0979  -43.4256 C.3       3 UNK         0.1400 
     58 CB          4.5771  -15.4920  -44.0260 C.3       3 UNK        -0.1800 
     59 N           3.0613  -13.5653  -43.9340 N.am      3 UNK        -0.5000 
     60 C           2.4692  -12.4103  -43.5768 C.2       2 UNK         0.5000 
     61 O           2.8812  -11.6853  -42.6703 O.2       2 UNK        -0.5000 
     62 CA          1.2210  -11.9645  -44.3678 C.3       2 UNK         0.1400 
     63 CB          1.2403  -10.4565  -44.6773 C.3       2 UNK        -0.1800 
     64 N           1.0773  -12.7059  -45.6193 N.am      2 UNK        -0.5000 
     65 C          -0.0692  -13.1808  -46.1216 C.2       1 UNK         0.5000 
     66 O          -1.1688  -12.9620  -45.6123 O.2       1 UNK        -0.5000 
     67 C          -1.9149  -22.7267  -48.5194 C.2       11 UNK         0.5000 
     68 O          -2.2865  -23.8320  -48.9179 O.2       11 UNK        -0.5000 
     69 N          -2.6518  -21.9721  -47.6882 N.am      12 UNK        -0.5000 
     70 CA         -3.9677  -22.3639  -47.1697 C.3       12 UNK         0.1400 
     71 CB         -4.6344  -21.1763  -46.4612 C.3       12 UNK        -0.1800 
     72 C          -3.9212  -23.5909  -46.2421 C.2       12 UNK         0.5000 
     73 O          -4.9139  -24.3127  -46.1576 O.2       12 UNK        -0.5000 
     74 N          -2.7601  -23.8514  -45.6230 N.am      13 UNK        -0.5000 
     75 CA         -2.4919  -25.0512  -44.8251 C.3       13 UNK         0.1400 
     76 CB         -1.1440  -24.8821  -44.1086 C.3       13 UNK        -0.1800 
     77 C          -2.5053  -26.3524  -45.6564 C.2       13 UNK         0.5000 
     78 O          -2.7882  -27.4175  -45.1072 O.2       13 UNK        -0.5000 
     79 N          -2.2244  -26.2377  -46.9617 N.am      14 UNK        -0.5000 
     80 CA         -2.2813  -27.3216  -47.9440 C.3       14 UNK         0.1400 
     81 CB         -1.0097  -27.2470  -48.8071 C.3       14 UNK        -0.1800 
     82 C          -3.5414  -27.2338  -48.8314 C.2       14 UNK         0.5000 
     83 O          -3.6837  -28.0422  -49.7489 O.2       14 UNK        -0.5000 
     84 N          -4.4042  -26.2347  -48.5789 N.am      15 UNK        -0.5000 
     85 CA         -5.5774  -25.8242  -49.3648 C.3       15 UNK         0.1400 
     86 CB         -6.6407  -26.9393  -49.4120 C.3       15 UNK        -0.1800 
     87 C          -5.2367  -25.2823  -50.7721 C.2       15 UNK         0.5000 
     88 O          -6.1391  -25.0748  -51.5845 O.2       15 UNK        -0.5000 
     89 N          -3.9516  -25.0118  -51.0343 N.am      16 UNK        -0.5000 
     90 CA         -3.4420  -24.5196  -52.3127 C.3       16 UNK         0.1400 
     91 CB         -1.9290  -24.7775  -52.3851 C.3       16 UNK        -0.1800 
     92 C          -3.8008  -23.0444  -52.5739 C.2       16 UNK         0.5000 
     93 O          -3.8915  -22.6391  -53.7334 O.2       16 UNK        -0.5000 
     94 N          -4.0520  -22.2779  -51.5012 N.am      17 UNK        -0.5000 
     95 CA         -4.5853  -20.9160  -51.5798 C.3       17 UNK         0.1400 
     96 CB         -4.4751  -20.2193  -50.2160 C.3       17 UNK        -0.1800 
     97 C          -6.0444  -20.9035  -52.0693 C.2       17 UNK         0.5000 
     98 O          -6.3964  -20.0737  -52.9063 O.2       17 UNK        -0.5000 
     99 N          -6.8506  -21.8533  -51.5707 N.am      18 UNK        -0.5000 
    100 CA        -8.2490  -22.0520  -51.9602 C.3       18 UNK         0.1400 
    101 CB        -8.9380  -22.9759  -50.9441 C.3       18 UNK        -0.1800 
    102 C         -8.3833  -22.6066  -53.3901 C.2       18 UNK         0.5000 
    103 O         -9.3079  -22.2241  -54.1074 O.2       18 UNK        -0.5000 
    104 N         -7.4296  -23.4586  -53.7929 N.am      19 UNK        -0.5000 
    105 CA        -7.2770  -23.9620  -55.1607 C.3       19 UNK         0.1400 
    106 CB        -6.3376  -25.1773  -55.1398 C.3       19 UNK        -0.1800 
    107 C         -6.7519  -22.9002  -56.1524 C.2       19 UNK         0.5000 
    108 O         -6.8054  -23.1344  -57.3602 O.2       19 UNK        -0.5000 
    109 N         -6.2520  -21.7697  -55.6291 N.am      20 UNK        -0.5000 
    110 CA        -5.6661  -20.6305  -56.3384 C.3       20 UNK         0.1400 
    111 CB        -6.7229  -19.9128  -57.2028 C.3       20 UNK        -0.1800 
    112 C         -4.3931  -21.0115  -57.1194 C.2       20 UNK         0.5000 
    113 O         -4.2086  -20.5805  -58.2598 O.2       20 UNK        -0.5000 
    114 N         -3.5146  -21.7954  -56.4751 N.am      21 UNK        -0.5000 
    115 CA        -2.2414  -22.2793  -57.0257 C.3       21 UNK         0.1400 
    116 CB        -1.5974  -23.2382  -56.0140 C.3       21 UNK        -0.1800 
    117 C         -1.2489  -21.1597  -57.4052 C.2       21 UNK         0.5000 
    118 O         -0.3654  -21.3812  -58.2339 O.2       21 UNK        -0.5000 
    119 N         -1.4300  -19.9784  -56.8050 N.am      22 UNK        -0.5000 
    120 CA        -0.7429  -18.7255  -57.1388 C.3       22 UNK         0.1400 
    121 C         -1.1882  -18.0707  -58.4826 C.2       22 UNK         0.5000 
    122 N         -2.2550  -18.5220  -59.1341 N.am      22 UNK        -0.7600 
    123 O         -0.5395  -17.1399  -58.9525 O.2       22 UNK        -0.5000 
    124 C124       -0.8012  -17.7269  -55.9529 C.3       23 UNK        -0.0398 
    125 S125       -2.4972  -17.2682  -55.4312 S.3       23 UNK        -0.2404 
    126 C126       -2.8335  -18.4059  -54.0471 C.3       23 UNK        -0.0205 
    127 H127        3.5401  -14.9832  -49.0583 H         1 UNK         0.0600 
    128 H128        3.7840  -16.4060  -48.0422 H         1 UNK         0.0600 
    129 H129        4.4219  -14.8382  -47.5338 H         1 UNK         0.0600 
    130 H130        1.5723  -13.9516  -48.8237 H         1 UNK         0.3000 
    131 H131       -0.4105  -15.0039  -47.1497 H         1 UNK         0.0600 
    132 H132       -1.9405  -13.4227  -48.2045 H         1 UNK         0.0800 
    133 H133       -0.6281  -12.3863  -48.7006 H         1 UNK         0.0800 
    134 H134       -2.9136  -15.4167  -49.9665 H         1 UNK         0.0800 
    135 H135       -1.7721  -16.0869  -48.8231 H         1 UNK         0.0800 
    136 H136       -3.1750  -16.4819  -52.1428 H         1 UNK         0.1150 
    137 H137       -0.5775  -19.7104  -53.2465 H         1 UNK         0.1150 
    138 H138        0.1907  -17.4582  -49.6800 H         1 UNK         0.1150 
    139 H139        1.5284  -19.3464  -50.1181 H         1 UNK         0.0800 
    140 H140        1.9666  -19.2554  -51.8018 H         1 UNK         0.0800 
    141 H141       -1.2608  -22.3062  -51.0665 H         1 UNK         0.0800 
    142 H142       -1.2989  -20.7085  -50.4158 H         1 UNK         0.0800 
    143 H143        0.1283  -23.0359  -49.0361 H         1 UNK         0.0600 
    144 H144        0.1165  -20.2515  -48.4834 H         1 UNK         0.3000 
    145 H145        1.8507  -20.4816  -45.5485 H         1 UNK         0.0600 
    146 H146        2.1060  -19.3086  -47.7579 H         1 UNK         0.0600 
    147 H147        1.8764  -18.1964  -46.4244 H         1 UNK         0.0600 
    148 H148        0.5395  -18.5235  -47.5144 H         1 UNK         0.0600 
    149 H149        0.4591  -19.3932  -44.1920 H         1 UNK         0.3000 
    150 H150       -2.9365  -18.3561  -44.3382 H         1 UNK         0.0600 
    151 H151       -1.4975  -20.4321  -42.5926 H         1 UNK         0.0600 
    152 H152       -2.9703  -20.7314  -43.5018 H         1 UNK         0.0600 
    153 H153       -2.9822  -19.5742  -42.1820 H         1 UNK         0.0600 
    154 H154       -0.8724  -18.0690  -42.3736 H         1 UNK         0.3000 
    155 H155        0.9277  -15.4479  -43.7156 H         1 UNK         0.0600 
    156 H156       -1.0950  -14.0461  -43.1461 H         1 UNK         0.0600 
    157 H157        0.1751  -13.9140  -41.9394 H         1 UNK         0.0600 
    158 H158       -1.2466  -14.9091  -41.6254 H         1 UNK         0.0600 
    159 H159        0.8293  -16.1106  -41.0218 H         1 UNK         0.3000 
    160 H160        1.9447  -19.0187  -40.5311 H         1 UNK         0.0600 
    161 H161        4.4472  -17.5388  -41.4865 H         1 UNK         0.0600 
    162 H162        3.9951  -19.1941  -41.8603 H         1 UNK         0.0600 
    163 H163        4.4163  -18.7564  -40.2137 H         1 UNK         0.0600 
    164 H164        2.9011  -16.2639  -39.8599 H         1 UNK         0.3000 
    165 H165        0.7283  -16.1255  -37.0411 H         1 UNK         0.0600 
    166 H166        2.6062  -17.4655  -36.0704 H         1 UNK         0.0600 
    167 H167        3.7705  -16.4920  -36.9624 H         1 UNK         0.0600 
    168 H168        2.7795  -15.7565  -35.7029 H         1 UNK         0.0600 
    169 H169        2.8349  -14.3825  -37.8356 H         1 UNK         0.3000 
    170 H170        0.9265  -12.3525  -40.0460 H         1 UNK         0.0600 
    171 H171        1.5328  -10.6366  -38.3546 H         1 UNK         0.0600 
    172 H172        1.8414  -11.8945  -37.1585 H         1 UNK         0.0600 
    173 H173        0.2189  -11.6549  -37.7861 H         1 UNK         0.0600 
    174 H174        3.0171  -12.3735  -40.6746 H         1 UNK         0.3000 
    175 H175        5.8510  -11.9464  -39.8024 H         1 UNK         0.0600 
    176 H176        5.8834  -14.9786  -39.3406 H         1 UNK         0.0600 
    177 H177        6.6406  -13.7612  -38.3215 H         1 UNK         0.0600 
    178 H178        7.2434  -14.0343  -39.9461 H         1 UNK         0.0600 
    179 H179        5.4996  -12.4288  -41.9276 H         1 UNK         0.3000 
    180 H180        5.1250  -13.4430  -43.7944 H         1 UNK         0.0600 
    181 H181        3.7462  -16.1683  -43.8234 H         1 UNK         0.0600 
    182 H182        5.4788  -15.9475  -43.6145 H         1 UNK         0.0600 
    183 H183        4.7086  -15.4392  -45.1060 H         1 UNK         0.0600 
    184 H184        2.6140  -14.1379  -44.6411 H         1 UNK         0.3000 
    185 H185        0.3667  -12.1641  -43.7197 H         1 UNK         0.0600 
    186 H186        1.2892   -9.8645  -43.7625 H         1 UNK         0.0600 
    187 H187        2.0988  -10.1854  -45.2927 H         1 UNK         0.0600 
    188 H188        0.3381  -10.1521  -45.2081 H         1 UNK         0.0600 
    189 H189        1.9307  -12.9123  -46.1188 H         1 UNK         0.3000 
    190 H190       -2.2866  -21.0801  -47.3601 H         1 UNK         0.3000 
    191 H191       -4.5894  -22.6339  -48.0254 H         1 UNK         0.0600 
    192 H192       -4.6514  -20.2894  -47.0945 H         1 UNK         0.0600 
    193 H193       -5.6670  -21.4101  -46.1993 H         1 UNK         0.0600 
    194 H194       -4.1171  -20.9166  -45.5390 H         1 UNK         0.0600 
    195 H195       -1.9816  -23.2217  -45.7676 H         1 UNK         0.3000 
    196 H196       -3.2748  -25.1349  -44.0685 H         1 UNK         0.0600 
    197 H197       -0.9326  -25.7381  -43.4665 H         1 UNK         0.0600 
    198 H198       -1.1405  -23.9933  -43.4772 H         1 UNK         0.0600 
    199 H199       -0.3205  -24.7924  -44.8182 H         1 UNK         0.0600 
    200 H200       -2.0171  -25.3196  -47.3350 H         1 UNK         0.3000 
    201 H201       -2.3011  -28.2919  -47.4441 H         1 UNK         0.0600 
    202 H202       -0.9745  -28.0632  -49.5298 H         1 UNK         0.0600 
    203 H203       -0.1124  -27.3220  -48.1926 H         1 UNK         0.0600 
    204 H204       -0.9556  -26.3113  -49.3654 H         1 UNK         0.0600 
    205 H205       -4.2142  -25.6559  -47.7711 H         1 UNK         0.3000 
    206 H206       -6.0140  -24.9835  -48.8242 H         1 UNK         0.0600 
    207 H207       -6.8765  -27.3017  -48.4114 H         1 UNK         0.0600 
    208 H208       -7.5702  -26.5742  -49.8507 H         1 UNK         0.0600 
    209 H209       -6.3131  -27.7899  -50.0100 H         1 UNK         0.0600 
    210 H210       -3.2763  -25.1173  -50.2869 H         1 UNK         0.3000 
    211 H211       -3.9074  -25.1014  -53.1091 H         1 UNK         0.0600 
    212 H212       -1.7290  -25.8399  -52.5259 H         1 UNK         0.0600 
    213 H213       -1.4693  -24.2505  -53.2209 H         1 UNK         0.0600 
    214 H214       -1.4139  -24.4743  -51.4752 H         1 UNK         0.0600 
    215 H215       -3.9536  -22.6919  -50.5865 H         1 UNK         0.3000 
    216 H216       -3.9819  -20.3566  -52.2958 H         1 UNK         0.0600 
    217 H217       -5.0811  -20.7177  -49.4602 H         1 UNK         0.0600 
    218 H218       -4.8217  -19.1870  -50.2812 H         1 UNK         0.0600 
    219 H219       -3.4477  -20.1858  -49.8593 H         1 UNK         0.0600 
    220 H220       -6.4695  -22.5206  -50.9181 H         1 UNK         0.3000 
    221 H221       -8.7507  -21.0823  -51.9316 H         1 UNK         0.0600 
    222 H222       -8.4858  -23.9677  -50.9235 H         1 UNK         0.0600 
    223 H223       -8.8872  -22.5625  -49.9367 H         1 UNK         0.0600 
    224 H224       -9.9931  -23.1038  -51.1892 H         1 UNK         0.0600 
    225 H225       -6.7599  -23.7910  -53.1081 H         1 UNK         0.3000 
    226 H226       -8.2560  -24.2914  -55.5147 H         1 UNK         0.0600 
    227 H227       -6.6588  -25.9192  -54.4082 H         1 UNK         0.0600 
    228 H228       -6.3156  -25.6679  -56.1136 H         1 UNK         0.0600 
    229 H229       -5.3154  -24.8857  -54.9016 H         1 UNK         0.0600 
    230 H230       -6.2454  -21.6924  -54.6213 H         1 UNK         0.3000 
    231 H231       -5.3462  -19.9276  -55.5679 H         1 UNK         0.0600 
    232 H232       -7.0558  -20.5313  -58.0367 H         1 UNK         0.0600 
    233 H233       -6.3215  -18.9892  -57.6215 H         1 UNK         0.0600 
    234 H234       -7.5990  -19.6462  -56.6114 H         1 UNK         0.0600 
    235 H235       -3.7386  -22.1052  -55.5314 H         1 UNK         0.3000 
    236 H236       -2.4673  -22.8382  -57.9359 H         1 UNK         0.0600 
    237 H237       -1.3457  -22.7236  -55.0859 H         1 UNK         0.0600 
    238 H238       -2.2653  -24.0650  -55.7710 H         1 UNK         0.0600 
    239 H239       -0.6772  -23.6687  -56.4113 H         1 UNK         0.0600 
    240 H240       -2.2000  -19.8940  -56.1613 H         1 UNK         0.3000 
    241 H241        0.3100  -18.9751  -57.2832 H         1 UNK         0.0600 
    242 H242       -2.8195  -19.2821  -58.7682 H         1 UNK         0.3800 
    243 H243       -2.5189  -18.0870  -60.0036 H         1 UNK         0.3800 
    244 H244       -0.2553  -18.1394  -55.1064 H         1 UNK         0.0800 
    245 H245       -0.2687  -16.8089  -56.2071 H         1 UNK         0.0800 
    246 H246       -3.8842  -18.3065  -53.7695 H         1 UNK         0.0800 
    247 H247       -2.7085  -19.4393  -54.3711 H         1 UNK         0.0800 
@<TRIPOS>BOND
     1    1    2 1    
     2    1  127 1    
     3    1  128 1    
     4    1  129 1    
     5    2    3 2    
     6    2    4 am   BACKBONE|DICT|INTERRES
     7    4    5 1    
     8    4  130 1    
     9    5    6 1    
    10    5   65 1    
    11    5  131 1    
    12    6    7 1    
    13    6  132 1    
    14    6  133 1    
    15    7    8 1    
    16    8    9 1    
    17    8  134 1    
    18    8  135 1    
    19    9   10 ar   
    20    9   14 ar   
    21   10   11 ar   
    22   10  136 1    
    23   11   12 ar   
    24   11  126 1    
    25   12   13 ar   
    26   12  137 1    
    27   13   14 ar   
    28   13   15 1    
    29   14  138 1    
    30   15   16 1    
    31   15  139 1    
    32   15  140 1    
    33   16   17 1    
    34   17   18 1    
    35   17  141 1    
    36   17  142 1    
    37   18   19 1    
    38   18   67 1    
    39   18  143 1    
    40   19   20 am   BACKBONE|DICT|INTERRES
    41   19  144 1    
    42   20   21 2    
    43   20   22 1    
    44   22   23 1    
    45   22   24 1    
    46   22  145 1    
    47   23  146 1    
    48   23  147 1    
    49   23  148 1    
    50   24   25 am   BACKBONE|DICT|INTERRES
    51   24  149 1    
    52   25   26 2    
    53   25   27 1    
    54   27   28 1    
    55   27   29 1    
    56   27  150 1    
    57   28  151 1    
    58   28  152 1    
    59   28  153 1    
    60   29   30 am   BACKBONE|DICT|INTERRES
    61   29  154 1    
    62   30   31 2    
    63   30   32 1    
    64   32   33 1    
    65   32   34 1    
    66   32  155 1    
    67   33  156 1    
    68   33  157 1    
    69   33  158 1    
    70   34   35 am   BACKBONE|DICT|INTERRES
    71   34  159 1    
    72   35   36 2    
    73   35   37 1    
    74   37   38 1    
    75   37   39 1    
    76   37  160 1    
    77   38  161 1    
    78   38  162 1    
    79   38  163 1    
    80   39   40 am   BACKBONE|DICT|INTERRES
    81   39  164 1    
    82   40   41 2    
    83   40   42 1    
    84   42   43 1    
    85   42   44 1    
    86   42  165 1    
    87   43  166 1    
    88   43  167 1    
    89   43  168 1    
    90   44   45 am   BACKBONE|DICT|INTERRES
    91   44  169 1    
    92   45   46 2    
    93   45   47 1    
    94   47   48 1    
    95   47   49 1    
    96   47  170 1    
    97   48  171 1    
    98   48  172 1    
    99   48  173 1    
   100   49   50 am   BACKBONE|DICT|INTERRES
   101   49  174 1    
   102   50   51 2    
   103   50   52 1    
   104   52   53 1    
   105   52   54 1    
   106   52  175 1    
   107   53  176 1    
   108   53  177 1    
   109   53  178 1    
   110   54   55 am   BACKBONE|DICT|INTERRES
   111   54  179 1    
   112   55   56 2    
   113   55   57 1    
   114   57   58 1    
   115   57   59 1    
   116   57  180 1    
   117   58  181 1    
   118   58  182 1    
   119   58  183 1    
   120   59   60 am   BACKBONE|DICT|INTERRES
   121   59  184 1    
   122   60   61 2    
   123   60   62 1    
   124   62   63 1    
   125   62   64 1    
   126   62  185 1    
   127   63  186 1    
   128   63  187 1    
   129   63  188 1    
   130   64   65 am   BACKBONE|DICT|INTERRES
   131   64  189 1    
   132   65   66 2    
   133   67   68 2    
   134   67   69 am   BACKBONE|DICT|INTERRES
   135   69   70 1    
   136   69  190 1    
   137   70   71 1    
   138   70   72 1    
   139   70  191 1    
   140   71  192 1    
   141   71  193 1    
   142   71  194 1    
   143   72   73 2    
   144   72   74 am   BACKBONE|DICT|INTERRES
   145   74   75 1    
   146   74  195 1    
   147   75   76 1    
   148   75   77 1    
   149   75  196 1    
   150   76  197 1    
   151   76  198 1    
   152   76  199 1    
   153   77   78 2    
   154   77   79 am   BACKBONE|DICT|INTERRES
   155   79   80 1    
   156   79  200 1    
   157   80   81 1    
   158   80   82 1    
   159   80  201 1    
   160   81  202 1    
   161   81  203 1    
   162   81  204 1    
   163   82   83 2    
   164   82   84 am   BACKBONE|DICT|INTERRES
   165   84   85 1    
   166   84  205 1    
   167   85   86 1    
   168   85   87 1    
   169   85  206 1    
   170   86  207 1    
   171   86  208 1    
   172   86  209 1    
   173   87   88 2    
   174   87   89 am   BACKBONE|DICT|INTERRES
   175   89   90 1    
   176   89  210 1    
   177   90   91 1    
   178   90   92 1    
   179   90  211 1    
   180   91  212 1    
   181   91  213 1    
   182   91  214 1    
   183   92   93 2    
   184   92   94 am   BACKBONE|DICT|INTERRES
   185   94   95 1    
   186   94  215 1    
   187   95   96 1    
   188   95   97 1    
   189   95  216 1    
   190   96  217 1    
   191   96  218 1    
   192   96  219 1    
   193   97   98 2    
   194   97   99 am   BACKBONE|DICT|INTERRES
   195   99  100 1    
   196   99  220 1    
   197  100  101 1    
   198  100  102 1    
   199  100  221 1    
   200  101  222 1    
   201  101  223 1    
   202  101  224 1    
   203  102  103 2    
   204  102  104 am   BACKBONE|DICT|INTERRES
   205  104  105 1    
   206  104  225 1    
   207  105  106 1    
   208  105  107 1    
   209  105  226 1    
   210  106  227 1    
   211  106  228 1    
   212  106  229 1    
   213  107  108 2    
   214  107  109 am   BACKBONE|DICT|INTERRES
   215  109  110 1    
   216  109  230 1    
   217  110  111 1    
   218  110  112 1    
   219  110  231 1    
   220  111  232 1    
   221  111  233 1    
   222  111  234 1    
   223  112  113 2    
   224  112  114 am   BACKBONE|DICT|INTERRES
   225  114  115 1    
   226  114  235 1    
   227  115  116 1    
   228  115  117 1    
   229  115  236 1    
   230  116  237 1    
   231  116  238 1    
   232  116  239 1    
   233  117  118 2    
   234  117  119 am   BACKBONE|DICT|INTERRES
   235  119  120 1    
   236  119  240 1    
   237  120  121 1    
   238  120  124 1    
   239  120  241 1    
   240  121  122 am   BACKBONE|DICT|INTERRES
   241  121  123 2    
   242  122  242 1    
   243  122  243 1    
   244  124  125 1    
   245  124  244 1    
   246  124  245 1    
   247  125  126 1    
   248  126  246 1    
   249  126  247 1    
@<TRIPOS>SUBSTRUCTURE
     1 UNK         1 GROUP             0       ****    0 ROOT    
