@<TRIPOS>MOLECULE
3R540
247   249    1
SMALL
USER_CHARGES


@<TRIPOS>ATOM
      1 CA          9.0794  -11.4032  -48.6067 C.3       0 UNK        -0.1800 
      2 C           8.1741  -12.5263  -48.1204 C.2       0 UNK         0.5000 
      3 O           8.6657  -13.5260  -47.5958 O.2       0 UNK        -0.5000 
      4 N           6.8565  -12.3699  -48.2984 N.am      1 UNK        -0.5000 
      5 CA          5.8310  -13.3076  -47.8367 C.3       1 UNK         0.1400 
      6 C6          4.4681  -13.0205  -48.5165 C.3       23 UNK        -0.0398 
      7 S7          3.2627  -14.3797  -48.3229 S.3       23 UNK        -0.2404 
      8 C8          3.1906  -15.0243  -50.0205 C.3       23 UNK        -0.0205 
      9 C9          2.1872  -16.1595  -50.1363 C.ar      23 UNK        -0.0193 
     10 C10         0.9001  -15.9208  -50.6256 C.ar      23 UNK        -0.1150 
     11 C11        -0.0196  -16.9650  -50.7565 C.ar      23 UNK        -0.0193 
     12 C12         0.3623  -18.2535  -50.3628 C.ar      23 UNK        -0.1150 
     13 C13         1.6507  -18.5159  -49.8799 C.ar      23 UNK        -0.0193 
     14 C14         2.5545  -17.4560  -49.7704 C.ar      23 UNK        -0.1150 
     15 C15         2.1122  -19.9146  -49.4620 C.3       23 UNK        -0.0205 
     16 S16         1.1590  -21.3036  -50.1616 S.3       23 UNK        -0.2404 
     17 C17        -0.2620  -21.3615  -49.0198 C.3       23 UNK        -0.0398 
     18 CA         -0.1892  -22.5879  -48.0863 C.3       11 UNK         0.1400 
     19 N           0.9461  -22.5293  -47.1623 N.am      11 UNK        -0.5000 
     20 C           1.4949  -23.6036  -46.5803 C.2       10 UNK         0.5000 
     21 O           1.0890  -24.7528  -46.7510 O.2       10 UNK        -0.5000 
     22 CA          2.6603  -23.3439  -45.6071 C.3       10 UNK         0.1400 
     23 CB          3.9783  -23.1792  -46.3783 C.3       10 UNK        -0.1800 
     24 N           2.4450  -22.1686  -44.7610 N.am      10 UNK        -0.5000 
     25 C           1.4411  -22.0415  -43.8829 C.2       9 UNK         0.5000 
     26 O           0.6134  -22.9255  -43.6647 O.2       9 UNK        -0.5000 
     27 CA          1.3031  -20.6897  -43.1581 C.3       9 UNK         0.1400 
     28 CB          2.0300  -20.7324  -41.8062 C.3       9 UNK        -0.1800 
     29 N           1.7639  -19.5192  -43.9128 N.am      9 UNK        -0.5000 
     30 C           1.3420  -19.1477  -45.1289 C.2       8 UNK         0.5000 
     31 O           0.6264  -19.8420  -45.8580 O.2       8 UNK        -0.5000 
     32 CA          1.8187  -17.7643  -45.6058 C.3       8 UNK         0.1400 
     33 CB          3.2092  -17.8376  -46.2530 C.3       8 UNK        -0.1800 
     34 N           0.8583  -17.1690  -46.5368 N.am      8 UNK        -0.5000 
     35 C          -0.3068  -16.6455  -46.1376 C.2       7 UNK         0.5000 
     36 O          -0.6075  -16.4822  -44.9522 O.2       7 UNK        -0.5000 
     37 CA         -1.3152  -16.2594  -47.2226 C.3       7 UNK         0.1400 
     38 CB         -2.0228  -17.5256  -47.7361 C.3       7 UNK        -0.1800 
     39 N          -2.3008  -15.3565  -46.6340 N.am      7 UNK        -0.5000 
     40 C          -3.1752  -14.6046  -47.3088 C.2       6 UNK         0.5000 
     41 O          -3.1891  -14.5069  -48.5363 O.2       6 UNK        -0.5000 
     42 CA         -4.2322  -13.8557  -46.4783 C.3       6 UNK         0.1400 
     43 CB         -5.4470  -14.7624  -46.2256 C.3       6 UNK        -0.1800 
     44 N          -3.7302  -13.3689  -45.1920 N.am      6 UNK        -0.5000 
     45 C          -3.0502  -12.2289  -45.0258 C.2       5 UNK         0.5000 
     46 O          -2.6800  -11.5145  -45.9577 O.2       5 UNK        -0.5000 
     47 CA         -2.7477  -11.7959  -43.5770 C.3       5 UNK         0.1400 
     48 CB         -4.0368  -11.5038  -42.7831 C.3       5 UNK        -0.1800 
     49 N          -1.8614  -12.7156  -42.8577 N.am      5 UNK        -0.5000 
     50 C          -2.0837  -13.9819  -42.4779 C.2       4 UNK         0.5000 
     51 O          -3.1507  -14.5756  -42.6468 O.2       4 UNK        -0.5000 
     52 CA         -0.8625  -14.7124  -41.8866 C.3       4 UNK         0.1400 
     53 CB         -1.1823  -16.1483  -41.4334 C.3       4 UNK        -0.1800 
     54 N           0.1586  -14.7641  -42.9266 N.am      4 UNK        -0.5000 
     55 C           1.1532  -13.8881  -43.0922 C.2       3 UNK         0.5000 
     56 O           1.4648  -13.0295  -42.2646 O.2       3 UNK        -0.5000 
     57 CA          1.8293  -13.9056  -44.4715 C.3       3 UNK         0.1400 
     58 CB          1.2946  -12.7539  -45.3374 C.3       3 UNK        -0.1800 
     59 N           3.2825  -13.8235  -44.4039 N.am      3 UNK        -0.5000 
     60 C           4.0887  -14.7834  -43.9359 C.2       2 UNK         0.5000 
     61 O           3.6834  -15.8144  -43.3961 O.2       2 UNK        -0.5000 
     62 CA          5.5955  -14.5816  -44.2007 C.3       2 UNK         0.1400 
     63 CB          6.4508  -15.7586  -43.6976 C.3       2 UNK        -0.1800 
     64 N           5.8353  -14.4055  -45.6358 N.am      2 UNK        -0.5000 
     65 C           5.7153  -13.2492  -46.2994 C.2       1 UNK         0.5000 
     66 O           5.4723  -12.1721  -45.7490 O.2       1 UNK        -0.5000 
     67 C          -1.5166  -22.7756  -47.3337 C.2       11 UNK         0.5000 
     68 O          -2.4422  -23.3593  -47.8975 O.2       11 UNK        -0.5000 
     69 N          -1.5936  -22.3043  -46.0816 N.am      12 UNK        -0.5000 
     70 CA         -2.7228  -22.5582  -45.1875 C.3       12 UNK         0.1400 
     71 CB         -2.6528  -21.6198  -43.9738 C.3       12 UNK        -0.1800 
     72 C          -2.7780  -24.0362  -44.7606 C.2       12 UNK         0.5000 
     73 O          -3.8468  -24.6433  -44.8201 O.2       12 UNK        -0.5000 
     74 N          -1.6171  -24.5998  -44.3956 N.am      13 UNK        -0.5000 
     75 CA         -1.4425  -26.0081  -44.0346 C.3       13 UNK         0.1400 
     76 CB         -0.0286  -26.2177  -43.4716 C.3       13 UNK        -0.1800 
     77 C          -1.7093  -26.9694  -45.2082 C.2       13 UNK         0.5000 
     78 O          -2.3460  -28.0049  -45.0120 O.2       13 UNK        -0.5000 
     79 N          -1.2442  -26.5989  -46.4098 N.am      14 UNK        -0.5000 
     80 CA         -1.4613  -27.3464  -47.6521 C.3       14 UNK         0.1400 
     81 CB         -0.4324  -26.8814  -48.6950 C.3       14 UNK        -0.1800 
     82 C          -2.8883  -27.2077  -48.2225 C.2       14 UNK         0.5000 
     83 O          -3.2436  -27.9613  -49.1288 O.2       14 UNK        -0.5000 
     84 N          -3.6563  -26.2295  -47.7182 N.am      15 UNK        -0.5000 
     85 CA         -4.9894  -25.8017  -48.1635 C.3       15 UNK         0.1400 
     86 CB         -6.0221  -26.9414  -48.0549 C.3       15 UNK        -0.1800 
     87 C          -4.9969  -25.1259  -49.5524 C.2       15 UNK         0.5000 
     88 O          -6.0676  -24.8843  -50.1108 O.2       15 UNK        -0.5000 
     89 N          -3.8117  -24.7645  -50.0608 N.am      16 UNK        -0.5000 
     90 CA         -3.6113  -23.9869  -51.2822 C.3       16 UNK         0.1400 
     91 CB         -2.1154  -23.9740  -51.6302 C.3       16 UNK        -0.1800 
     92 C          -4.1508  -22.5526  -51.1493 C.2       16 UNK         0.5000 
     93 O          -4.6765  -22.0099  -52.1202 O.2       16 UNK        -0.5000 
     94 N          -4.0538  -21.9856  -49.9383 N.am      17 UNK        -0.5000 
     95 CA         -4.6214  -20.6842  -49.5875 C.3       17 UNK         0.1400 
     96 CB         -4.0685  -20.2391  -48.2283 C.3       17 UNK        -0.1800 
     97 C          -6.1596  -20.7097  -49.5515 C.2       17 UNK         0.5000 
     98 O          -6.7920  -19.7534  -49.9973 O.2       17 UNK        -0.5000 
     99 N          -6.7312  -21.8158  -49.0520 N.am      18 UNK        -0.5000 
    100 CA        -8.1759  -22.0537  -48.9944 C.3       18 UNK         0.1400 
    101 CB        -8.4657  -23.2387  -48.0602 C.3       18 UNK        -0.1800 
    102 C         -8.7804  -22.2884  -50.3906 C.2       18 UNK         0.5000 
    103 O         -9.8775  -21.8048  -50.6708 O.2       18 UNK        -0.5000 
    104 N         -8.0292  -22.9855  -51.2541 N.am      19 UNK        -0.5000 
    105 CA        -8.3360  -23.1756  -52.6733 C.3       19 UNK         0.1400 
    106 CB        -7.4606  -24.3181  -53.2126 C.3       19 UNK        -0.1800 
    107 C         -8.1293  -21.9022  -53.5218 C.2       19 UNK         0.5000 
    108 O         -8.6085  -21.8538  -54.6552 O.2       19 UNK        -0.5000 
    109 N         -7.4045  -20.9162  -52.9702 N.am      20 UNK        -0.5000 
    110 CA        -6.9620  -19.6615  -53.5880 C.3       20 UNK         0.1400 
    111 CB        -8.1633  -18.7591  -53.9362 C.3       20 UNK        -0.1800 
    112 C         -6.0064  -19.8862  -54.7792 C.2       20 UNK         0.5000 
    113 O         -5.9694  -19.0781  -55.7093 O.2       20 UNK        -0.5000 
    114 N         -5.2273  -20.9752  -54.7193 N.am      21 UNK        -0.5000 
    115 CA        -4.2853  -21.4059  -55.7536 C.3       21 UNK         0.1400 
    116 CB        -3.8031  -22.8270  -55.4257 C.3       21 UNK        -0.1800 
    117 C         -3.0913  -20.4482  -55.9209 C.2       21 UNK         0.5000 
    118 O         -2.5236  -20.3687  -57.0109 O.2       21 UNK        -0.5000 
    119 N         -2.7534  -19.7245  -54.8473 N.am      22 UNK        -0.5000 
    120 CA        -1.7628  -18.6404  -54.8345 C.3       22 UNK         0.1400 
    121 C         -2.2782  -17.2801  -55.3968 C.2       22 UNK         0.5000 
    122 N         -3.5421  -17.1445  -55.7853 N.am      22 UNK        -0.7600 
    123 O         -1.5082  -16.3292  -55.5008 O.2       22 UNK        -0.5000 
    124 C124       -1.1036  -18.5009  -53.4396 C.3       23 UNK        -0.0398 
    125 S125       -2.2681  -18.0860  -52.0893 S.3       23 UNK        -0.2404 
    126 C126       -1.4114  -16.6627  -51.3214 C.3       23 UNK        -0.0205 
    127 H127        8.5104  -10.5890  -49.0561 H         1 UNK         0.0600 
    128 H128        9.7788  -11.7811  -49.3525 H         1 UNK         0.0600 
    129 H129        9.6537  -10.9973  -47.7739 H         1 UNK         0.0600 
    130 H130        6.5147  -11.5114  -48.7063 H         1 UNK         0.3000 
    131 H131        6.1498  -14.3103  -48.1310 H         1 UNK         0.0600 
    132 H132        4.0218  -12.1023  -48.1299 H         1 UNK         0.0800 
    133 H133        4.6209  -12.8426  -49.5819 H         1 UNK         0.0800 
    134 H134        2.9249  -14.2176  -50.7055 H         1 UNK         0.0800 
    135 H135        4.1804  -15.3727  -50.3199 H         1 UNK         0.0800 
    136 H136        0.6164  -14.9184  -50.9147 H         1 UNK         0.1150 
    137 H137       -0.3512  -19.0563  -50.4464 H         1 UNK         0.1150 
    138 H138        3.5537  -17.6379  -49.3997 H         1 UNK         0.1150 
    139 H139        3.1519  -20.0492  -49.7639 H         1 UNK         0.0800 
    140 H140        2.0958  -19.9907  -48.3757 H         1 UNK         0.0800 
    141 H141       -1.1634  -21.3916  -49.6343 H         1 UNK         0.0800 
    142 H142       -0.3211  -20.4408  -48.4375 H         1 UNK         0.0800 
    143 H143       -0.0662  -23.4703  -48.7174 H         1 UNK         0.0600 
    144 H144        1.2663  -21.6062  -46.8978 H         1 UNK         0.3000 
    145 H145        2.7493  -24.2158  -44.9556 H         1 UNK         0.0600 
    146 H146        4.8233  -23.0744  -45.6976 H         1 UNK         0.0600 
    147 H147        4.1740  -24.0496  -47.0061 H         1 UNK         0.0600 
    148 H148        3.9592  -22.3034  -47.0285 H         1 UNK         0.0600 
    149 H149        3.0782  -21.3924  -44.8819 H         1 UNK         0.3000 
    150 H150        0.2397  -20.5403  -42.9632 H         1 UNK         0.0600 
    151 H151        3.1089  -20.8305  -41.9330 H         1 UNK         0.0600 
    152 H152        1.6915  -21.5782  -41.2058 H         1 UNK         0.0600 
    153 H153        1.8399  -19.8290  -41.2263 H         1 UNK         0.0600 
    154 H154        2.3721  -18.8892  -43.4089 H         1 UNK         0.3000 
    155 H155        1.8916  -17.1216  -44.7283 H         1 UNK         0.0600 
    156 H156        3.2334  -18.5164  -47.1022 H         1 UNK         0.0600 
    157 H157        3.9524  -18.1878  -45.5357 H         1 UNK         0.0600 
    158 H158        3.5346  -16.8560  -46.5959 H         1 UNK         0.0600 
    159 H159        1.0355  -17.3033  -47.5220 H         1 UNK         0.3000 
    160 H160       -0.7902  -15.7547  -48.0361 H         1 UNK         0.0600 
    161 H161       -2.5517  -18.0326  -46.9282 H         1 UNK         0.0600 
    162 H162       -1.3095  -18.2363  -48.1501 H         1 UNK         0.0600 
    163 H163       -2.7472  -17.2992  -48.5177 H         1 UNK         0.0600 
    164 H164       -2.3203  -15.3671  -45.6220 H         1 UNK         0.3000 
    165 H165       -4.5709  -13.0016  -47.0690 H         1 UNK         0.0600 
    166 H166       -6.2420  -14.2216  -45.7118 H         1 UNK         0.0600 
    167 H167       -5.8609  -15.1330  -47.1644 H         1 UNK         0.0600 
    168 H168       -5.1834  -15.6290  -45.6178 H         1 UNK         0.0600 
    169 H169       -3.9309  -13.9240  -44.3659 H         1 UNK         0.3000 
    170 H170       -2.1972  -10.8561  -43.6446 H         1 UNK         0.0600 
    171 H171       -4.6573  -12.3910  -42.6560 H         1 UNK         0.0600 
    172 H172       -3.8066  -11.1136  -41.7917 H         1 UNK         0.0600 
    173 H173       -4.6439  -10.7551  -43.2932 H         1 UNK         0.0600 
    174 H174       -0.9338  -12.3511  -42.6857 H         1 UNK         0.3000 
    175 H175       -0.5093  -14.1474  -41.0216 H         1 UNK         0.0600 
    176 H176       -1.5459  -16.7621  -42.2588 H         1 UNK         0.0600 
    177 H177       -0.2982  -16.6354  -41.0218 H         1 UNK         0.0600 
    178 H178       -1.9481  -16.1512  -40.6570 H         1 UNK         0.0600 
    179 H179       -0.0497  -15.4171  -43.6821 H         1 UNK         0.3000 
    180 H180        1.5867  -14.8382  -44.9767 H         1 UNK         0.0600 
    181 H181        1.5246  -11.7813  -44.9006 H         1 UNK         0.0600 
    182 H182        0.2109  -12.8179  -45.4469 H         1 UNK         0.0600 
    183 H183        1.7203  -12.7781  -46.3398 H         1 UNK         0.0600 
    184 H184        3.7128  -13.0054  -44.8170 H         1 UNK         0.3000 
    185 H185        5.9088  -13.6853  -43.6612 H         1 UNK         0.0600 
    186 H186        6.1836  -16.6931  -44.1929 H         1 UNK         0.0600 
    187 H187        7.5113  -15.5775  -43.8735 H         1 UNK         0.0600 
    188 H188        6.3211  -15.9054  -42.6246 H         1 UNK         0.0600 
    189 H189        6.0134  -15.2499  -46.1602 H         1 UNK         0.3000 
    190 H190       -0.7994  -21.8106  -45.6975 H         1 UNK         0.3000 
    191 H191       -3.6447  -22.3363  -45.7274 H         1 UNK         0.0600 
    192 H192       -2.5957  -20.5760  -44.2840 H         1 UNK         0.0600 
    193 H193       -3.5421  -21.7269  -43.3517 H         1 UNK         0.0600 
    194 H194       -1.7899  -21.8313  -43.3438 H         1 UNK         0.0600 
    195 H195       -0.7905  -24.0118  -44.3236 H         1 UNK         0.3000 
    196 H196       -2.1604  -26.2411  -43.2455 H         1 UNK         0.0600 
    197 H197        0.1264  -27.2567  -43.1781 H         1 UNK         0.0600 
    198 H198        0.1383  -25.6014  -42.5880 H         1 UNK         0.0600 
    199 H199        0.7384  -25.9640  -44.2043 H         1 UNK         0.0600 
    200 H200       -0.6568  -25.7737  -46.4739 H         1 UNK         0.3000 
    201 H201       -1.2899  -28.4064  -47.4538 H         1 UNK         0.0600 
    202 H202       -0.5300  -27.4453  -49.6236 H         1 UNK         0.0600 
    203 H203        0.5867  -27.0257  -48.3356 H         1 UNK         0.0600 
    204 H204       -0.5562  -25.8260  -48.9381 H         1 UNK         0.0600 
    205 H205       -3.2560  -25.6645  -46.9810 H         1 UNK         0.3000 
    206 H206       -5.2919  -25.0248  -47.4600 H         1 UNK         0.0600 
    207 H207       -5.9998  -27.4005  -47.0666 H         1 UNK         0.0600 
    208 H208       -7.0340  -26.5676  -48.2149 H         1 UNK         0.0600 
    209 H209       -5.8469  -27.7230  -48.7943 H         1 UNK         0.0600 
    210 H210       -2.9968  -24.9236  -49.4857 H         1 UNK         0.3000 
    211 H211       -4.1532  -24.4756  -52.0942 H         1 UNK         0.0600 
    212 H212       -1.5168  -23.5482  -50.8252 H         1 UNK         0.0600 
    213 H213       -1.9235  -23.3838  -52.5268 H         1 UNK         0.0600 
    214 H214       -1.7482  -24.9827  -51.8204 H         1 UNK         0.0600 
    215 H215       -3.6002  -22.5096  -49.1959 H         1 UNK         0.3000 
    216 H216       -4.3102  -19.9579  -50.3417 H         1 UNK         0.0600 
    217 H217       -4.4491  -19.2530  -47.9600 H         1 UNK         0.0600 
    218 H218       -2.9815  -20.1795  -48.2453 H         1 UNK         0.0600 
    219 H219       -4.3553  -20.9262  -47.4330 H         1 UNK         0.0600 
    220 H220       -6.1356  -22.5655  -48.7369 H         1 UNK         0.3000 
    221 H221       -8.6497  -21.1653  -48.5711 H         1 UNK         0.0600 
    222 H222       -8.0293  -24.1659  -48.4312 H         1 UNK         0.0600 
    223 H223       -8.0722  -23.0587  -47.0597 H         1 UNK         0.0600 
    224 H224       -9.5398  -23.4010  -47.9621 H         1 UNK         0.0600 
    225 H225       -7.1806  -23.4259  -50.9125 H         1 UNK         0.3000 
    226 H226       -9.3834  -23.4696  -52.7654 H         1 UNK         0.0600 
    227 H227       -7.6922  -24.5308  -54.2570 H         1 UNK         0.0600 
    228 H228       -6.4000  -24.0714  -53.1556 H         1 UNK         0.0600 
    229 H229       -7.6206  -25.2381  -52.6499 H         1 UNK         0.0600 
    230 H230       -7.0469  -21.0793  -52.0392 H         1 UNK         0.3000 
    231 H231       -6.3741  -19.1453  -52.8278 H         1 UNK         0.0600 
    232 H232       -8.7615  -19.1734  -54.7481 H         1 UNK         0.0600 
    233 H233       -7.8299  -17.7692  -54.2496 H         1 UNK         0.0600 
    234 H234       -8.8153  -18.6226  -53.0734 H         1 UNK         0.0600 
    235 H235       -5.2464  -21.5274  -53.8657 H         1 UNK         0.3000 
    236 H236       -4.8210  -21.4353  -56.7046 H         1 UNK         0.0600 
    237 H237       -4.6400  -23.5225  -55.3591 H         1 UNK         0.0600 
    238 H238       -3.1298  -23.1999  -56.1985 H         1 UNK         0.0600 
    239 H239       -3.2655  -22.8582  -54.4781 H         1 UNK         0.0600 
    240 H240       -3.2793  -19.8522  -53.9948 H         1 UNK         0.3000 
    241 H241       -0.9618  -18.9323  -55.5164 H         1 UNK         0.0600 
    242 H242       -4.1993  -17.9125  -55.7300 H         1 UNK         0.3800 
    243 H243       -3.8489  -16.2576  -56.1522 H         1 UNK         0.3800 
    244 H244       -0.6136  -19.4389  -53.1748 H         1 UNK         0.0800 
    245 H245       -0.3024  -17.7612  -53.4805 H         1 UNK         0.0800 
    246 H246       -2.0360  -16.2676  -50.5203 H         1 UNK         0.0800 
    247 H247       -1.3392  -15.8708  -52.0689 H         1 UNK         0.0800 
@<TRIPOS>BOND
     1    1    2 1    
     2    1  127 1    
     3    1  128 1    
     4    1  129 1    
     5    2    3 2    
     6    2    4 am   BACKBONE|DICT|INTERRES
     7    4    5 1    
     8    4  130 1    
     9    5    6 1    
    10    5   65 1    
    11    5  131 1    
    12    6    7 1    
    13    6  132 1    
    14    6  133 1    
    15    7    8 1    
    16    8    9 1    
    17    8  134 1    
    18    8  135 1    
    19    9   10 ar   
    20    9   14 ar   
    21   10   11 ar   
    22   10  136 1    
    23   11   12 ar   
    24   11  126 1    
    25   12   13 ar   
    26   12  137 1    
    27   13   14 ar   
    28   13   15 1    
    29   14  138 1    
    30   15   16 1    
    31   15  139 1    
    32   15  140 1    
    33   16   17 1    
    34   17   18 1    
    35   17  141 1    
    36   17  142 1    
    37   18   19 1    
    38   18   67 1    
    39   18  143 1    
    40   19   20 am   BACKBONE|DICT|INTERRES
    41   19  144 1    
    42   20   21 2    
    43   20   22 1    
    44   22   23 1    
    45   22   24 1    
    46   22  145 1    
    47   23  146 1    
    48   23  147 1    
    49   23  148 1    
    50   24   25 am   BACKBONE|DICT|INTERRES
    51   24  149 1    
    52   25   26 2    
    53   25   27 1    
    54   27   28 1    
    55   27   29 1    
    56   27  150 1    
    57   28  151 1    
    58   28  152 1    
    59   28  153 1    
    60   29   30 am   BACKBONE|DICT|INTERRES
    61   29  154 1    
    62   30   31 2    
    63   30   32 1    
    64   32   33 1    
    65   32   34 1    
    66   32  155 1    
    67   33  156 1    
    68   33  157 1    
    69   33  158 1    
    70   34   35 am   BACKBONE|DICT|INTERRES
    71   34  159 1    
    72   35   36 2    
    73   35   37 1    
    74   37   38 1    
    75   37   39 1    
    76   37  160 1    
    77   38  161 1    
    78   38  162 1    
    79   38  163 1    
    80   39   40 am   BACKBONE|DICT|INTERRES
    81   39  164 1    
    82   40   41 2    
    83   40   42 1    
    84   42   43 1    
    85   42   44 1    
    86   42  165 1    
    87   43  166 1    
    88   43  167 1    
    89   43  168 1    
    90   44   45 am   BACKBONE|DICT|INTERRES
    91   44  169 1    
    92   45   46 2    
    93   45   47 1    
    94   47   48 1    
    95   47   49 1    
    96   47  170 1    
    97   48  171 1    
    98   48  172 1    
    99   48  173 1    
   100   49   50 am   BACKBONE|DICT|INTERRES
   101   49  174 1    
   102   50   51 2    
   103   50   52 1    
   104   52   53 1    
   105   52   54 1    
   106   52  175 1    
   107   53  176 1    
   108   53  177 1    
   109   53  178 1    
   110   54   55 am   BACKBONE|DICT|INTERRES
   111   54  179 1    
   112   55   56 2    
   113   55   57 1    
   114   57   58 1    
   115   57   59 1    
   116   57  180 1    
   117   58  181 1    
   118   58  182 1    
   119   58  183 1    
   120   59   60 am   BACKBONE|DICT|INTERRES
   121   59  184 1    
   122   60   61 2    
   123   60   62 1    
   124   62   63 1    
   125   62   64 1    
   126   62  185 1    
   127   63  186 1    
   128   63  187 1    
   129   63  188 1    
   130   64   65 am   BACKBONE|DICT|INTERRES
   131   64  189 1    
   132   65   66 2    
   133   67   68 2    
   134   67   69 am   BACKBONE|DICT|INTERRES
   135   69   70 1    
   136   69  190 1    
   137   70   71 1    
   138   70   72 1    
   139   70  191 1    
   140   71  192 1    
   141   71  193 1    
   142   71  194 1    
   143   72   73 2    
   144   72   74 am   BACKBONE|DICT|INTERRES
   145   74   75 1    
   146   74  195 1    
   147   75   76 1    
   148   75   77 1    
   149   75  196 1    
   150   76  197 1    
   151   76  198 1    
   152   76  199 1    
   153   77   78 2    
   154   77   79 am   BACKBONE|DICT|INTERRES
   155   79   80 1    
   156   79  200 1    
   157   80   81 1    
   158   80   82 1    
   159   80  201 1    
   160   81  202 1    
   161   81  203 1    
   162   81  204 1    
   163   82   83 2    
   164   82   84 am   BACKBONE|DICT|INTERRES
   165   84   85 1    
   166   84  205 1    
   167   85   86 1    
   168   85   87 1    
   169   85  206 1    
   170   86  207 1    
   171   86  208 1    
   172   86  209 1    
   173   87   88 2    
   174   87   89 am   BACKBONE|DICT|INTERRES
   175   89   90 1    
   176   89  210 1    
   177   90   91 1    
   178   90   92 1    
   179   90  211 1    
   180   91  212 1    
   181   91  213 1    
   182   91  214 1    
   183   92   93 2    
   184   92   94 am   BACKBONE|DICT|INTERRES
   185   94   95 1    
   186   94  215 1    
   187   95   96 1    
   188   95   97 1    
   189   95  216 1    
   190   96  217 1    
   191   96  218 1    
   192   96  219 1    
   193   97   98 2    
   194   97   99 am   BACKBONE|DICT|INTERRES
   195   99  100 1    
   196   99  220 1    
   197  100  101 1    
   198  100  102 1    
   199  100  221 1    
   200  101  222 1    
   201  101  223 1    
   202  101  224 1    
   203  102  103 2    
   204  102  104 am   BACKBONE|DICT|INTERRES
   205  104  105 1    
   206  104  225 1    
   207  105  106 1    
   208  105  107 1    
   209  105  226 1    
   210  106  227 1    
   211  106  228 1    
   212  106  229 1    
   213  107  108 2    
   214  107  109 am   BACKBONE|DICT|INTERRES
   215  109  110 1    
   216  109  230 1    
   217  110  111 1    
   218  110  112 1    
   219  110  231 1    
   220  111  232 1    
   221  111  233 1    
   222  111  234 1    
   223  112  113 2    
   224  112  114 am   BACKBONE|DICT|INTERRES
   225  114  115 1    
   226  114  235 1    
   227  115  116 1    
   228  115  117 1    
   229  115  236 1    
   230  116  237 1    
   231  116  238 1    
   232  116  239 1    
   233  117  118 2    
   234  117  119 am   BACKBONE|DICT|INTERRES
   235  119  120 1    
   236  119  240 1    
   237  120  121 1    
   238  120  124 1    
   239  120  241 1    
   240  121  122 am   BACKBONE|DICT|INTERRES
   241  121  123 2    
   242  122  242 1    
   243  122  243 1    
   244  124  125 1    
   245  124  244 1    
   246  124  245 1    
   247  125  126 1    
   248  126  246 1    
   249  126  247 1    
@<TRIPOS>SUBSTRUCTURE
     1 UNK         1 GROUP             0       ****    0 ROOT    
