@<TRIPOS>MOLECULE
3R540
247   249    1
SMALL
USER_CHARGES


@<TRIPOS>ATOM
      1 CA          0.9147  -16.0544  -49.5318 C.3       0 UNK        -0.1800 
      2 C           1.8345  -14.8487  -49.4250 C.2       0 UNK         0.5000 
      3 O           1.4430  -13.7440  -49.8006 O.2       0 UNK        -0.5000 
      4 N           3.0510  -15.0544  -48.9004 N.am      1 UNK        -0.5000 
      5 CA          4.0589  -14.0086  -48.6771 C.3       1 UNK         0.1400 
      6 C6          5.4515  -14.5996  -48.3335 C.3       23 UNK        -0.0398 
      7 S7          6.3765  -15.5322  -49.6153 S.3       23 UNK        -0.2404 
      8 C8          5.3979  -15.5267  -51.1642 C.3       23 UNK        -0.0205 
      9 C9          4.3757  -16.6551  -51.3239 C.ar      23 UNK        -0.0193 
     10 C10         3.4551  -16.5718  -52.3732 C.ar      23 UNK        -0.1150 
     11 C11         2.5142  -17.5834  -52.5881 C.ar      23 UNK        -0.0193 
     12 C12         2.4849  -18.6877  -51.7316 C.ar      23 UNK        -0.1150 
     13 C13         3.3912  -18.7839  -50.6722 C.ar      23 UNK        -0.0193 
     14 C14         4.3396  -17.7753  -50.4830 C.ar      23 UNK        -0.1150 
     15 C15         3.3637  -19.9752  -49.7277 C.3       23 UNK        -0.0205 
     16 S16         2.6451  -19.5301  -48.1153 S.3       23 UNK        -0.2404 
     17 C17         0.8572  -19.6688  -48.4537 C.3       23 UNK        -0.0398 
     18 CA          0.2759  -20.9684  -47.8538 C.3       11 UNK         0.1400 
     19 N           0.2791  -20.9621  -46.3874 N.am      11 UNK        -0.5000 
     20 C           0.0442  -22.0425  -45.6305 C.2       10 UNK         0.5000 
     21 O          -0.1732  -23.1636  -46.0895 O.2       10 UNK        -0.5000 
     22 CA         -0.0042  -21.8308  -44.1078 C.3       10 UNK         0.1400 
     23 CB          1.4128  -21.7334  -43.5237 C.3       10 UNK        -0.1800 
     24 N          -0.7880  -20.6547  -43.7261 N.am      10 UNK        -0.5000 
     25 C          -2.1005  -20.5129  -43.9625 C.2       9 UNK         0.5000 
     26 O          -2.7934  -21.3758  -44.4990 O.2       9 UNK        -0.5000 
     27 CA         -2.7467  -19.1714  -43.5751 C.3       9 UNK         0.1400 
     28 CB         -3.0585  -19.1311  -42.0720 C.3       9 UNK        -0.1800 
     29 N          -1.9271  -18.0173  -43.9410 N.am      9 UNK        -0.5000 
     30 C          -1.5789  -17.6905  -45.1940 C.2       8 UNK         0.5000 
     31 O          -1.9377  -18.3136  -46.1933 O.2       8 UNK        -0.5000 
     32 CA         -0.6117  -16.5032  -45.3504 C.3       8 UNK         0.1400 
     33 CB         -1.3476  -15.1617  -45.2162 C.3       8 UNK        -0.1800 
     34 N           0.4931  -16.5622  -44.3927 N.am      8 UNK        -0.5000 
     35 C           1.4024  -17.5474  -44.3592 C.2       7 UNK         0.5000 
     36 O           1.4278  -18.4844  -45.1559 O.2       7 UNK        -0.5000 
     37 CA          2.4206  -17.4999  -43.2104 C.3       7 UNK         0.1400 
     38 CB          3.5342  -16.4891  -43.5159 C.3       7 UNK        -0.1800 
     39 N           1.7838  -17.1708  -41.9344 N.am      7 UNK        -0.5000 
     40 C           0.9570  -17.9993  -41.2788 C.2       6 UNK         0.5000 
     41 O           0.6683  -19.1276  -41.6748 O.2       6 UNK        -0.5000 
     42 CA          0.3117  -17.4719  -39.9842 C.3       6 UNK         0.1400 
     43 CB          1.2486  -17.6903  -38.7870 C.3       6 UNK        -0.1800 
     44 N          -0.0559  -16.0585  -40.0560 N.am      6 UNK        -0.5000 
     45 C          -0.9380  -15.5338  -40.9183 C.2       5 UNK         0.5000 
     46 O          -1.5664  -16.1958  -41.7433 O.2       5 UNK        -0.5000 
     47 CA         -1.1153  -14.0044  -40.8825 C.3       5 UNK         0.1400 
     48 CB         -2.2935  -13.6216  -39.9750 C.3       5 UNK        -0.1800 
     49 N           0.0856  -13.2829  -40.4473 N.am      5 UNK        -0.5000 
     50 C           1.2571  -13.2959  -41.0965 C.2       4 UNK         0.5000 
     51 O           1.4476  -13.9465  -42.1291 O.2       4 UNK        -0.5000 
     52 CA          2.3790  -12.4359  -40.4780 C.3       4 UNK         0.1400 
     53 CB          2.8524  -12.9947  -39.1198 C.3       4 UNK        -0.1800 
     54 N           3.4838  -12.2353  -41.4209 N.am      4 UNK        -0.5000 
     55 C           4.4201  -13.1099  -41.8145 C.2       3 UNK         0.5000 
     56 O           4.6738  -14.1718  -41.2439 O.2       3 UNK        -0.5000 
     57 CA          5.1236  -12.7543  -43.1419 C.3       3 UNK         0.1400 
     58 CB          6.3802  -13.6051  -43.3986 C.3       3 UNK        -0.1800 
     59 N           4.1920  -12.9452  -44.2553 N.am      3 UNK        -0.5000 
     60 C           3.1621  -12.1410  -44.5540 C.2       2 UNK         0.5000 
     61 O           2.9882  -11.0388  -44.0284 O.2       2 UNK        -0.5000 
     62 CA          2.1408  -12.6931  -45.5691 C.3       2 UNK         0.1400 
     63 CB          1.1896  -11.6130  -46.1236 C.3       2 UNK        -0.1800 
     64 N           2.7517  -13.4593  -46.6602 N.am      2 UNK        -0.5000 
     65 C           3.6295  -13.0127  -47.5738 C.2       1 UNK         0.5000 
     66 O           4.0980  -11.8737  -47.5793 O.2       1 UNK        -0.5000 
     67 C          -1.1216  -21.2766  -48.4275 C.2       11 UNK         0.5000 
     68 O          -1.2189  -22.0450  -49.3842 O.2       11 UNK        -0.5000 
     69 N          -2.1787  -20.7212  -47.8168 N.am      12 UNK        -0.5000 
     70 CA         -3.5697  -21.0163  -48.1620 C.3       12 UNK         0.1400 
     71 CB         -4.5098  -20.0537  -47.4233 C.3       12 UNK        -0.1800 
     72 C          -3.9473  -22.4820  -47.8830 C.2       12 UNK         0.5000 
     73 O          -4.5661  -23.1169  -48.7363 O.2       12 UNK        -0.5000 
     74 N          -3.5380  -23.0076  -46.7198 N.am      13 UNK        -0.5000 
     75 CA         -3.7166  -24.4073  -46.3315 C.3       13 UNK         0.1400 
     76 CB         -3.2550  -24.6148  -44.8814 C.3       13 UNK        -0.1800 
     77 C          -2.9995  -25.3780  -47.2854 C.2       13 UNK         0.5000 
     78 O          -3.6165  -26.3456  -47.7346 O.2       13 UNK        -0.5000 
     79 N          -1.7355  -25.0679  -47.6137 N.am      14 UNK        -0.5000 
     80 CA         -0.9052  -25.8033  -48.5706 C.3       14 UNK         0.1400 
     81 CB          0.5136  -25.2156  -48.5828 C.3       14 UNK        -0.1800 
     82 C          -1.4957  -25.8256  -49.9921 C.2       14 UNK         0.5000 
     83 O          -1.4205  -26.8553  -50.6633 O.2       14 UNK        -0.5000 
     84 N          -2.1373  -24.7235  -50.4023 N.am      15 UNK        -0.5000 
     85 CA         -2.9096  -24.5891  -51.6394 C.3       15 UNK         0.1400 
     86 CB         -2.9932  -23.0991  -52.0123 C.3       15 UNK        -0.1800 
     87 C          -4.3040  -25.2516  -51.5451 C.2       15 UNK         0.5000 
     88 O          -5.3002  -24.6453  -51.9416 O.2       15 UNK        -0.5000 
     89 N          -4.3439  -26.4834  -51.0157 N.am      16 UNK        -0.5000 
     90 CA         -5.4982  -27.3740  -50.8592 C.3       16 UNK         0.1400 
     91 CB         -5.8440  -28.0236  -52.2135 C.3       16 UNK        -0.1800 
     92 C          -6.7126  -26.7110  -50.1747 C.2       16 UNK         0.5000 
     93 O          -7.8408  -26.8511  -50.6500 O.2       16 UNK        -0.5000 
     94 N          -6.4444  -25.9973  -49.0710 N.am      17 UNK        -0.5000 
     95 CA         -7.4003  -25.2184  -48.2761 C.3       17 UNK         0.1400 
     96 CB         -8.4212  -26.1407  -47.5770 C.3       17 UNK        -0.1800 
     97 C          -8.0555  -24.0850  -49.0937 C.2       17 UNK         0.5000 
     98 O          -9.2798  -24.0300  -49.2255 O.2       17 UNK        -0.5000 
     99 N          -7.1995  -23.1961  -49.6132 N.am      18 UNK        -0.5000 
    100 CA        -7.5085  -21.9803  -50.3672 C.3       18 UNK         0.1400 
    101 CB        -8.2606  -20.9630  -49.4838 C.3       18 UNK        -0.1800 
    102 C         -8.2089  -22.2449  -51.7148 C.2       18 UNK         0.5000 
    103 O         -9.0956  -21.4847  -52.1112 O.2       18 UNK        -0.5000 
    104 N         -7.7771  -23.2933  -52.4263 N.am      19 UNK        -0.5000 
    105 CA        -8.2458  -23.6462  -53.7660 C.3       19 UNK         0.1400 
    106 CB        -8.0165  -25.1495  -53.9957 C.3       19 UNK        -0.1800 
    107 C         -7.5449  -22.7707  -54.8244 C.2       19 UNK         0.5000 
    108 O         -6.6958  -23.2611  -55.5709 O.2       19 UNK        -0.5000 
    109 N         -7.8981  -21.4765  -54.8348 N.am      20 UNK        -0.5000 
    110 CA        -7.3247  -20.4028  -55.6551 C.3       20 UNK         0.1400 
    111 CB        -7.6261  -20.6248  -57.1524 C.3       20 UNK        -0.1800 
    112 C         -5.8252  -20.1951  -55.3571 C.2       20 UNK         0.5000 
    113 O         -4.9916  -20.2375  -56.2661 O.2       20 UNK        -0.5000 
    114 N         -5.5151  -19.9977  -54.0665 N.am      21 UNK        -0.5000 
    115 CA        -4.1667  -19.7886  -53.5351 C.3       21 UNK         0.1400 
    116 CB        -4.2417  -19.5858  -52.0134 C.3       21 UNK        -0.1800 
    117 C         -3.4478  -18.6076  -54.2123 C.2       21 UNK         0.5000 
    118 O         -3.9858  -17.4983  -54.2357 O.2       21 UNK        -0.5000 
    119 N         -2.2665  -18.8933  -54.7712 N.am      22 UNK        -0.5000 
    120 CA        -1.4358  -17.9806  -55.5765 C.3       22 UNK         0.1400 
    121 C         -2.0300  -17.6173  -56.9740 C.2       22 UNK         0.5000 
    122 N         -3.0874  -18.2668  -57.4483 N.am      22 UNK        -0.7600 
    123 O         -1.5009  -16.7506  -57.6649 O.2       22 UNK        -0.5000 
    124 C124       -0.9487  -16.7222  -54.8007 C.3       23 UNK        -0.0398 
    125 S125       -0.1411  -17.1022  -53.2076 S.3       23 UNK        -0.2404 
    126 C126        1.5474  -17.4911  -53.7590 C.3       23 UNK        -0.0205 
    127 H127        1.4518  -16.9821  -49.3438 H         1 UNK         0.0600 
    128 H128        0.4869  -16.1103  -50.5310 H         1 UNK         0.0600 
    129 H129        0.0989  -15.9744  -48.8141 H         1 UNK         0.0600 
    130 H130        3.3294  -15.9939  -48.6549 H         1 UNK         0.3000 
    131 H131        4.1458  -13.4166  -49.5889 H         1 UNK         0.0600 
    132 H132        5.3698  -15.2477  -47.4592 H         1 UNK         0.0800 
    133 H133        6.1250  -13.7954  -48.0298 H         1 UNK         0.0800 
    134 H134        4.9194  -14.5591  -51.3088 H         1 UNK         0.0800 
    135 H135        6.1073  -15.6235  -51.9869 H         1 UNK         0.0800 
    136 H136        3.4788  -15.7166  -53.0343 H         1 UNK         0.1150 
    137 H137        1.7547  -19.4685  -51.8917 H         1 UNK         0.1150 
    138 H138        5.0416  -17.8766  -49.6688 H         1 UNK         0.1150 
    139 H139        2.8158  -20.8122  -50.1634 H         1 UNK         0.0800 
    140 H140        4.3835  -20.3293  -49.5704 H         1 UNK         0.0800 
    141 H141        0.6940  -19.6237  -49.5319 H         1 UNK         0.0800 
    142 H142        0.3527  -18.7976  -48.0324 H         1 UNK         0.0800 
    143 H143        0.9202  -21.7916  -48.1706 H         1 UNK         0.0600 
    144 H144        0.4987  -20.0787  -45.9359 H         1 UNK         0.3000 
    145 H145       -0.4880  -22.7060  -43.6694 H         1 UNK         0.0600 
    146 H146        1.3873  -21.6917  -42.4349 H         1 UNK         0.0600 
    147 H147        2.0103  -22.6028  -43.8010 H         1 UNK         0.0600 
    148 H148        1.9374  -20.8469  -43.8805 H         1 UNK         0.0600 
    149 H149       -0.2914  -19.9195  -43.2329 H         1 UNK         0.3000 
    150 H150       -3.6903  -19.0899  -44.1182 H         1 UNK         0.0600 
    151 H151       -3.6889  -19.9722  -41.7809 H         1 UNK         0.0600 
    152 H152       -3.5901  -18.2179  -41.8043 H         1 UNK         0.0600 
    153 H153       -2.1501  -19.1773  -41.4711 H         1 UNK         0.0600 
    154 H154       -1.6197  -17.4215  -43.1763 H         1 UNK         0.3000 
    155 H155       -0.1851  -16.5564  -46.3541 H         1 UNK         0.0600 
    156 H156       -1.7629  -15.0249  -44.2176 H         1 UNK         0.0600 
    157 H157       -0.6827  -14.3231  -45.4207 H         1 UNK         0.0600 
    158 H158       -2.1735  -15.0991  -45.9259 H         1 UNK         0.0600 
    159 H159        0.5229  -15.8510  -43.6753 H         1 UNK         0.3000 
    160 H160        2.8750  -18.4892  -43.1238 H         1 UNK         0.0600 
    161 H161        3.1444  -15.4742  -43.5824 H         1 UNK         0.0600 
    162 H162        4.0241  -16.7189  -44.4630 H         1 UNK         0.0600 
    163 H163        4.3007  -16.5036  -42.7410 H         1 UNK         0.0600 
    164 H164        1.9353  -16.2376  -41.5756 H         1 UNK         0.3000 
    165 H165       -0.6018  -18.0446  -39.8125 H         1 UNK         0.0600 
    166 H166        0.7682  -17.4016  -37.8519 H         1 UNK         0.0600 
    167 H167        1.5276  -18.7411  -38.6966 H         1 UNK         0.0600 
    168 H168        2.1691  -17.1131  -38.8846 H         1 UNK         0.0600 
    169 H169        0.4144  -15.4336  -39.4186 H         1 UNK         0.3000 
    170 H170       -1.3478  -13.6808  -41.8993 H         1 UNK         0.0600 
    171 H171       -2.1071  -13.8953  -38.9358 H         1 UNK         0.0600 
    172 H172       -2.4881  -12.5496  -40.0114 H         1 UNK         0.0600 
    173 H173       -3.2080  -14.1269  -40.2887 H         1 UNK         0.0600 
    174 H174       -0.0056  -12.7252  -39.6102 H         1 UNK         0.3000 
    175 H175        1.9609  -11.4433  -40.3044 H         1 UNK         0.0600 
    176 H176        3.7145  -12.4436  -38.7441 H         1 UNK         0.0600 
    177 H177        3.1268  -14.0482  -39.1817 H         1 UNK         0.0600 
    178 H178        2.0662  -12.9131  -38.3689 H         1 UNK         0.0600 
    179 H179        3.3430  -11.4515  -42.0500 H         1 UNK         0.3000 
    180 H180        5.4272  -11.7061  -43.0988 H         1 UNK         0.0600 
    181 H181        6.1424  -14.6663  -43.4827 H         1 UNK         0.0600 
    182 H182        7.0989  -13.4925  -42.5860 H         1 UNK         0.0600 
    183 H183        6.8796  -13.3008  -44.3185 H         1 UNK         0.0600 
    184 H184        4.2496  -13.8317  -44.7320 H         1 UNK         0.3000 
    185 H185        1.5318  -13.4029  -45.0077 H         1 UNK         0.0600 
    186 H186        0.6244  -11.1392  -45.3201 H         1 UNK         0.0600 
    187 H187        1.7319  -10.8273  -46.6502 H         1 UNK         0.0600 
    188 H188        0.4668  -12.0439  -46.8166 H         1 UNK         0.0600 
    189 H189        2.4331  -14.4123  -46.7584 H         1 UNK         0.3000 
    190 H190       -2.0263  -20.0558  -47.0639 H         1 UNK         0.3000 
    191 H191       -3.6892  -20.8448  -49.2333 H         1 UNK         0.0600 
    192 H192       -4.2967  -19.0174  -47.6859 H         1 UNK         0.0600 
    193 H193       -5.5504  -20.2478  -47.6833 H         1 UNK         0.0600 
    194 H194       -4.4180  -20.1494  -46.3414 H         1 UNK         0.0600 
    195 H195       -3.0793  -22.4045  -46.0409 H         1 UNK         0.3000 
    196 H196       -4.7836  -24.6285  -46.3736 H         1 UNK         0.0600 
    197 H197       -3.3917  -25.6517  -44.5723 H         1 UNK         0.0600 
    198 H198       -3.8281  -23.9926  -44.1939 H         1 UNK         0.0600 
    199 H199       -2.2009  -24.3696  -44.7523 H         1 UNK         0.0600 
    200 H200       -1.2983  -24.2685  -47.1616 H         1 UNK         0.3000 
    201 H201       -0.8427  -26.8366  -48.2237 H         1 UNK         0.0600 
    202 H202        0.9714  -25.2693  -47.5949 H         1 UNK         0.0600 
    203 H203        0.5132  -24.1711  -48.8951 H         1 UNK         0.0600 
    204 H204        1.1586  -25.7641  -49.2703 H         1 UNK         0.0600 
    205 H205       -2.1302  -23.9112  -49.7955 H         1 UNK         0.3000 
    206 H206       -2.3723  -25.0989  -52.4413 H         1 UNK         0.0600 
    207 H207       -2.0008  -22.6620  -52.1234 H         1 UNK         0.0600 
    208 H208       -3.5180  -22.9621  -52.9583 H         1 UNK         0.0600 
    209 H209       -3.5257  -22.5299  -51.2508 H         1 UNK         0.0600 
    210 H210       -3.4559  -26.8687  -50.7140 H         1 UNK         0.3000 
    211 H211       -5.1771  -28.1712  -50.1874 H         1 UNK         0.0600 
    212 H212       -6.1661  -27.2835  -52.9441 H         1 UNK         0.0600 
    213 H213       -6.6473  -28.7537  -52.1076 H         1 UNK         0.0600 
    214 H214       -4.9837  -28.5488  -52.6285 H         1 UNK         0.0600 
    215 H215       -5.4759  -25.9436  -48.7749 H         1 UNK         0.3000 
    216 H216       -6.8221  -24.7290  -47.4925 H         1 UNK         0.0600 
    217 H217       -9.0627  -25.5695  -46.9051 H         1 UNK         0.0600 
    218 H218       -7.9192  -26.9006  -46.9781 H         1 UNK         0.0600 
    219 H219       -9.0699  -26.6501  -48.2899 H         1 UNK         0.0600 
    220 H220       -6.2065  -23.3425  -49.4352 H         1 UNK         0.3000 
    221 H221       -6.5430  -21.5406  -50.6153 H         1 UNK         0.0600 
    222 H222       -9.2731  -21.2968  -49.2551 H         1 UNK         0.0600 
    223 H223       -7.7426  -20.7984  -48.5396 H         1 UNK         0.0600 
    224 H224       -8.3404  -19.9963  -49.9822 H         1 UNK         0.0600 
    225 H225       -6.9871  -23.8335  -52.0774 H         1 UNK         0.3000 
    226 H226       -9.3202  -23.4626  -53.8330 H         1 UNK         0.0600 
    227 H227       -8.5062  -25.7472  -53.2266 H         1 UNK         0.0600 
    228 H228       -8.4184  -25.4624  -54.9599 H         1 UNK         0.0600 
    229 H229       -6.9551  -25.3965  -53.9872 H         1 UNK         0.0600 
    230 H230       -8.5720  -21.1847  -54.1348 H         1 UNK         0.3000 
    231 H231       -7.8278  -19.4822  -55.3556 H         1 UNK         0.0600 
    232 H232       -7.1233  -21.5089  -57.5451 H         1 UNK         0.0600 
    233 H233       -7.2935  -19.7721  -57.7453 H         1 UNK         0.0600 
    234 H234       -8.6957  -20.7429  -57.3256 H         1 UNK         0.0600 
    235 H235       -6.2687  -19.9578  -53.3978 H         1 UNK         0.3000 
    236 H236       -3.6003  -20.7007  -53.7292 H         1 UNK         0.0600 
    237 H237       -4.6962  -20.4447  -51.5233 H         1 UNK         0.0600 
    238 H238       -3.2451  -19.4600  -51.5875 H         1 UNK         0.0600 
    239 H239       -4.8249  -18.7019  -51.7523 H         1 UNK         0.0600 
    240 H240       -1.9221  -19.8404  -54.7117 H         1 UNK         0.3000 
    241 H241       -0.5450  -18.5614  -55.8166 H         1 UNK         0.0600 
    242 H242       -3.5618  -18.9831  -56.9081 H         1 UNK         0.3800 
    243 H243       -3.4421  -18.0236  -58.3595 H         1 UNK         0.3800 
    244 H244       -0.2520  -16.1421  -55.4078 H         1 UNK         0.0800 
    245 H245       -1.7873  -16.0545  -54.6000 H         1 UNK         0.0800 
    246 H246        1.5419  -18.4374  -54.3017 H         1 UNK         0.0800 
    247 H247        1.8842  -16.7315  -54.4660 H         1 UNK         0.0800 
@<TRIPOS>BOND
     1    1    2 1    
     2    1  127 1    
     3    1  128 1    
     4    1  129 1    
     5    2    3 2    
     6    2    4 am   BACKBONE|DICT|INTERRES
     7    4    5 1    
     8    4  130 1    
     9    5    6 1    
    10    5   65 1    
    11    5  131 1    
    12    6    7 1    
    13    6  132 1    
    14    6  133 1    
    15    7    8 1    
    16    8    9 1    
    17    8  134 1    
    18    8  135 1    
    19    9   10 ar   
    20    9   14 ar   
    21   10   11 ar   
    22   10  136 1    
    23   11   12 ar   
    24   11  126 1    
    25   12   13 ar   
    26   12  137 1    
    27   13   14 ar   
    28   13   15 1    
    29   14  138 1    
    30   15   16 1    
    31   15  139 1    
    32   15  140 1    
    33   16   17 1    
    34   17   18 1    
    35   17  141 1    
    36   17  142 1    
    37   18   19 1    
    38   18   67 1    
    39   18  143 1    
    40   19   20 am   BACKBONE|DICT|INTERRES
    41   19  144 1    
    42   20   21 2    
    43   20   22 1    
    44   22   23 1    
    45   22   24 1    
    46   22  145 1    
    47   23  146 1    
    48   23  147 1    
    49   23  148 1    
    50   24   25 am   BACKBONE|DICT|INTERRES
    51   24  149 1    
    52   25   26 2    
    53   25   27 1    
    54   27   28 1    
    55   27   29 1    
    56   27  150 1    
    57   28  151 1    
    58   28  152 1    
    59   28  153 1    
    60   29   30 am   BACKBONE|DICT|INTERRES
    61   29  154 1    
    62   30   31 2    
    63   30   32 1    
    64   32   33 1    
    65   32   34 1    
    66   32  155 1    
    67   33  156 1    
    68   33  157 1    
    69   33  158 1    
    70   34   35 am   BACKBONE|DICT|INTERRES
    71   34  159 1    
    72   35   36 2    
    73   35   37 1    
    74   37   38 1    
    75   37   39 1    
    76   37  160 1    
    77   38  161 1    
    78   38  162 1    
    79   38  163 1    
    80   39   40 am   BACKBONE|DICT|INTERRES
    81   39  164 1    
    82   40   41 2    
    83   40   42 1    
    84   42   43 1    
    85   42   44 1    
    86   42  165 1    
    87   43  166 1    
    88   43  167 1    
    89   43  168 1    
    90   44   45 am   BACKBONE|DICT|INTERRES
    91   44  169 1    
    92   45   46 2    
    93   45   47 1    
    94   47   48 1    
    95   47   49 1    
    96   47  170 1    
    97   48  171 1    
    98   48  172 1    
    99   48  173 1    
   100   49   50 am   BACKBONE|DICT|INTERRES
   101   49  174 1    
   102   50   51 2    
   103   50   52 1    
   104   52   53 1    
   105   52   54 1    
   106   52  175 1    
   107   53  176 1    
   108   53  177 1    
   109   53  178 1    
   110   54   55 am   BACKBONE|DICT|INTERRES
   111   54  179 1    
   112   55   56 2    
   113   55   57 1    
   114   57   58 1    
   115   57   59 1    
   116   57  180 1    
   117   58  181 1    
   118   58  182 1    
   119   58  183 1    
   120   59   60 am   BACKBONE|DICT|INTERRES
   121   59  184 1    
   122   60   61 2    
   123   60   62 1    
   124   62   63 1    
   125   62   64 1    
   126   62  185 1    
   127   63  186 1    
   128   63  187 1    
   129   63  188 1    
   130   64   65 am   BACKBONE|DICT|INTERRES
   131   64  189 1    
   132   65   66 2    
   133   67   68 2    
   134   67   69 am   BACKBONE|DICT|INTERRES
   135   69   70 1    
   136   69  190 1    
   137   70   71 1    
   138   70   72 1    
   139   70  191 1    
   140   71  192 1    
   141   71  193 1    
   142   71  194 1    
   143   72   73 2    
   144   72   74 am   BACKBONE|DICT|INTERRES
   145   74   75 1    
   146   74  195 1    
   147   75   76 1    
   148   75   77 1    
   149   75  196 1    
   150   76  197 1    
   151   76  198 1    
   152   76  199 1    
   153   77   78 2    
   154   77   79 am   BACKBONE|DICT|INTERRES
   155   79   80 1    
   156   79  200 1    
   157   80   81 1    
   158   80   82 1    
   159   80  201 1    
   160   81  202 1    
   161   81  203 1    
   162   81  204 1    
   163   82   83 2    
   164   82   84 am   BACKBONE|DICT|INTERRES
   165   84   85 1    
   166   84  205 1    
   167   85   86 1    
   168   85   87 1    
   169   85  206 1    
   170   86  207 1    
   171   86  208 1    
   172   86  209 1    
   173   87   88 2    
   174   87   89 am   BACKBONE|DICT|INTERRES
   175   89   90 1    
   176   89  210 1    
   177   90   91 1    
   178   90   92 1    
   179   90  211 1    
   180   91  212 1    
   181   91  213 1    
   182   91  214 1    
   183   92   93 2    
   184   92   94 am   BACKBONE|DICT|INTERRES
   185   94   95 1    
   186   94  215 1    
   187   95   96 1    
   188   95   97 1    
   189   95  216 1    
   190   96  217 1    
   191   96  218 1    
   192   96  219 1    
   193   97   98 2    
   194   97   99 am   BACKBONE|DICT|INTERRES
   195   99  100 1    
   196   99  220 1    
   197  100  101 1    
   198  100  102 1    
   199  100  221 1    
   200  101  222 1    
   201  101  223 1    
   202  101  224 1    
   203  102  103 2    
   204  102  104 am   BACKBONE|DICT|INTERRES
   205  104  105 1    
   206  104  225 1    
   207  105  106 1    
   208  105  107 1    
   209  105  226 1    
   210  106  227 1    
   211  106  228 1    
   212  106  229 1    
   213  107  108 2    
   214  107  109 am   BACKBONE|DICT|INTERRES
   215  109  110 1    
   216  109  230 1    
   217  110  111 1    
   218  110  112 1    
   219  110  231 1    
   220  111  232 1    
   221  111  233 1    
   222  111  234 1    
   223  112  113 2    
   224  112  114 am   BACKBONE|DICT|INTERRES
   225  114  115 1    
   226  114  235 1    
   227  115  116 1    
   228  115  117 1    
   229  115  236 1    
   230  116  237 1    
   231  116  238 1    
   232  116  239 1    
   233  117  118 2    
   234  117  119 am   BACKBONE|DICT|INTERRES
   235  119  120 1    
   236  119  240 1    
   237  120  121 1    
   238  120  124 1    
   239  120  241 1    
   240  121  122 am   BACKBONE|DICT|INTERRES
   241  121  123 2    
   242  122  242 1    
   243  122  243 1    
   244  124  125 1    
   245  124  244 1    
   246  124  245 1    
   247  125  126 1    
   248  126  246 1    
   249  126  247 1    
@<TRIPOS>SUBSTRUCTURE
     1 UNK         1 GROUP             0       ****    0 ROOT    
