@<TRIPOS>MOLECULE
3R540
247   249    1
SMALL
USER_CHARGES


@<TRIPOS>ATOM
      1 CA         -4.9302  -19.8625  -45.4195 C.3       0 UNK        -0.1800 
      2 C          -3.9576  -18.7091  -45.6027 C.2       0 UNK         0.5000 
      3 O          -4.1919  -17.6199  -45.0827 O.2       0 UNK        -0.5000 
      4 N          -2.8505  -18.9442  -46.3157 N.am      1 UNK        -0.5000 
      5 CA         -1.7672  -17.9735  -46.5234 C.3       1 UNK         0.1400 
      6 C6         -0.7905  -18.4700  -47.6100 C.3       23 UNK        -0.0398 
      7 S7          0.2791  -17.1718  -48.3050 S.3       23 UNK        -0.2404 
      8 C8          0.3709  -17.6341  -50.0688 C.3       23 UNK        -0.0205 
      9 C9          0.8110  -19.0726  -50.3479 C.ar      23 UNK        -0.0193 
     10 C10         0.2776  -19.7280  -51.4601 C.ar      23 UNK        -0.1150 
     11 C11         0.6333  -21.0453  -51.7528 C.ar      23 UNK        -0.0193 
     12 C12         1.5217  -21.7192  -50.9113 C.ar      23 UNK        -0.1150 
     13 C13         2.0661  -21.0895  -49.7870 C.ar      23 UNK        -0.0193 
     14 C14         1.7298  -19.7513  -49.5344 C.ar      23 UNK        -0.1150 
     15 C15         3.0023  -21.9074  -48.8884 C.3       23 UNK        -0.0205 
     16 S16         3.3056  -21.2759  -47.1960 S.3       23 UNK        -0.2404 
     17 C17         1.6322  -21.2430  -46.4683 C.3       23 UNK        -0.0398 
     18 CA          1.2371  -22.4950  -45.6487 C.3       11 UNK         0.1400 
     19 N           2.2125  -22.8040  -44.5984 N.am      11 UNK        -0.5000 
     20 C           2.4945  -24.0340  -44.1463 C.2       10 UNK         0.5000 
     21 O           1.9041  -25.0435  -44.5322 O.2       10 UNK        -0.5000 
     22 CA          3.5888  -24.1685  -43.0683 C.3       10 UNK         0.1400 
     23 CB          4.9449  -24.4747  -43.7216 C.3       10 UNK        -0.1800 
     24 N           3.7274  -22.9815  -42.2258 N.am      10 UNK        -0.5000 
     25 C           2.7938  -22.5217  -41.3821 C.2       9 UNK         0.5000 
     26 O           1.7332  -23.1042  -41.1556 O.2       9 UNK        -0.5000 
     27 CA          3.0817  -21.1775  -40.6819 C.3       9 UNK         0.1400 
     28 CB          3.5564  -21.4214  -39.2411 C.3       9 UNK        -0.1800 
     29 N           4.0513  -20.3041  -41.3553 N.am      9 UNK        -0.5000 
     30 C           3.9889  -19.8555  -42.6172 C.2       8 UNK         0.5000 
     31 O           3.1379  -20.2106  -43.4364 O.2       8 UNK        -0.5000 
     32 CA          5.1196  -18.8950  -43.0335 C.3       8 UNK         0.1400 
     33 CB          6.4086  -19.6852  -43.3130 C.3       8 UNK        -0.1800 
     34 N           4.7982  -18.1056  -44.2215 N.am      8 UNK        -0.5000 
     35 C           3.8220  -17.1950  -44.3173 C.2       7 UNK         0.5000 
     36 O           3.0874  -16.8635  -43.3816 O.2       7 UNK        -0.5000 
     37 CA          3.6608  -16.5378  -45.6969 C.3       7 UNK         0.1400 
     38 CB          3.4097  -17.5807  -46.7992 C.3       7 UNK        -0.1800 
     39 N           2.5594  -15.5833  -45.6526 N.am      7 UNK        -0.5000 
     40 C           2.4223  -14.5029  -46.4297 C.2       6 UNK         0.5000 
     41 O           3.2099  -14.2078  -47.3299 O.2       6 UNK        -0.5000 
     42 CA          1.2255  -13.5749  -46.1433 C.3       6 UNK         0.1400 
     43 CB          0.1603  -13.6610  -47.2477 C.3       6 UNK        -0.1800 
     44 N           0.5866  -13.8718  -44.8634 N.am      6 UNK        -0.5000 
     45 C           0.8992  -13.3002  -43.6943 C.2       5 UNK         0.5000 
     46 O           1.7794  -12.4472  -43.5660 O.2       5 UNK        -0.5000 
     47 CA          0.0859  -13.7699  -42.4699 C.3       5 UNK         0.1400 
     48 CB          0.0732  -12.7439  -41.3180 C.3       5 UNK        -0.1800 
     49 N          -1.2764  -14.1865  -42.8195 N.am      5 UNK        -0.5000 
     50 C          -2.2614  -13.4404  -43.3455 C.2       4 UNK         0.5000 
     51 O          -2.1692  -12.2309  -43.5578 O.2       4 UNK        -0.5000 
     52 CA         -3.5697  -14.1689  -43.7225 C.3       4 UNK         0.1400 
     53 CB         -3.7045  -14.2667  -45.2510 C.3       4 UNK        -0.1800 
     54 N          -3.6670  -15.5171  -43.1613 N.am      4 UNK        -0.5000 
     55 C          -3.8678  -15.8064  -41.8689 C.2       3 UNK         0.5000 
     56 O          -4.1008  -14.9615  -41.0042 O.2       3 UNK        -0.5000 
     57 CA         -3.7268  -17.2871  -41.4724 C.3       3 UNK         0.1400 
     58 CB         -5.0547  -18.0361  -41.6612 C.3       3 UNK        -0.1800 
     59 N          -2.6656  -17.9672  -42.2219 N.am      3 UNK        -0.5000 
     60 C          -1.3538  -17.7304  -42.0698 C.2       2 UNK         0.5000 
     61 O          -0.8959  -16.9083  -41.2775 O.2       2 UNK        -0.5000 
     62 CA         -0.3946  -18.5335  -42.9672 C.3       2 UNK         0.1400 
     63 CB         -0.1772  -19.9277  -42.3651 C.3       2 UNK        -0.1800 
     64 N          -0.8833  -18.6662  -44.3397 N.am      2 UNK        -0.5000 
     65 C          -1.0467  -17.6451  -45.1951 C.2       1 UNK         0.5000 
     66 O          -0.7172  -16.4840  -44.9438 O.2       1 UNK        -0.5000 
     67 C          -0.1986  -22.3741  -45.0761 C.2       11 UNK         0.5000 
     68 O          -0.9281  -21.4385  -45.4162 O.2       11 UNK        -0.5000 
     69 N          -0.5848  -23.3064  -44.1962 N.am      12 UNK        -0.5000 
     70 CA         -1.8947  -23.3431  -43.5416 C.3       12 UNK         0.1400 
     71 CB         -1.7940  -24.1903  -42.2650 C.3       12 UNK        -0.1800 
     72 C          -3.0082  -23.8733  -44.4621 C.2       12 UNK         0.5000 
     73 O          -4.1481  -23.4217  -44.3578 O.2       12 UNK        -0.5000 
     74 N          -2.6553  -24.8108  -45.3514 N.am      13 UNK        -0.5000 
     75 CA         -3.5609  -25.4172  -46.3331 C.3       13 UNK         0.1400 
     76 CB         -3.1056  -26.8647  -46.5815 C.3       13 UNK        -0.1800 
     77 C          -3.6188  -24.6330  -47.6607 C.2       13 UNK         0.5000 
     78 O          -4.4136  -24.9789  -48.5361 O.2       13 UNK        -0.5000 
     79 N          -2.7573  -23.6190  -47.8025 N.am      14 UNK        -0.5000 
     80 CA         -2.6298  -22.7715  -48.9836 C.3       14 UNK         0.1400 
     81 CB         -1.3258  -21.9797  -48.8523 C.3       14 UNK        -0.1800 
     82 C          -3.8092  -21.7991  -49.1571 C.2       14 UNK         0.5000 
     83 O          -4.5129  -21.4971  -48.1917 O.2       14 UNK        -0.5000 
     84 N          -3.9630  -21.2792  -50.3805 N.am      15 UNK        -0.5000 
     85 CA         -4.8818  -20.1869  -50.6954 C.3       15 UNK         0.1400 
     86 CB         -5.0270  -20.0732  -52.2190 C.3       15 UNK        -0.1800 
     87 C          -4.3744  -18.8620  -50.0986 C.2       15 UNK         0.5000 
     88 O          -3.1794  -18.5776  -50.1818 O.2       15 UNK        -0.5000 
     89 N          -5.2909  -18.0725  -49.5250 N.am      16 UNK        -0.5000 
     90 CA         -4.9875  -16.8350  -48.7981 C.3       16 UNK         0.1400 
     91 CB         -6.2299  -16.4130  -47.9989 C.3       16 UNK        -0.1800 
     92 C          -4.4852  -15.6713  -49.6757 C.2       16 UNK         0.5000 
     93 O          -3.8764  -14.7417  -49.1454 O.2       16 UNK        -0.5000 
     94 N          -4.7484  -15.7344  -50.9861 N.am      17 UNK        -0.5000 
     95 CA         -4.3163  -14.7427  -51.9706 C.3       17 UNK         0.1400 
     96 CB         -5.2623  -13.5285  -51.9660 C.3       17 UNK        -0.1800 
     97 C          -4.2197  -15.3587  -53.3726 C.2       17 UNK         0.5000 
     98 O          -3.2787  -15.0509  -54.1054 O.2       17 UNK        -0.5000 
     99 N          -5.1750  -16.2332  -53.7229 N.am      18 UNK        -0.5000 
    100 CA        -5.2731  -16.9185  -55.0157 C.3       18 UNK         0.1400 
    101 CB        -6.7238  -17.3967  -55.2098 C.3       18 UNK        -0.1800 
    102 C         -4.2509  -18.0665  -55.1674 C.2       18 UNK         0.5000 
    103 O         -4.6330  -19.2073  -55.4276 O.2       18 UNK        -0.5000 
    104 N         -2.9602  -17.7478  -55.0089 N.am      19 UNK        -0.5000 
    105 CA        -1.8262  -18.6782  -55.0489 C.3       19 UNK         0.1400 
    106 CB        -0.5444  -17.9087  -54.6967 C.3       19 UNK        -0.1800 
    107 C         -1.6570  -19.4267  -56.3877 C.2       19 UNK         0.5000 
    108 O         -1.0542  -20.4989  -56.4099 O.2       19 UNK        -0.5000 
    109 N         -2.2180  -18.8741  -57.4718 N.am      20 UNK        -0.5000 
    110 CA        -2.3086  -19.5093  -58.7883 C.3       20 UNK         0.1400 
    111 CB        -2.7133  -18.4449  -59.8200 C.3       20 UNK        -0.1800 
    112 C         -3.2897  -20.7021  -58.8327 C.2       20 UNK         0.5000 
    113 O         -3.2037  -21.5141  -59.7546 O.2       20 UNK        -0.5000 
    114 N         -4.1956  -20.7907  -57.8503 N.am      21 UNK        -0.5000 
    115 CA        -5.1966  -21.8432  -57.6937 C.3       21 UNK         0.1400 
    116 CB        -6.5831  -21.2662  -58.0344 C.3       21 UNK        -0.1800 
    117 C         -5.1185  -22.4191  -56.2669 C.2       21 UNK         0.5000 
    118 O         -6.1494  -22.6254  -55.6236 O.2       21 UNK        -0.5000 
    119 N         -3.8850  -22.6382  -55.7906 N.am      22 UNK        -0.5000 
    120 CA        -3.5605  -23.1576  -54.4537 C.3       22 UNK         0.1400 
    121 C         -4.1698  -24.5590  -54.1602 C.2       22 UNK         0.5000 
    122 N         -4.6564  -24.7947  -52.9491 N.am      22 UNK        -0.7600 
    123 O         -4.1629  -25.4473  -55.0100 O.2       22 UNK        -0.5000 
    124 C124       -2.0250  -23.1588  -54.2115 C.3       23 UNK        -0.0398 
    125 S125       -1.5829  -22.4655  -52.5858 S.3       23 UNK        -0.2404 
    126 C126        0.0414  -21.7410  -52.9667 C.3       23 UNK        -0.0205 
    127 H127       -5.7557  -19.7715  -46.1251 H         1 UNK         0.0600 
    128 H128       -5.3387  -19.8609  -44.4093 H         1 UNK         0.0600 
    129 H129       -4.4422  -20.8240  -45.5807 H         1 UNK         0.0600 
    130 H130       -2.7028  -19.8689  -46.6952 H         1 UNK         0.3000 
    131 H131       -2.2229  -17.0472  -46.8779 H         1 UNK         0.0600 
    132 H132       -1.3504  -18.9148  -48.4316 H         1 UNK         0.0800 
    133 H133       -0.1591  -19.2591  -47.2161 H         1 UNK         0.0800 
    134 H134       -0.6110  -17.4525  -50.5096 H         1 UNK         0.0800 
    135 H135        1.0639  -16.9570  -50.5690 H         1 UNK         0.0800 
    136 H136       -0.4325  -19.2172  -52.0939 H         1 UNK         0.1150 
    137 H137        1.7795  -22.7468  -51.1266 H         1 UNK         0.1150 
    138 H138        2.1602  -19.2419  -48.6874 H         1 UNK         0.1150 
    139 H139        2.6135  -22.9228  -48.7969 H         1 UNK         0.0800 
    140 H140        3.9651  -21.9938  -49.3933 H         1 UNK         0.0800 
    141 H141        0.9238  -21.1176  -47.2821 H         1 UNK         0.0800 
    142 H142        1.5630  -20.3484  -45.8465 H         1 UNK         0.0800 
    143 H143        1.2117  -23.3309  -46.3510 H         1 UNK         0.0600 
    144 H144        2.6927  -22.0043  -44.1959 H         1 UNK         0.3000 
    145 H145        3.3182  -25.0090  -42.4258 H         1 UNK         0.0600 
    146 H146        4.8875  -25.3724  -44.3386 H         1 UNK         0.0600 
    147 H147        5.2758  -23.6564  -44.3628 H         1 UNK         0.0600 
    148 H148        5.7159  -24.6470  -42.9704 H         1 UNK         0.0600 
    149 H149        4.5653  -22.4333  -42.3487 H         1 UNK         0.3000 
    150 H150        2.1396  -20.6331  -40.6345 H         1 UNK         0.0600 
    151 H151        4.5213  -21.9294  -39.2171 H         1 UNK         0.0600 
    152 H152        2.8453  -22.0415  -38.6933 H         1 UNK         0.0600 
    153 H153        3.6549  -20.4844  -38.6927 H         1 UNK         0.0600 
    154 H154        4.8101  -19.9767  -40.7748 H         1 UNK         0.3000 
    155 H155        5.3004  -18.2012  -42.2100 H         1 UNK         0.0600 
    156 H156        6.2763  -20.3909  -44.1346 H         1 UNK         0.0600 
    157 H157        6.7223  -20.2561  -42.4381 H         1 UNK         0.0600 
    158 H158        7.2318  -19.0191  -43.5724 H         1 UNK         0.0600 
    159 H159        5.3265  -18.3301  -45.0513 H         1 UNK         0.3000 
    160 H160        4.5873  -16.0017  -45.9122 H         1 UNK         0.0600 
    161 H161        2.5246  -18.1772  -46.5783 H         1 UNK         0.0600 
    162 H162        4.2505  -18.2662  -46.9054 H         1 UNK         0.0600 
    163 H163        3.2651  -17.1059  -47.7695 H         1 UNK         0.0600 
    164 H164        1.8999  -15.7360  -44.9002 H         1 UNK         0.3000 
    165 H165        1.6113  -12.5535  -46.1342 H         1 UNK         0.0600 
    166 H166       -0.3802  -14.6061  -47.2128 H         1 UNK         0.0600 
    167 H167        0.6043  -13.5671  -48.2395 H         1 UNK         0.0600 
    168 H168       -0.5738  -12.8621  -47.1423 H         1 UNK         0.0600 
    169 H169       -0.1025  -14.6190  -44.8691 H         1 UNK         0.3000 
    170 H170        0.5898  -14.6659  -42.1047 H         1 UNK         0.0600 
    171 H171        1.0834  -12.5517  -40.9550 H         1 UNK         0.0600 
    172 H172       -0.3486  -11.7880  -41.6294 H         1 UNK         0.0600 
    173 H173       -0.5098  -13.1095  -40.4726 H         1 UNK         0.0600 
    174 H174       -1.4629  -15.1722  -42.6919 H         1 UNK         0.3000 
    175 H175       -4.4014  -13.5743  -43.3394 H         1 UNK         0.0600 
    176 H176       -4.6448  -14.7394  -45.5339 H         1 UNK         0.0600 
    177 H177       -3.6855  -13.2788  -45.7128 H         1 UNK         0.0600 
    178 H178       -2.8936  -14.8487  -45.6905 H         1 UNK         0.0600 
    179 H179       -3.5749  -16.2862  -43.8193 H         1 UNK         0.3000 
    180 H180       -3.4664  -17.3238  -40.4124 H         1 UNK         0.0600 
    181 H181       -5.3910  -18.0113  -42.6976 H         1 UNK         0.0600 
    182 H182       -5.8417  -17.5877  -41.0537 H         1 UNK         0.0600 
    183 H183       -4.9671  -19.0801  -41.3600 H         1 UNK         0.0600 
    184 H184       -2.9597  -18.6307  -42.9224 H         1 UNK         0.3000 
    185 H185        0.5649  -18.0128  -42.9935 H         1 UNK         0.0600 
    186 H186        0.5838  -20.4840  -42.9098 H         1 UNK         0.0600 
    187 H187        0.1471  -19.8530  -41.3278 H         1 UNK         0.0600 
    188 H188       -1.0940  -20.5152  -42.3713 H         1 UNK         0.0600 
    189 H189       -1.1420  -19.5992  -44.6449 H         1 UNK         0.3000 
    190 H190        0.0725  -24.0399  -43.9602 H         1 UNK         0.3000 
    191 H191       -2.1730  -22.3287  -43.2521 H         1 UNK         0.0600 
    192 H192       -1.5009  -25.2177  -42.4843 H         1 UNK         0.0600 
    193 H193       -2.7503  -24.2247  -41.7415 H         1 UNK         0.0600 
    194 H194       -1.0607  -23.7728  -41.5745 H         1 UNK         0.0600 
    195 H195       -1.6974  -25.1300  -45.3620 H         1 UNK         0.3000 
    196 H196       -4.5743  -25.4458  -45.9271 H         1 UNK         0.0600 
    197 H197       -3.7756  -27.3736  -47.2758 H         1 UNK         0.0600 
    198 H198       -3.1023  -27.4411  -45.6562 H         1 UNK         0.0600 
    199 H199       -2.1016  -26.9040  -47.0060 H         1 UNK         0.0600 
    200 H200       -2.1912  -23.3699  -47.0068 H         1 UNK         0.3000 
    201 H201       -2.5724  -23.4130  -49.8651 H         1 UNK         0.0600 
    202 H202       -1.1916  -21.3095  -49.6988 H         1 UNK         0.0600 
    203 H203       -1.3296  -21.3610  -47.9580 H         1 UNK         0.0600 
    204 H204       -0.4590  -22.6393  -48.8124 H         1 UNK         0.0600 
    205 H205       -3.2901  -21.5171  -51.0964 H         1 UNK         0.3000 
    206 H206       -5.8603  -20.4198  -50.2699 H         1 UNK         0.0600 
    207 H207       -4.0612  -19.9276  -52.7046 H         1 UNK         0.0600 
    208 H208       -5.6634  -19.2311  -52.4923 H         1 UNK         0.0600 
    209 H209       -5.4846  -20.9681  -52.6400 H         1 UNK         0.0600 
    210 H210       -6.2550  -18.3729  -49.5080 H         1 UNK         0.3000 
    211 H211       -4.1916  -17.0541  -48.0872 H         1 UNK         0.0600 
    212 H212       -7.0829  -16.2227  -48.6511 H         1 UNK         0.0600 
    213 H213       -6.0405  -15.5006  -47.4323 H         1 UNK         0.0600 
    214 H214       -6.5162  -17.1821  -47.2811 H         1 UNK         0.0600 
    215 H215       -5.1963  -16.5660  -51.3386 H         1 UNK         0.3000 
    216 H216       -3.3126  -14.4018  -51.7065 H         1 UNK         0.0600 
    217 H217       -4.9630  -12.7968  -52.7175 H         1 UNK         0.0600 
    218 H218       -5.2524  -13.0219  -51.0009 H         1 UNK         0.0600 
    219 H219       -6.2913  -13.8193  -52.1802 H         1 UNK         0.0600 
    220 H220       -5.9386  -16.3982  -53.0857 H         1 UNK         0.3000 
    221 H221       -5.0576  -16.1966  -55.8063 H         1 UNK         0.0600 
    222 H222       -7.0131  -18.1264  -54.4525 H         1 UNK         0.0600 
    223 H223       -7.4247  -16.5634  -55.1593 H         1 UNK         0.0600 
    224 H224       -6.8542  -17.8677  -56.1852 H         1 UNK         0.0600 
    225 H225       -2.7493  -16.7791  -54.7860 H         1 UNK         0.3000 
    226 H226       -1.9976  -19.4327  -54.2783 H         1 UNK         0.0600 
    227 H227       -0.6279  -17.4240  -53.7238 H         1 UNK         0.0600 
    228 H228        0.3162  -18.5776  -54.6540 H         1 UNK         0.0600 
    229 H229       -0.3251  -17.1371  -55.4358 H         1 UNK         0.0600 
    230 H230       -2.6837  -17.9854  -57.3644 H         1 UNK         0.3000 
    231 H231       -1.3197  -19.8880  -59.0551 H         1 UNK         0.0600 
    232 H232       -3.6940  -18.0221  -59.5980 H         1 UNK         0.0600 
    233 H233       -2.7589  -18.8700  -60.8236 H         1 UNK         0.0600 
    234 H234       -1.9924  -17.6276  -59.8480 H         1 UNK         0.0600 
    235 H235       -4.1833  -20.1063  -57.0986 H         1 UNK         0.3000 
    236 H236       -4.9925  -22.6720  -58.3743 H         1 UNK         0.0600 
    237 H237       -7.3563  -22.0321  -57.9647 H         1 UNK         0.0600 
    238 H238       -6.8556  -20.4565  -57.3559 H         1 UNK         0.0600 
    239 H239       -6.6067  -20.8736  -59.0510 H         1 UNK         0.0600 
    240 H240       -3.1016  -22.4332  -56.3931 H         1 UNK         0.3000 
    241 H241       -4.0252  -22.4513  -53.7646 H         1 UNK         0.0600 
    242 H242       -5.0380  -25.7054  -52.7458 H         1 UNK         0.3800 
    243 H243       -4.6629  -24.0870  -52.2325 H         1 UNK         0.3800 
    244 H244       -1.5177  -22.5670  -54.9719 H         1 UNK         0.0800 
    245 H245       -1.5902  -24.1566  -54.2997 H         1 UNK         0.0800 
    246 H246        0.7139  -22.5252  -53.3178 H         1 UNK         0.0800 
    247 H247       -0.0553  -21.0286  -53.7868 H         1 UNK         0.0800 
@<TRIPOS>BOND
     1    1    2 1    
     2    1  127 1    
     3    1  128 1    
     4    1  129 1    
     5    2    3 2    
     6    2    4 am   BACKBONE|DICT|INTERRES
     7    4    5 1    
     8    4  130 1    
     9    5    6 1    
    10    5   65 1    
    11    5  131 1    
    12    6    7 1    
    13    6  132 1    
    14    6  133 1    
    15    7    8 1    
    16    8    9 1    
    17    8  134 1    
    18    8  135 1    
    19    9   10 ar   
    20    9   14 ar   
    21   10   11 ar   
    22   10  136 1    
    23   11   12 ar   
    24   11  126 1    
    25   12   13 ar   
    26   12  137 1    
    27   13   14 ar   
    28   13   15 1    
    29   14  138 1    
    30   15   16 1    
    31   15  139 1    
    32   15  140 1    
    33   16   17 1    
    34   17   18 1    
    35   17  141 1    
    36   17  142 1    
    37   18   19 1    
    38   18   67 1    
    39   18  143 1    
    40   19   20 am   BACKBONE|DICT|INTERRES
    41   19  144 1    
    42   20   21 2    
    43   20   22 1    
    44   22   23 1    
    45   22   24 1    
    46   22  145 1    
    47   23  146 1    
    48   23  147 1    
    49   23  148 1    
    50   24   25 am   BACKBONE|DICT|INTERRES
    51   24  149 1    
    52   25   26 2    
    53   25   27 1    
    54   27   28 1    
    55   27   29 1    
    56   27  150 1    
    57   28  151 1    
    58   28  152 1    
    59   28  153 1    
    60   29   30 am   BACKBONE|DICT|INTERRES
    61   29  154 1    
    62   30   31 2    
    63   30   32 1    
    64   32   33 1    
    65   32   34 1    
    66   32  155 1    
    67   33  156 1    
    68   33  157 1    
    69   33  158 1    
    70   34   35 am   BACKBONE|DICT|INTERRES
    71   34  159 1    
    72   35   36 2    
    73   35   37 1    
    74   37   38 1    
    75   37   39 1    
    76   37  160 1    
    77   38  161 1    
    78   38  162 1    
    79   38  163 1    
    80   39   40 am   BACKBONE|DICT|INTERRES
    81   39  164 1    
    82   40   41 2    
    83   40   42 1    
    84   42   43 1    
    85   42   44 1    
    86   42  165 1    
    87   43  166 1    
    88   43  167 1    
    89   43  168 1    
    90   44   45 am   BACKBONE|DICT|INTERRES
    91   44  169 1    
    92   45   46 2    
    93   45   47 1    
    94   47   48 1    
    95   47   49 1    
    96   47  170 1    
    97   48  171 1    
    98   48  172 1    
    99   48  173 1    
   100   49   50 am   BACKBONE|DICT|INTERRES
   101   49  174 1    
   102   50   51 2    
   103   50   52 1    
   104   52   53 1    
   105   52   54 1    
   106   52  175 1    
   107   53  176 1    
   108   53  177 1    
   109   53  178 1    
   110   54   55 am   BACKBONE|DICT|INTERRES
   111   54  179 1    
   112   55   56 2    
   113   55   57 1    
   114   57   58 1    
   115   57   59 1    
   116   57  180 1    
   117   58  181 1    
   118   58  182 1    
   119   58  183 1    
   120   59   60 am   BACKBONE|DICT|INTERRES
   121   59  184 1    
   122   60   61 2    
   123   60   62 1    
   124   62   63 1    
   125   62   64 1    
   126   62  185 1    
   127   63  186 1    
   128   63  187 1    
   129   63  188 1    
   130   64   65 am   BACKBONE|DICT|INTERRES
   131   64  189 1    
   132   65   66 2    
   133   67   68 2    
   134   67   69 am   BACKBONE|DICT|INTERRES
   135   69   70 1    
   136   69  190 1    
   137   70   71 1    
   138   70   72 1    
   139   70  191 1    
   140   71  192 1    
   141   71  193 1    
   142   71  194 1    
   143   72   73 2    
   144   72   74 am   BACKBONE|DICT|INTERRES
   145   74   75 1    
   146   74  195 1    
   147   75   76 1    
   148   75   77 1    
   149   75  196 1    
   150   76  197 1    
   151   76  198 1    
   152   76  199 1    
   153   77   78 2    
   154   77   79 am   BACKBONE|DICT|INTERRES
   155   79   80 1    
   156   79  200 1    
   157   80   81 1    
   158   80   82 1    
   159   80  201 1    
   160   81  202 1    
   161   81  203 1    
   162   81  204 1    
   163   82   83 2    
   164   82   84 am   BACKBONE|DICT|INTERRES
   165   84   85 1    
   166   84  205 1    
   167   85   86 1    
   168   85   87 1    
   169   85  206 1    
   170   86  207 1    
   171   86  208 1    
   172   86  209 1    
   173   87   88 2    
   174   87   89 am   BACKBONE|DICT|INTERRES
   175   89   90 1    
   176   89  210 1    
   177   90   91 1    
   178   90   92 1    
   179   90  211 1    
   180   91  212 1    
   181   91  213 1    
   182   91  214 1    
   183   92   93 2    
   184   92   94 am   BACKBONE|DICT|INTERRES
   185   94   95 1    
   186   94  215 1    
   187   95   96 1    
   188   95   97 1    
   189   95  216 1    
   190   96  217 1    
   191   96  218 1    
   192   96  219 1    
   193   97   98 2    
   194   97   99 am   BACKBONE|DICT|INTERRES
   195   99  100 1    
   196   99  220 1    
   197  100  101 1    
   198  100  102 1    
   199  100  221 1    
   200  101  222 1    
   201  101  223 1    
   202  101  224 1    
   203  102  103 2    
   204  102  104 am   BACKBONE|DICT|INTERRES
   205  104  105 1    
   206  104  225 1    
   207  105  106 1    
   208  105  107 1    
   209  105  226 1    
   210  106  227 1    
   211  106  228 1    
   212  106  229 1    
   213  107  108 2    
   214  107  109 am   BACKBONE|DICT|INTERRES
   215  109  110 1    
   216  109  230 1    
   217  110  111 1    
   218  110  112 1    
   219  110  231 1    
   220  111  232 1    
   221  111  233 1    
   222  111  234 1    
   223  112  113 2    
   224  112  114 am   BACKBONE|DICT|INTERRES
   225  114  115 1    
   226  114  235 1    
   227  115  116 1    
   228  115  117 1    
   229  115  236 1    
   230  116  237 1    
   231  116  238 1    
   232  116  239 1    
   233  117  118 2    
   234  117  119 am   BACKBONE|DICT|INTERRES
   235  119  120 1    
   236  119  240 1    
   237  120  121 1    
   238  120  124 1    
   239  120  241 1    
   240  121  122 am   BACKBONE|DICT|INTERRES
   241  121  123 2    
   242  122  242 1    
   243  122  243 1    
   244  124  125 1    
   245  124  244 1    
   246  124  245 1    
   247  125  126 1    
   248  126  246 1    
   249  126  247 1    
@<TRIPOS>SUBSTRUCTURE
     1 UNK         1 GROUP             0       ****    0 ROOT    
