@<TRIPOS>MOLECULE
3R540
247   249    1
SMALL
USER_CHARGES


@<TRIPOS>ATOM
      1 CA         -2.6108  -12.1972  -50.3816 C.3       0 UNK        -0.1800 
      2 C          -2.0989  -12.9643  -49.1724 C.2       0 UNK         0.5000 
      3 O          -2.5489  -12.7097  -48.0551 O.2       0 UNK        -0.5000 
      4 N          -1.1718  -13.9084  -49.3937 N.am      1 UNK        -0.5000 
      5 CA         -0.4554  -14.7081  -48.3842 C.3       1 UNK         0.1400 
      6 C6          0.4752  -15.7583  -49.0387 C.3       23 UNK        -0.0398 
      7 S7          1.7531  -14.9768  -50.0772 S.3       23 UNK        -0.2404 
      8 C8          3.2592  -15.8342  -49.5204 C.3       23 UNK        -0.0205 
      9 C9          3.4540  -17.1559  -50.2490 C.ar      23 UNK        -0.0193 
     10 C10         3.9542  -17.1511  -51.5536 C.ar      23 UNK        -0.1150 
     11 C11         4.1761  -18.3493  -52.2350 C.ar      23 UNK        -0.0193 
     12 C12         3.9117  -19.5611  -51.5933 C.ar      23 UNK        -0.1150 
     13 C13         3.4104  -19.5862  -50.2871 C.ar      23 UNK        -0.0193 
     14 C14         3.1750  -18.3760  -49.6220 C.ar      23 UNK        -0.1150 
     15 C15         3.2072  -20.9156  -49.5666 C.3       23 UNK        -0.0205 
     16 S16         2.3167  -22.1648  -50.5602 S.3       23 UNK        -0.2404 
     17 C17         0.5747  -21.8556  -50.1149 C.3       23 UNK        -0.0398 
     18 CA          0.0229  -22.9237  -49.1353 C.3       11 UNK         0.1400 
     19 N           0.8198  -22.9516  -47.9067 N.am      11 UNK        -0.5000 
     20 C           0.6584  -23.7398  -46.8374 C.2       10 UNK         0.5000 
     21 O          -0.1865  -24.6278  -46.7518 O.2       10 UNK        -0.5000 
     22 CA          1.5582  -23.4100  -45.6289 C.3       10 UNK         0.1400 
     23 CB          2.8682  -24.2071  -45.7032 C.3       10 UNK        -0.1800 
     24 N           1.8703  -21.9800  -45.5083 N.am      10 UNK        -0.5000 
     25 C           0.9775  -20.9818  -45.4595 C.2       9 UNK         0.5000 
     26 O          -0.2427  -21.1604  -45.4591 O.2       9 UNK        -0.5000 
     27 CA          1.5552  -19.5549  -45.4696 C.3       9 UNK         0.1400 
     28 CB          0.5355  -18.5220  -45.9824 C.3       9 UNK        -0.1800 
     29 N           2.0280  -19.1394  -44.1540 N.am      9 UNK        -0.5000 
     30 C           3.1025  -19.6112  -43.5090 C.2       8 UNK         0.5000 
     31 O           3.8391  -20.4889  -43.9621 O.2       8 UNK        -0.5000 
     32 CA          3.4258  -18.9883  -42.1402 C.3       8 UNK         0.1400 
     33 CB          4.4302  -17.8377  -42.3110 C.3       8 UNK        -0.1800 
     34 N           2.2316  -18.4692  -41.4698 N.am      8 UNK        -0.5000 
     35 C           1.6143  -19.0553  -40.4359 C.2       7 UNK         0.5000 
     36 O           1.9696  -20.1299  -39.9497 O.2       7 UNK        -0.5000 
     37 CA          0.4127  -18.3144  -39.8134 C.3       7 UNK         0.1400 
     38 CB          0.8566  -17.5379  -38.5639 C.3       7 UNK        -0.1800 
     39 N          -0.2468  -17.3854  -40.7328 N.am      7 UNK        -0.5000 
     40 C          -1.0887  -17.7536  -41.7073 C.2       6 UNK         0.5000 
     41 O          -1.4165  -18.9208  -41.9204 O.2       6 UNK        -0.5000 
     42 CA         -1.6575  -16.6313  -42.6008 C.3       6 UNK         0.1400 
     43 CB         -2.9620  -16.0925  -41.9942 C.3       6 UNK        -0.1800 
     44 N          -0.7628  -15.4965  -42.8627 N.am      6 UNK        -0.5000 
     45 C           0.5018  -15.5605  -43.3054 C.2       5 UNK         0.5000 
     46 O           1.1518  -16.6027  -43.3596 O.2       5 UNK        -0.5000 
     47 CA          1.1392  -14.2455  -43.7801 C.3       5 UNK         0.1400 
     48 CB          2.2852  -14.4737  -44.7851 C.3       5 UNK        -0.1800 
     49 N           0.1285  -13.3871  -44.3934 N.am      5 UNK        -0.5000 
     50 C           0.0573  -12.0601  -44.2426 C.2       4 UNK         0.5000 
     51 O           0.8246  -11.4114  -43.5302 O.2       4 UNK        -0.5000 
     52 CA         -1.0430  -11.3200  -45.0238 C.3       4 UNK         0.1400 
     53 CB         -0.4731  -10.7601  -46.3365 C.3       4 UNK        -0.1800 
     54 N          -2.2201  -12.1353  -45.3298 N.am      4 UNK        -0.5000 
     55 C          -3.1269  -12.5422  -44.4306 C.2       3 UNK         0.5000 
     56 O          -3.0062  -12.3761  -43.2168 O.2       3 UNK        -0.5000 
     57 CA         -4.3764  -13.2513  -44.9766 C.3       3 UNK         0.1400 
     58 CB         -5.3486  -12.2331  -45.5936 C.3       3 UNK        -0.1800 
     59 N          -4.0110  -14.2390  -45.9888 N.am      3 UNK        -0.5000 
     60 C          -4.1604  -15.5632  -45.8556 C.2       2 UNK         0.5000 
     61 O          -4.7141  -16.0981  -44.8954 O.2       2 UNK        -0.5000 
     62 CA         -3.5941  -16.4581  -46.9769 C.3       2 UNK         0.1400 
     63 CB         -4.7208  -16.9480  -47.8988 C.3       2 UNK        -0.1800 
     64 N          -2.5635  -15.8250  -47.8004 N.am      2 UNK        -0.5000 
     65 C          -1.3717  -15.4025  -47.3582 C.2       1 UNK         0.5000 
     66 O          -1.0005  -15.5009  -46.1904 O.2       1 UNK        -0.5000 
     67 C          -1.4811  -22.6834  -48.8721 C.2       11 UNK         0.5000 
     68 O          -2.3217  -23.2509  -49.5726 O.2       11 UNK        -0.5000 
     69 N          -1.7895  -21.8551  -47.8644 N.am      12 UNK        -0.5000 
     70 CA         -3.1484  -21.5651  -47.4201 C.3       12 UNK         0.1400 
     71 CB         -3.2208  -20.1101  -46.9375 C.3       12 UNK        -0.1800 
     72 C          -3.5925  -22.5303  -46.3100 C.2       12 UNK         0.5000 
     73 O          -4.7445  -22.9633  -46.3151 O.2       12 UNK        -0.5000 
     74 N          -2.6780  -22.8649  -45.3873 N.am      13 UNK        -0.5000 
     75 CA         -2.9364  -23.7585  -44.2537 C.3       13 UNK         0.1400 
     76 CB         -1.7233  -23.7655  -43.3135 C.3       13 UNK        -0.1800 
     77 C          -3.3030  -25.1951  -44.6745 C.2       13 UNK         0.5000 
     78 O          -4.1307  -25.8274  -44.0160 O.2       13 UNK        -0.5000 
     79 N          -2.7168  -25.6736  -45.7805 N.am      14 UNK        -0.5000 
     80 CA         -3.0090  -26.9568  -46.4190 C.3       14 UNK         0.1400 
     81 CB         -1.8325  -27.3345  -47.3369 C.3       14 UNK        -0.1800 
     82 C          -4.3552  -26.9297  -47.1732 C.2       14 UNK         0.5000 
     83 O          -4.3803  -27.0344  -48.3999 O.2       14 UNK        -0.5000 
     84 N          -5.4525  -26.7627  -46.4214 N.am      15 UNK        -0.5000 
     85 CA         -6.8547  -26.7992  -46.8595 C.3       15 UNK         0.1400 
     86 CB         -7.2538  -28.2467  -47.2144 C.3       15 UNK        -0.1800 
     87 C          -7.1961  -25.8002  -47.9888 C.2       15 UNK         0.5000 
     88 O          -8.0626  -26.0830  -48.8181 O.2       15 UNK        -0.5000 
     89 N          -6.4971  -24.6557  -48.0051 N.am      16 UNK        -0.5000 
     90 CA         -6.5768  -23.5782  -48.9947 C.3       16 UNK         0.1400 
     91 CB         -7.9424  -22.8635  -48.9167 C.3       16 UNK        -0.1800 
     92 C          -6.1981  -23.9994  -50.4315 C.2       16 UNK         0.5000 
     93 O          -6.6368  -23.3518  -51.3835 O.2       16 UNK        -0.5000 
     94 N          -5.3797  -25.0547  -50.5740 N.am      17 UNK        -0.5000 
     95 CA         -4.9903  -25.6520  -51.8564 C.3       17 UNK         0.1400 
     96 CB         -4.1456  -26.9086  -51.5990 C.3       17 UNK        -0.1800 
     97 C          -4.2501  -24.7005  -52.8162 C.2       17 UNK         0.5000 
     98 O          -4.3896  -24.8464  -54.0315 O.2       17 UNK        -0.5000 
     99 N          -3.4957  -23.7433  -52.2652 N.am      18 UNK        -0.5000 
    100 CA        -2.7675  -22.7218  -53.0124 C.3       18 UNK         0.1400 
    101 CB        -1.3331  -23.2140  -53.2843 C.3       18 UNK        -0.1800 
    102 C         -2.8374  -21.3687  -52.2814 C.2       18 UNK         0.5000 
    103 O         -1.8665  -20.6098  -52.2952 O.2       18 UNK        -0.5000 
    104 N         -3.9850  -21.0916  -51.6424 N.am      19 UNK        -0.5000 
    105 CA        -4.2653  -19.8813  -50.8670 C.3       19 UNK         0.1400 
    106 CB        -5.6824  -19.9689  -50.2775 C.3       19 UNK        -0.1800 
    107 C         -4.0852  -18.5928  -51.6910 C.2       19 UNK         0.5000 
    108 O         -4.9428  -18.2695  -52.5144 O.2       19 UNK        -0.5000 
    109 N         -2.9510  -17.9132  -51.4636 N.am      20 UNK        -0.5000 
    110 CA        -2.4928  -16.6989  -52.1474 C.3       20 UNK         0.1400 
    111 CB        -3.4258  -15.5105  -51.8341 C.3       20 UNK        -0.1800 
    112 C         -2.2547  -16.8875  -53.6629 C.2       20 UNK         0.5000 
    113 O         -2.3288  -15.9141  -54.4154 O.2       20 UNK        -0.5000 
    114 N         -1.9420  -18.1222  -54.0901 N.am      21 UNK        -0.5000 
    115 CA        -1.7367  -18.4974  -55.4959 C.3       21 UNK         0.1400 
    116 CB        -1.5486  -20.0180  -55.5940 C.3       21 UNK        -0.1800 
    117 C         -0.5658  -17.7662  -56.1823 C.2       21 UNK         0.5000 
    118 O         -0.6015  -17.5682  -57.3976 O.2       21 UNK        -0.5000 
    119 N          0.4304  -17.3589  -55.3883 N.am      22 UNK        -0.5000 
    120 CA         1.5603  -16.5184  -55.8115 C.3       22 UNK         0.1400 
    121 C          1.2110  -15.0064  -55.9653 C.2       22 UNK         0.5000 
    122 N          0.0126  -14.5460  -55.6228 N.am      22 UNK        -0.7600 
    123 O          2.0473  -14.2298  -56.4186 O.2       22 UNK        -0.5000 
    124 C124        2.7852  -16.7140  -54.8836 C.3       23 UNK        -0.0398 
    125 S125        3.3998  -18.4327  -54.8939 S.3       23 UNK        -0.2404 
    126 C126        4.7269  -18.3405  -53.6527 C.3       23 UNK        -0.0205 
    127 H127       -2.5309  -11.1248  -50.2043 H         1 UNK         0.0600 
    128 H128       -3.6587  -12.4373  -50.5607 H         1 UNK         0.0600 
    129 H129       -2.0444  -12.4345  -51.2823 H         1 UNK         0.0600 
    130 H130       -0.8368  -14.0351  -50.3380 H         1 UNK         0.3000 
    131 H131        0.1656  -14.0108  -47.8179 H         1 UNK         0.0600 
    132 H132       -0.0938  -16.4545  -49.6565 H         1 UNK         0.0800 
    133 H133        0.9625  -16.3640  -48.2730 H         1 UNK         0.0800 
    134 H134        3.2422  -15.9778  -48.4390 H         1 UNK         0.0800 
    135 H135        4.1166  -15.1898  -49.7202 H         1 UNK         0.0800 
    136 H136        4.1740  -16.2095  -52.0371 H         1 UNK         0.1150 
    137 H137        4.1078  -20.4894  -52.1113 H         1 UNK         0.1150 
    138 H138        2.8052  -18.3816  -48.6065 H         1 UNK         0.1150 
    139 H139        4.1921  -21.3162  -49.3230 H         1 UNK         0.0800 
    140 H140        2.6982  -20.7669  -48.6141 H         1 UNK         0.0800 
    141 H141        0.0052  -21.8554  -51.0419 H         1 UNK         0.0800 
    142 H142        0.4732  -20.8496  -49.7035 H         1 UNK         0.0800 
    143 H143        0.1134  -23.9062  -49.6029 H         1 UNK         0.0600 
    144 H144        1.5694  -22.2802  -47.8644 H         1 UNK         0.3000 
    145 H145        1.0309  -23.7067  -44.7234 H         1 UNK         0.0600 
    146 H146        3.4801  -24.0435  -44.8158 H         1 UNK         0.0600 
    147 H147        2.6706  -25.2780  -45.7678 H         1 UNK         0.0600 
    148 H148        3.4606  -23.9285  -46.5757 H         1 UNK         0.0600 
    149 H149        2.8478  -21.7368  -45.3959 H         1 UNK         0.3000 
    150 H150        2.4049  -19.5447  -46.1553 H         1 UNK         0.0600 
    151 H151        0.1599  -18.7916  -46.9703 H         1 UNK         0.0600 
    152 H152        0.9884  -17.5341  -46.0644 H         1 UNK         0.0600 
    153 H153       -0.3234  -18.4354  -45.3152 H         1 UNK         0.0600 
    154 H154        1.5286  -18.3593  -43.7359 H         1 UNK         0.3000 
    155 H155        3.8996  -19.7611  -41.5315 H         1 UNK         0.0600 
    156 H156        4.7154  -17.4182  -41.3461 H         1 UNK         0.0600 
    157 H157        4.0183  -17.0307  -42.9185 H         1 UNK         0.0600 
    158 H158        5.3430  -18.1834  -42.7979 H         1 UNK         0.0600 
    159 H159        1.8326  -17.6227  -41.8625 H         1 UNK         0.3000 
    160 H160       -0.3122  -19.0695  -39.5015 H         1 UNK         0.0600 
    161 H161        1.5780  -16.7576  -38.8100 H         1 UNK         0.0600 
    162 H162        1.3266  -18.2018  -37.8370 H         1 UNK         0.0600 
    163 H163        0.0069  -17.0669  -38.0692 H         1 UNK         0.0600 
    164 H164       -0.0283  -16.4053  -40.6304 H         1 UNK         0.3000 
    165 H165       -1.8901  -17.0761  -43.5706 H         1 UNK         0.0600 
    166 H166       -3.4180  -15.3400  -42.6368 H         1 UNK         0.0600 
    167 H167       -3.6925  -16.8920  -41.8641 H         1 UNK         0.0600 
    168 H168       -2.7929  -15.6369  -41.0177 H         1 UNK         0.0600 
    169 H169       -1.1935  -14.5835  -42.8323 H         1 UNK         0.3000 
    170 H170        1.5496  -13.7687  -42.8879 H         1 UNK         0.0600 
    171 H171        3.0844  -15.0708  -44.3447 H         1 UNK         0.0600 
    172 H172        1.9350  -14.9965  -45.6762 H         1 UNK         0.0600 
    173 H173        2.7261  -13.5288  -45.1026 H         1 UNK         0.0600 
    174 H174       -0.5372  -13.8638  -44.9932 H         1 UNK         0.3000 
    175 H175       -1.3694  -10.4780  -44.4098 H         1 UNK         0.0600 
    176 H176       -0.1243  -11.5565  -46.9948 H         1 UNK         0.0600 
    177 H177       -1.2222  -10.1822  -46.8782 H         1 UNK         0.0600 
    178 H178        0.3726  -10.0981  -46.1458 H         1 UNK         0.0600 
    179 H179       -2.3901  -12.3124  -46.3177 H         1 UNK         0.3000 
    180 H180       -4.8790  -13.7271  -44.1320 H         1 UNK         0.0600 
    181 H181       -6.2662  -12.7196  -45.9247 H         1 UNK         0.0600 
    182 H182       -4.9112  -11.7253  -46.4543 H         1 UNK         0.0600 
    183 H183       -5.6288  -11.4695  -44.8669 H         1 UNK         0.0600 
    184 H184       -3.5340  -13.8835  -46.8109 H         1 UNK         0.3000 
    185 H185       -3.1390  -17.3213  -46.4891 H         1 UNK         0.0600 
    186 H186       -4.3378  -17.6272  -48.6588 H         1 UNK         0.0600 
    187 H187       -5.4831  -17.4871  -47.3348 H         1 UNK         0.0600 
    188 H188       -5.2127  -16.1184  -48.4082 H         1 UNK         0.0600 
    189 H189       -2.7992  -15.6565  -48.7661 H         1 UNK         0.3000 
    190 H190       -1.0465  -21.4887  -47.2807 H         1 UNK         0.3000 
    191 H191       -3.8358  -21.6734  -48.2599 H         1 UNK         0.0600 
    192 H192       -4.2456  -19.8343  -46.6863 H         1 UNK         0.0600 
    193 H193       -2.8744  -19.4251  -47.7105 H         1 UNK         0.0600 
    194 H194       -2.6090  -19.9438  -46.0499 H         1 UNK         0.0600 
    195 H195       -1.7638  -22.4262  -45.4268 H         1 UNK         0.3000 
    196 H196       -3.7862  -23.3473  -43.7050 H         1 UNK         0.0600 
    197 H197       -0.8809  -24.2948  -43.7556 H         1 UNK         0.0600 
    198 H198       -1.4001  -22.7537  -43.0665 H         1 UNK         0.0600 
    199 H199       -1.9646  -24.2697  -42.3771 H         1 UNK         0.0600 
    200 H200       -2.0060  -25.1061  -46.2336 H         1 UNK         0.3000 
    201 H201       -3.0843  -27.7234  -45.6451 H         1 UNK         0.0600 
    202 H202       -1.6861  -26.5963  -48.1268 H         1 UNK         0.0600 
    203 H203       -2.0015  -28.3002  -47.8148 H         1 UNK         0.0600 
    204 H204       -0.9021  -27.4092  -46.7738 H         1 UNK         0.0600 
    205 H205       -5.3027  -26.6028  -45.4295 H         1 UNK         0.3000 
    206 H206       -7.4506  -26.4932  -45.9987 H         1 UNK         0.0600 
    207 H207       -7.0270  -28.9302  -46.3962 H         1 UNK         0.0600 
    208 H208       -8.3238  -28.3242  -47.4107 H         1 UNK         0.0600 
    209 H209       -6.7303  -28.6015  -48.1029 H         1 UNK         0.0600 
    210 H210       -5.8188  -24.4980  -47.2675 H         1 UNK         0.3000 
    211 H211       -5.8171  -22.8584  -48.7003 H         1 UNK         0.0600 
    212 H212       -7.9597  -21.9725  -49.5448 H         1 UNK         0.0600 
    213 H213       -8.1597  -22.5423  -47.8980 H         1 UNK         0.0600 
    214 H214       -8.7567  -23.5087  -49.2469 H         1 UNK         0.0600 
    215 H215       -5.0638  -25.5435  -49.7429 H         1 UNK         0.3000 
    216 H216       -5.9089  -25.9615  -52.3588 H         1 UNK         0.0600 
    217 H217       -3.2452  -26.6759  -51.0288 H         1 UNK         0.0600 
    218 H218       -3.8326  -27.3722  -52.5354 H         1 UNK         0.0600 
    219 H219       -4.7118  -27.6558  -51.0429 H         1 UNK         0.0600 
    220 H220       -3.3961  -23.7021  -51.2545 H         1 UNK         0.3000 
    221 H221       -3.2536  -22.5519  -53.9749 H         1 UNK         0.0600 
    222 H222       -1.3401  -24.0745  -53.9533 H         1 UNK         0.0600 
    223 H223       -0.8340  -23.5195  -52.3653 H         1 UNK         0.0600 
    224 H224       -0.7225  -22.4455  -53.7584 H         1 UNK         0.0600 
    225 H225       -4.7422  -21.7566  -51.7233 H         1 UNK         0.3000 
    226 H226       -3.5602  -19.8551  -50.0346 H         1 UNK         0.0600 
    227 H227       -6.4258  -20.1907  -51.0444 H         1 UNK         0.0600 
    228 H228       -5.7436  -20.7414  -49.5152 H         1 UNK         0.0600 
    229 H229       -5.9745  -19.0316  -49.8030 H         1 UNK         0.0600 
    230 H230       -2.2844  -18.3223  -50.8243 H         1 UNK         0.3000 
    231 H231       -1.5149  -16.4651  -51.7252 H         1 UNK         0.0600 
    232 H232       -4.4063  -15.6339  -52.2946 H         1 UNK         0.0600 
    233 H233       -3.0087  -14.5761  -52.2101 H         1 UNK         0.0600 
    234 H234       -3.5748  -15.3925  -50.7616 H         1 UNK         0.0600 
    235 H235       -1.8871  -18.8733  -53.4096 H         1 UNK         0.3000 
    236 H236       -2.6447  -18.2324  -56.0412 H         1 UNK         0.0600 
    237 H237       -2.4318  -20.5459  -55.2368 H         1 UNK         0.0600 
    238 H238       -1.3838  -20.3285  -56.6266 H         1 UNK         0.0600 
    239 H239       -0.6912  -20.3523  -55.0089 H         1 UNK         0.0600 
    240 H240        0.3807  -17.5807  -54.4057 H         1 UNK         0.3000 
    241 H241        1.8581  -16.8458  -56.8096 H         1 UNK         0.0600 
    242 H242       -0.1856  -13.5653  -55.7407 H         1 UNK         0.3800 
    243 H243       -0.7126  -15.1573  -55.2620 H         1 UNK         0.3800 
    244 H244        2.5272  -16.4279  -53.8634 H         1 UNK         0.0800 
    245 H245        3.6097  -16.0671  -55.1888 H         1 UNK         0.0800 
    246 H246        5.3349  -17.4510  -53.8249 H         1 UNK         0.0800 
    247 H247        5.3938  -19.1930  -53.7896 H         1 UNK         0.0800 
@<TRIPOS>BOND
     1    1    2 1    
     2    1  127 1    
     3    1  128 1    
     4    1  129 1    
     5    2    3 2    
     6    2    4 am   BACKBONE|DICT|INTERRES
     7    4    5 1    
     8    4  130 1    
     9    5    6 1    
    10    5   65 1    
    11    5  131 1    
    12    6    7 1    
    13    6  132 1    
    14    6  133 1    
    15    7    8 1    
    16    8    9 1    
    17    8  134 1    
    18    8  135 1    
    19    9   10 ar   
    20    9   14 ar   
    21   10   11 ar   
    22   10  136 1    
    23   11   12 ar   
    24   11  126 1    
    25   12   13 ar   
    26   12  137 1    
    27   13   14 ar   
    28   13   15 1    
    29   14  138 1    
    30   15   16 1    
    31   15  139 1    
    32   15  140 1    
    33   16   17 1    
    34   17   18 1    
    35   17  141 1    
    36   17  142 1    
    37   18   19 1    
    38   18   67 1    
    39   18  143 1    
    40   19   20 am   BACKBONE|DICT|INTERRES
    41   19  144 1    
    42   20   21 2    
    43   20   22 1    
    44   22   23 1    
    45   22   24 1    
    46   22  145 1    
    47   23  146 1    
    48   23  147 1    
    49   23  148 1    
    50   24   25 am   BACKBONE|DICT|INTERRES
    51   24  149 1    
    52   25   26 2    
    53   25   27 1    
    54   27   28 1    
    55   27   29 1    
    56   27  150 1    
    57   28  151 1    
    58   28  152 1    
    59   28  153 1    
    60   29   30 am   BACKBONE|DICT|INTERRES
    61   29  154 1    
    62   30   31 2    
    63   30   32 1    
    64   32   33 1    
    65   32   34 1    
    66   32  155 1    
    67   33  156 1    
    68   33  157 1    
    69   33  158 1    
    70   34   35 am   BACKBONE|DICT|INTERRES
    71   34  159 1    
    72   35   36 2    
    73   35   37 1    
    74   37   38 1    
    75   37   39 1    
    76   37  160 1    
    77   38  161 1    
    78   38  162 1    
    79   38  163 1    
    80   39   40 am   BACKBONE|DICT|INTERRES
    81   39  164 1    
    82   40   41 2    
    83   40   42 1    
    84   42   43 1    
    85   42   44 1    
    86   42  165 1    
    87   43  166 1    
    88   43  167 1    
    89   43  168 1    
    90   44   45 am   BACKBONE|DICT|INTERRES
    91   44  169 1    
    92   45   46 2    
    93   45   47 1    
    94   47   48 1    
    95   47   49 1    
    96   47  170 1    
    97   48  171 1    
    98   48  172 1    
    99   48  173 1    
   100   49   50 am   BACKBONE|DICT|INTERRES
   101   49  174 1    
   102   50   51 2    
   103   50   52 1    
   104   52   53 1    
   105   52   54 1    
   106   52  175 1    
   107   53  176 1    
   108   53  177 1    
   109   53  178 1    
   110   54   55 am   BACKBONE|DICT|INTERRES
   111   54  179 1    
   112   55   56 2    
   113   55   57 1    
   114   57   58 1    
   115   57   59 1    
   116   57  180 1    
   117   58  181 1    
   118   58  182 1    
   119   58  183 1    
   120   59   60 am   BACKBONE|DICT|INTERRES
   121   59  184 1    
   122   60   61 2    
   123   60   62 1    
   124   62   63 1    
   125   62   64 1    
   126   62  185 1    
   127   63  186 1    
   128   63  187 1    
   129   63  188 1    
   130   64   65 am   BACKBONE|DICT|INTERRES
   131   64  189 1    
   132   65   66 2    
   133   67   68 2    
   134   67   69 am   BACKBONE|DICT|INTERRES
   135   69   70 1    
   136   69  190 1    
   137   70   71 1    
   138   70   72 1    
   139   70  191 1    
   140   71  192 1    
   141   71  193 1    
   142   71  194 1    
   143   72   73 2    
   144   72   74 am   BACKBONE|DICT|INTERRES
   145   74   75 1    
   146   74  195 1    
   147   75   76 1    
   148   75   77 1    
   149   75  196 1    
   150   76  197 1    
   151   76  198 1    
   152   76  199 1    
   153   77   78 2    
   154   77   79 am   BACKBONE|DICT|INTERRES
   155   79   80 1    
   156   79  200 1    
   157   80   81 1    
   158   80   82 1    
   159   80  201 1    
   160   81  202 1    
   161   81  203 1    
   162   81  204 1    
   163   82   83 2    
   164   82   84 am   BACKBONE|DICT|INTERRES
   165   84   85 1    
   166   84  205 1    
   167   85   86 1    
   168   85   87 1    
   169   85  206 1    
   170   86  207 1    
   171   86  208 1    
   172   86  209 1    
   173   87   88 2    
   174   87   89 am   BACKBONE|DICT|INTERRES
   175   89   90 1    
   176   89  210 1    
   177   90   91 1    
   178   90   92 1    
   179   90  211 1    
   180   91  212 1    
   181   91  213 1    
   182   91  214 1    
   183   92   93 2    
   184   92   94 am   BACKBONE|DICT|INTERRES
   185   94   95 1    
   186   94  215 1    
   187   95   96 1    
   188   95   97 1    
   189   95  216 1    
   190   96  217 1    
   191   96  218 1    
   192   96  219 1    
   193   97   98 2    
   194   97   99 am   BACKBONE|DICT|INTERRES
   195   99  100 1    
   196   99  220 1    
   197  100  101 1    
   198  100  102 1    
   199  100  221 1    
   200  101  222 1    
   201  101  223 1    
   202  101  224 1    
   203  102  103 2    
   204  102  104 am   BACKBONE|DICT|INTERRES
   205  104  105 1    
   206  104  225 1    
   207  105  106 1    
   208  105  107 1    
   209  105  226 1    
   210  106  227 1    
   211  106  228 1    
   212  106  229 1    
   213  107  108 2    
   214  107  109 am   BACKBONE|DICT|INTERRES
   215  109  110 1    
   216  109  230 1    
   217  110  111 1    
   218  110  112 1    
   219  110  231 1    
   220  111  232 1    
   221  111  233 1    
   222  111  234 1    
   223  112  113 2    
   224  112  114 am   BACKBONE|DICT|INTERRES
   225  114  115 1    
   226  114  235 1    
   227  115  116 1    
   228  115  117 1    
   229  115  236 1    
   230  116  237 1    
   231  116  238 1    
   232  116  239 1    
   233  117  118 2    
   234  117  119 am   BACKBONE|DICT|INTERRES
   235  119  120 1    
   236  119  240 1    
   237  120  121 1    
   238  120  124 1    
   239  120  241 1    
   240  121  122 am   BACKBONE|DICT|INTERRES
   241  121  123 2    
   242  122  242 1    
   243  122  243 1    
   244  124  125 1    
   245  124  244 1    
   246  124  245 1    
   247  125  126 1    
   248  126  246 1    
   249  126  247 1    
@<TRIPOS>SUBSTRUCTURE
     1 UNK         1 GROUP             0       ****    0 ROOT    
