@<TRIPOS>MOLECULE
3R540
247   249    1
SMALL
USER_CHARGES


@<TRIPOS>ATOM
      1 CA         -5.6581  -11.7991  -49.0743 C.3       0 UNK        -0.1800 
      2 C          -4.7611  -12.8793  -48.4860 C.2       0 UNK         0.5000 
      3 O          -5.1985  -13.6193  -47.6052 O.2       0 UNK        -0.5000 
      4 N          -3.5149  -12.9634  -48.9725 N.am      1 UNK        -0.5000 
      5 CA         -2.4752  -13.9196  -48.5652 C.3       1 UNK         0.1400 
      6 C6         -2.7942  -15.3996  -48.9257 C.3       23 UNK        -0.0398 
      7 S7         -3.0805  -15.6571  -50.7095 S.3       23 UNK        -0.2404 
      8 C8         -1.3815  -15.6533  -51.3643 C.3       23 UNK        -0.0205 
      9 C9         -0.7118  -17.0163  -51.2783 C.ar      23 UNK        -0.0193 
     10 C10        -0.8144  -17.9047  -52.3513 C.ar      23 UNK        -0.1150 
     11 C11        -0.1325  -19.1227  -52.3312 C.ar      23 UNK        -0.0193 
     12 C12         0.6410  -19.4602  -51.2171 C.ar      23 UNK        -0.1150 
     13 C13         0.7440  -18.5874  -50.1266 C.ar      23 UNK        -0.0193 
     14 C14         0.0643  -17.3650  -50.1676 C.ar      23 UNK        -0.1150 
     15 C15         1.6366  -18.9162  -48.9303 C.3       23 UNK        -0.0205 
     16 S16         1.5398  -20.6536  -48.3831 S.3       23 UNK        -0.2404 
     17 C17        -0.1901  -20.7261  -47.8259 C.3       23 UNK        -0.0398 
     18 CA         -0.4965  -22.0070  -47.0208 C.3       11 UNK         0.1400 
     19 N           0.1934  -22.0468  -45.7301 N.am      11 UNK        -0.5000 
     20 C           0.2778  -23.1313  -44.9487 C.2       10 UNK         0.5000 
     21 O          -0.2158  -24.2207  -45.2403 O.2       10 UNK        -0.5000 
     22 CA          0.9869  -22.9575  -43.5935 C.3       10 UNK         0.1400 
     23 CB          2.5123  -22.9024  -43.7662 C.3       10 UNK        -0.1800 
     24 N           0.5264  -21.7689  -42.8755 N.am      10 UNK        -0.5000 
     25 C          -0.7210  -21.6039  -42.4127 C.2       9 UNK         0.5000 
     26 O          -1.6067  -22.4541  -42.5103 O.2       9 UNK        -0.5000 
     27 CA         -1.0477  -20.2400  -41.7778 C.3       9 UNK         0.1400 
     28 CB         -0.5510  -20.1796  -40.3259 C.3       9 UNK        -0.1800 
     29 N          -0.4928  -19.1161  -42.5329 N.am      9 UNK        -0.5000 
     30 C          -0.8193  -18.8191  -43.7989 C.2       8 UNK         0.5000 
     31 O          -1.6451  -19.4446  -44.4589 O.2       8 UNK        -0.5000 
     32 CA         -0.0609  -17.6594  -44.4602 C.3       8 UNK         0.1400 
     33 CB         -0.6095  -16.3221  -43.9567 C.3       8 UNK        -0.1800 
     34 N           1.3849  -17.7249  -44.2410 N.am      8 UNK        -0.5000 
     35 C           2.1622  -18.7574  -44.5985 C.2       7 UNK         0.5000 
     36 O           1.7487  -19.7432  -45.2034 O.2       7 UNK        -0.5000 
     37 CA          3.6289  -18.7235  -44.1423 C.3       7 UNK         0.1400 
     38 CB          4.5347  -18.0496  -45.1835 C.3       7 UNK        -0.1800 
     39 N           3.7701  -18.0802  -42.8348 N.am      7 UNK        -0.5000 
     40 C           3.4013  -18.6723  -41.6889 C.2       6 UNK         0.5000 
     41 O           2.9443  -19.8153  -41.6279 O.2       6 UNK        -0.5000 
     42 CA          3.5378  -17.8420  -40.4018 C.3       6 UNK         0.1400 
     43 CB          5.0098  -17.7239  -39.9781 C.3       6 UNK        -0.1800 
     44 N           2.9589  -16.5045  -40.5171 N.am      6 UNK        -0.5000 
     45 C           1.6607  -16.2290  -40.6870 C.2       5 UNK         0.5000 
     46 O           0.7992  -17.0985  -40.8157 O.2       5 UNK        -0.5000 
     47 CA          1.2456  -14.7414  -40.7209 C.3       5 UNK         0.1400 
     48 CB          1.1621  -14.1536  -39.2999 C.3       5 UNK        -0.1800 
     49 N           2.0604  -13.9007  -41.6077 N.am      5 UNK        -0.5000 
     50 C           3.3651  -13.5980  -41.5249 C.2       4 UNK         0.5000 
     51 O           4.0770  -13.9266  -40.5737 O.2       4 UNK        -0.5000 
     52 CA          3.9970  -12.8306  -42.7110 C.3       4 UNK         0.1400 
     53 CB          5.4602  -13.2576  -42.9518 C.3       4 UNK        -0.1800 
     54 N           3.2502  -12.9008  -43.9755 N.am      4 UNK        -0.5000 
     55 C           2.8735  -14.0027  -44.6421 C.2       3 UNK         0.5000 
     56 O           3.0323  -15.1500  -44.2195 O.2       3 UNK        -0.5000 
     57 CA          2.1630  -13.7585  -45.9912 C.3       3 UNK         0.1400 
     58 CB          1.9400  -15.0547  -46.7964 C.3       3 UNK        -0.1800 
     59 N           0.9014  -13.0000  -45.9534 N.am      3 UNK        -0.5000 
     60 C           0.0418  -12.7499  -44.9489 C.2       2 UNK         0.5000 
     61 O           0.2389  -13.0066  -43.7605 O.2       2 UNK        -0.5000 
     62 CA         -1.3042  -12.1170  -45.3589 C.3       2 UNK         0.1400 
     63 CB         -1.2316  -10.5859  -45.2610 C.3       2 UNK        -0.1800 
     64 N          -1.7453  -12.4944  -46.7077 N.am      2 UNK        -0.5000 
     65 C          -2.0825  -13.7387  -47.0831 C.2       1 UNK         0.5000 
     66 O          -2.0916  -14.7019  -46.3176 O.2       1 UNK        -0.5000 
     67 C          -2.0178  -22.2048  -46.8825 C.2       11 UNK         0.5000 
     68 O          -2.6158  -22.8121  -47.7686 O.2       11 UNK        -0.5000 
     69 N          -2.6261  -21.7123  -45.7959 N.am      12 UNK        -0.5000 
     70 CA         -4.0356  -21.9330  -45.4730 C.3       12 UNK         0.1400 
     71 CB         -4.4713  -20.9943  -44.3387 C.3       12 UNK        -0.1800 
     72 C          -4.3193  -23.4005  -45.1135 C.2       12 UNK         0.5000 
     73 O          -5.2881  -23.9663  -45.6195 O.2       12 UNK        -0.5000 
     74 N          -3.4473  -24.0044  -44.2921 N.am      13 UNK        -0.5000 
     75 CA         -3.5092  -25.4173  -43.9071 C.3       13 UNK         0.1400 
     76 CB         -2.4758  -25.6953  -42.8050 C.3       13 UNK        -0.1800 
     77 C          -3.3097  -26.3737  -45.0988 C.2       13 UNK         0.5000 
     78 O          -3.9924  -27.3951  -45.1819 O.2       13 UNK        -0.5000 
     79 N          -2.4058  -26.0057  -46.0165 N.am      14 UNK        -0.5000 
     80 CA         -2.1462  -26.7154  -47.2711 C.3       14 UNK         0.1400 
     81 CB         -0.7772  -26.2679  -47.8087 C.3       14 UNK        -0.1800 
     82 C          -3.2318  -26.4955  -48.3462 C.2       14 UNK         0.5000 
     83 O          -3.2273  -27.2073  -49.3507 O.2       14 UNK        -0.5000 
     84 N          -4.1041  -25.4957  -48.1420 N.am      15 UNK        -0.5000 
     85 CA         -5.1229  -24.9758  -49.0649 C.3       15 UNK         0.1400 
     86 CB         -6.1674  -26.0519  -49.4227 C.3       15 UNK        -0.1800 
     87 C          -4.5343  -24.2821  -50.3142 C.2       15 UNK         0.5000 
     88 O          -5.2639  -24.0038  -51.2661 O.2       15 UNK        -0.5000 
     89 N          -3.2366  -23.9598  -50.2717 N.am      16 UNK        -0.5000 
     90 CA         -2.4994  -23.2350  -51.3009 C.3       16 UNK         0.1400 
     91 CB         -0.9954  -23.3458  -51.0067 C.3       16 UNK        -0.1800 
     92 C          -2.9399  -21.7648  -51.3874 C.2       16 UNK         0.5000 
     93 O          -3.1062  -21.2500  -52.4915 O.2       16 UNK        -0.5000 
     94 N          -3.1756  -21.1345  -50.2268 N.am      17 UNK        -0.5000 
     95 CA         -3.7056  -19.7697  -50.1337 C.3       17 UNK         0.1400 
     96 CB         -3.4570  -19.2024  -48.7269 C.3       17 UNK        -0.1800 
     97 C          -5.2028  -19.6943  -50.4854 C.2       17 UNK         0.5000 
     98 O          -5.6614  -18.6567  -50.9617 O.2       17 UNK        -0.5000 
     99 N          -5.9353  -20.7933  -50.2504 N.am      18 UNK        -0.5000 
    100 CA        -7.3463  -20.9346  -50.6098 C.3       18 UNK         0.1400 
    101 CB        -7.9587  -22.1254  -49.8556 C.3       18 UNK        -0.1800 
    102 C         -7.5319  -21.0811  -52.1306 C.2       18 UNK         0.5000 
    103 O         -8.4372  -20.4640  -52.6928 O.2       18 UNK        -0.5000 
    104 N         -6.6566  -21.8722  -52.7681 N.am      19 UNK        -0.5000 
    105 CA        -6.5746  -22.0158  -54.2207 C.3       19 UNK         0.1400 
    106 CB        -5.6785  -23.2166  -54.5639 C.3       19 UNK        -0.1800 
    107 C         -6.0601  -20.7325  -54.8993 C.2       19 UNK         0.5000 
    108 O         -6.6735  -20.2703  -55.8629 O.2       19 UNK        -0.5000 
    109 N         -4.9611  -20.1829  -54.3592 N.am      20 UNK        -0.5000 
    110 CA        -4.2265  -18.9970  -54.8085 C.3       20 UNK         0.1400 
    111 CB        -5.1094  -17.7361  -54.6914 C.3       20 UNK        -0.1800 
    112 C         -3.5982  -19.1599  -56.2120 C.2       20 UNK         0.5000 
    113 O         -3.6379  -20.2464  -56.7947 O.2       20 UNK        -0.5000 
    114 N         -2.9949  -18.0710  -56.7150 N.am      21 UNK        -0.5000 
    115 CA        -2.3900  -17.9286  -58.0485 C.3       21 UNK         0.1400 
    116 CB        -3.4868  -17.9330  -59.1343 C.3       21 UNK        -0.1800 
    117 C         -1.2545  -18.9363  -58.3428 C.2       21 UNK         0.5000 
    118 O         -1.0830  -19.3596  -59.4877 O.2       21 UNK        -0.5000 
    119 N         -0.4979  -19.3024  -57.3009 N.am      22 UNK        -0.5000 
    120 CA         0.6166  -20.2626  -57.3613 C.3       22 UNK         0.1400 
    121 C          1.9376  -19.7120  -57.9797 C.2       22 UNK         0.5000 
    122 N          2.0599  -18.4187  -58.2539 N.am      22 UNK        -0.7600 
    123 O          2.8645  -20.4776  -58.2311 O.2       22 UNK        -0.5000 
    124 C124        0.8517  -20.9484  -55.9898 C.3       23 UNK        -0.0398 
    125 S125        1.2191  -19.7783  -54.6345 S.3       23 UNK        -0.2404 
    126 C126       -0.1982  -20.0529  -53.5303 C.3       23 UNK        -0.0205 
    127 H127       -5.1464  -11.2199  -49.8434 H         1 UNK         0.0600 
    128 H128       -5.9822  -11.1132  -48.2916 H         1 UNK         0.0600 
    129 H129       -6.5435  -12.2503  -49.5221 H         1 UNK         0.0600 
    130 H130       -3.2400  -12.3208  -49.7021 H         1 UNK         0.3000 
    131 H131       -1.5832  -13.6354  -49.1235 H         1 UNK         0.0600 
    132 H132       -1.9892  -16.0619  -48.6062 H         1 UNK         0.0800 
    133 H133       -3.6831  -15.7360  -48.3905 H         1 UNK         0.0800 
    134 H134       -0.7747  -14.9048  -50.8550 H         1 UNK         0.0800 
    135 H135       -1.4210  -15.3355  -52.4073 H         1 UNK         0.0800 
    136 H136       -1.3990  -17.6313  -53.2179 H         1 UNK         0.1150 
    137 H137        1.1839  -20.3947  -51.2130 H         1 UNK         0.1150 
    138 H138        0.1653  -16.6698  -49.3465 H         1 UNK         0.1150 
    139 H139        1.3984  -18.2728  -48.0814 H         1 UNK         0.0800 
    140 H140        2.6696  -18.6958  -49.2015 H         1 UNK         0.0800 
    141 H141       -0.8047  -20.6793  -48.7253 H         1 UNK         0.0800 
    142 H142       -0.4205  -19.8372  -47.2356 H         1 UNK         0.0800 
    143 H143       -0.1311  -22.8560  -47.6021 H         1 UNK         0.0600 
    144 H144        0.6677  -21.1911  -45.4458 H         1 UNK         0.3000 
    145 H145        0.7488  -23.8296  -42.9808 H         1 UNK         0.0600 
    146 H146        2.8807  -23.8060  -44.2532 H         1 UNK         0.0600 
    147 H147        3.0155  -22.8228  -42.8023 H         1 UNK         0.0600 
    148 H148        2.8225  -22.0535  -44.3753 H         1 UNK         0.0600 
    149 H149        1.1919  -21.0160  -42.7579 H         1 UNK         0.3000 
    150 H150       -2.1339  -20.1303  -41.7704 H         1 UNK         0.0600 
    151 H151        0.5366  -20.2366  -40.2692 H         1 UNK         0.0600 
    152 H152       -0.9561  -21.0047  -39.7388 H         1 UNK         0.0600 
    153 H153       -0.8613  -19.2530  -39.8426 H         1 UNK         0.0600 
    154 H154        0.1647  -18.5177  -42.0415 H         1 UNK         0.3000 
    155 H155       -0.2340  -17.7161  -45.5369 H         1 UNK         0.0600 
    156 H156       -0.1192  -15.4946  -44.4588 H         1 UNK         0.0600 
    157 H157       -0.4713  -16.1942  -42.8858 H         1 UNK         0.0600 
    158 H158       -1.6781  -16.2392  -44.1571 H         1 UNK         0.0600 
    159 H159        1.8232  -16.9292  -43.7942 H         1 UNK         0.3000 
    160 H160        3.9631  -19.7593  -44.0496 H         1 UNK         0.0600 
    161 H161        4.2673  -17.0093  -45.3545 H         1 UNK         0.0600 
    162 H162        4.4649  -18.5627  -46.1436 H         1 UNK         0.0600 
    163 H163        5.5793  -18.0799  -44.8742 H         1 UNK         0.0600 
    164 H164        4.0841  -17.1197  -42.8237 H         1 UNK         0.3000 
    165 H165        2.9995  -18.3694  -39.6115 H         1 UNK         0.0600 
    166 H166        5.4690  -18.7085  -39.8801 H         1 UNK         0.0600 
    167 H167        5.5952  -17.1576  -40.7037 H         1 UNK         0.0600 
    168 H168        5.1020  -17.2253  -39.0131 H         1 UNK         0.0600 
    169 H169        3.5909  -15.7124  -40.4310 H         1 UNK         0.3000 
    170 H170        0.2393  -14.7078  -41.1404 H         1 UNK         0.0600 
    171 H171        0.8060  -13.1236  -39.3206 H         1 UNK         0.0600 
    172 H172        2.1268  -14.1651  -38.7922 H         1 UNK         0.0600 
    173 H173        0.4662  -14.7258  -38.6852 H         1 UNK         0.0600 
    174 H174        1.5720  -13.5880  -42.4434 H         1 UNK         0.3000 
    175 H175        4.0012  -11.7801  -42.4176 H         1 UNK         0.0600 
    176 H176        5.5346  -14.3184  -43.1943 H         1 UNK         0.0600 
    177 H177        6.0758  -13.0789  -42.0694 H         1 UNK         0.0600 
    178 H178        5.9056  -12.6947  -43.7720 H         1 UNK         0.0600 
    179 H179        3.0082  -12.0075  -44.3807 H         1 UNK         0.3000 
    180 H180        2.8573  -13.1490  -46.5716 H         1 UNK         0.0600 
    181 H181        1.1885  -15.6939  -46.3370 H         1 UNK         0.0600 
    182 H182        2.8598  -15.6348  -46.8782 H         1 UNK         0.0600 
    183 H183        1.6091  -14.8355  -47.8115 H         1 UNK         0.0600 
    184 H184        0.5955  -12.6776  -46.8595 H         1 UNK         0.3000 
    185 H185       -2.0579  -12.4687  -44.6511 H         1 UNK         0.0600 
    186 H186       -0.9299  -10.2727  -44.2605 H         1 UNK         0.0600 
    187 H187       -0.5112  -10.1699  -45.9664 H         1 UNK         0.0600 
    188 H188       -2.2016  -10.1313  -45.4630 H         1 UNK         0.0600 
    189 H189       -1.7986  -11.7519  -47.3901 H         1 UNK         0.3000 
    190 H190       -2.0994  -21.1249  -45.1541 H         1 UNK         0.3000 
    191 H191       -4.6287  -21.6879  -46.3566 H         1 UNK         0.0600 
    192 H192       -4.3612  -19.9497  -44.6301 H         1 UNK         0.0600 
    193 H193       -5.5197  -21.1508  -44.0821 H         1 UNK         0.0600 
    194 H194       -3.8835  -21.1528  -43.4344 H         1 UNK         0.0600 
    195 H195       -2.6910  -23.4584  -43.8906 H         1 UNK         0.3000 
    196 H196       -4.5026  -25.6063  -43.4952 H         1 UNK         0.0600 
    197 H197       -2.5131  -26.7380  -42.4873 H         1 UNK         0.0600 
    198 H198       -2.6642  -25.0800  -41.9250 H         1 UNK         0.0600 
    199 H199       -1.4598  -25.4903  -43.1435 H         1 UNK         0.0600 
    200 H200       -1.8251  -25.1941  -45.8251 H         1 UNK         0.3000 
    201 H201       -2.1003  -27.7863  -47.0630 H         1 UNK         0.0600 
    202 H202       -0.5176  -26.8050  -48.7219 H         1 UNK         0.0600 
    203 H203        0.0138  -26.4605  -47.0836 H         1 UNK         0.0600 
    204 H204       -0.7663  -25.2025  -48.0402 H         1 UNK         0.0600 
    205 H205       -4.0142  -24.9760  -47.2784 H         1 UNK         0.3000 
    206 H206       -5.6421  -24.1920  -48.5118 H         1 UNK         0.0600 
    207 H207       -6.5698  -26.5235  -48.5261 H         1 UNK         0.0600 
    208 H208       -7.0080  -25.6159  -49.9636 H         1 UNK         0.0600 
    209 H209       -5.7472  -26.8337  -50.0555 H         1 UNK         0.0600 
    210 H210       -2.7539  -24.1147  -49.3959 H         1 UNK         0.3000 
    211 H211       -2.7010  -23.7082  -52.2642 H         1 UNK         0.0600 
    212 H212       -0.6839  -24.3883  -50.9390 H         1 UNK         0.0600 
    213 H213       -0.4048  -22.8856  -51.7975 H         1 UNK         0.0600 
    214 H214       -0.7272  -22.8568  -50.0702 H         1 UNK         0.0600 
    215 H215       -3.0444  -21.6492  -49.3631 H         1 UNK         0.3000 
    216 H216       -3.1728  -19.1381  -50.8485 H         1 UNK         0.0600 
    217 H217       -3.8221  -19.8706  -47.9471 H         1 UNK         0.0600 
    218 H218       -3.9629  -18.2450  -48.5975 H         1 UNK         0.0600 
    219 H219       -2.3979  -19.0187  -48.5564 H         1 UNK         0.0600 
    220 H220       -5.4749  -21.6057  -49.8720 H         1 UNK         0.3000 
    221 H221       -7.8719  -20.0311  -50.2930 H         1 UNK         0.0600 
    222 H222       -7.5065  -23.0718  -50.1499 H         1 UNK         0.0600 
    223 H223       -7.8386  -22.0156  -48.7777 H         1 UNK         0.0600 
    224 H224       -9.0279  -22.2010  -50.0571 H         1 UNK         0.0600 
    225 H225       -5.9915  -22.4098  -52.2220 H         1 UNK         0.3000 
    226 H226       -7.5773  -22.2210  -54.6017 H         1 UNK         0.0600 
    227 H227       -6.0834  -24.1403  -54.1500 H         1 UNK         0.0600 
    228 H228       -5.5995  -23.3488  -55.6436 H         1 UNK         0.0600 
    229 H229       -4.6680  -23.0918  -54.1726 H         1 UNK         0.0600 
    230 H230       -4.5028  -20.6850  -53.6030 H         1 UNK         0.3000 
    231 H231       -3.3982  -18.8869  -54.1080 H         1 UNK         0.0600 
    232 H232       -5.8920  -17.7164  -55.4504 H         1 UNK         0.0600 
    233 H233       -4.5218  -16.8246  -54.8021 H         1 UNK         0.0600 
    234 H234       -5.5906  -17.6850  -53.7142 H         1 UNK         0.0600 
    235 H235       -2.9904  -17.2312  -56.1535 H         1 UNK         0.3000 
    236 H236       -1.9216  -16.9436  -58.0646 H         1 UNK         0.0600 
    237 H237       -3.9696  -18.9073  -59.2161 H         1 UNK         0.0600 
    238 H238       -4.2585  -17.1942  -58.9180 H         1 UNK         0.0600 
    239 H239       -3.0729  -17.6890  -60.1134 H         1 UNK         0.0600 
    240 H240       -0.6839  -18.8969  -56.3962 H         1 UNK         0.3000 
    241 H241        0.3075  -21.0569  -58.0437 H         1 UNK         0.0600 
    242 H242        1.3094  -17.7788  -58.0509 H         1 UNK         0.3800 
    243 H243        2.9164  -18.0755  -58.6599 H         1 UNK         0.3800 
    244 H244        1.6686  -21.6692  -56.0540 H         1 UNK         0.0800 
    245 H245       -0.0293  -21.5366  -55.7294 H         1 UNK         0.0800 
    246 H246       -1.1288  -19.9018  -54.0785 H         1 UNK         0.0800 
    247 H247       -0.2020  -21.0902  -53.1982 H         1 UNK         0.0800 
@<TRIPOS>BOND
     1    1    2 1    
     2    1  127 1    
     3    1  128 1    
     4    1  129 1    
     5    2    3 2    
     6    2    4 am   BACKBONE|DICT|INTERRES
     7    4    5 1    
     8    4  130 1    
     9    5    6 1    
    10    5   65 1    
    11    5  131 1    
    12    6    7 1    
    13    6  132 1    
    14    6  133 1    
    15    7    8 1    
    16    8    9 1    
    17    8  134 1    
    18    8  135 1    
    19    9   10 ar   
    20    9   14 ar   
    21   10   11 ar   
    22   10  136 1    
    23   11   12 ar   
    24   11  126 1    
    25   12   13 ar   
    26   12  137 1    
    27   13   14 ar   
    28   13   15 1    
    29   14  138 1    
    30   15   16 1    
    31   15  139 1    
    32   15  140 1    
    33   16   17 1    
    34   17   18 1    
    35   17  141 1    
    36   17  142 1    
    37   18   19 1    
    38   18   67 1    
    39   18  143 1    
    40   19   20 am   BACKBONE|DICT|INTERRES
    41   19  144 1    
    42   20   21 2    
    43   20   22 1    
    44   22   23 1    
    45   22   24 1    
    46   22  145 1    
    47   23  146 1    
    48   23  147 1    
    49   23  148 1    
    50   24   25 am   BACKBONE|DICT|INTERRES
    51   24  149 1    
    52   25   26 2    
    53   25   27 1    
    54   27   28 1    
    55   27   29 1    
    56   27  150 1    
    57   28  151 1    
    58   28  152 1    
    59   28  153 1    
    60   29   30 am   BACKBONE|DICT|INTERRES
    61   29  154 1    
    62   30   31 2    
    63   30   32 1    
    64   32   33 1    
    65   32   34 1    
    66   32  155 1    
    67   33  156 1    
    68   33  157 1    
    69   33  158 1    
    70   34   35 am   BACKBONE|DICT|INTERRES
    71   34  159 1    
    72   35   36 2    
    73   35   37 1    
    74   37   38 1    
    75   37   39 1    
    76   37  160 1    
    77   38  161 1    
    78   38  162 1    
    79   38  163 1    
    80   39   40 am   BACKBONE|DICT|INTERRES
    81   39  164 1    
    82   40   41 2    
    83   40   42 1    
    84   42   43 1    
    85   42   44 1    
    86   42  165 1    
    87   43  166 1    
    88   43  167 1    
    89   43  168 1    
    90   44   45 am   BACKBONE|DICT|INTERRES
    91   44  169 1    
    92   45   46 2    
    93   45   47 1    
    94   47   48 1    
    95   47   49 1    
    96   47  170 1    
    97   48  171 1    
    98   48  172 1    
    99   48  173 1    
   100   49   50 am   BACKBONE|DICT|INTERRES
   101   49  174 1    
   102   50   51 2    
   103   50   52 1    
   104   52   53 1    
   105   52   54 1    
   106   52  175 1    
   107   53  176 1    
   108   53  177 1    
   109   53  178 1    
   110   54   55 am   BACKBONE|DICT|INTERRES
   111   54  179 1    
   112   55   56 2    
   113   55   57 1    
   114   57   58 1    
   115   57   59 1    
   116   57  180 1    
   117   58  181 1    
   118   58  182 1    
   119   58  183 1    
   120   59   60 am   BACKBONE|DICT|INTERRES
   121   59  184 1    
   122   60   61 2    
   123   60   62 1    
   124   62   63 1    
   125   62   64 1    
   126   62  185 1    
   127   63  186 1    
   128   63  187 1    
   129   63  188 1    
   130   64   65 am   BACKBONE|DICT|INTERRES
   131   64  189 1    
   132   65   66 2    
   133   67   68 2    
   134   67   69 am   BACKBONE|DICT|INTERRES
   135   69   70 1    
   136   69  190 1    
   137   70   71 1    
   138   70   72 1    
   139   70  191 1    
   140   71  192 1    
   141   71  193 1    
   142   71  194 1    
   143   72   73 2    
   144   72   74 am   BACKBONE|DICT|INTERRES
   145   74   75 1    
   146   74  195 1    
   147   75   76 1    
   148   75   77 1    
   149   75  196 1    
   150   76  197 1    
   151   76  198 1    
   152   76  199 1    
   153   77   78 2    
   154   77   79 am   BACKBONE|DICT|INTERRES
   155   79   80 1    
   156   79  200 1    
   157   80   81 1    
   158   80   82 1    
   159   80  201 1    
   160   81  202 1    
   161   81  203 1    
   162   81  204 1    
   163   82   83 2    
   164   82   84 am   BACKBONE|DICT|INTERRES
   165   84   85 1    
   166   84  205 1    
   167   85   86 1    
   168   85   87 1    
   169   85  206 1    
   170   86  207 1    
   171   86  208 1    
   172   86  209 1    
   173   87   88 2    
   174   87   89 am   BACKBONE|DICT|INTERRES
   175   89   90 1    
   176   89  210 1    
   177   90   91 1    
   178   90   92 1    
   179   90  211 1    
   180   91  212 1    
   181   91  213 1    
   182   91  214 1    
   183   92   93 2    
   184   92   94 am   BACKBONE|DICT|INTERRES
   185   94   95 1    
   186   94  215 1    
   187   95   96 1    
   188   95   97 1    
   189   95  216 1    
   190   96  217 1    
   191   96  218 1    
   192   96  219 1    
   193   97   98 2    
   194   97   99 am   BACKBONE|DICT|INTERRES
   195   99  100 1    
   196   99  220 1    
   197  100  101 1    
   198  100  102 1    
   199  100  221 1    
   200  101  222 1    
   201  101  223 1    
   202  101  224 1    
   203  102  103 2    
   204  102  104 am   BACKBONE|DICT|INTERRES
   205  104  105 1    
   206  104  225 1    
   207  105  106 1    
   208  105  107 1    
   209  105  226 1    
   210  106  227 1    
   211  106  228 1    
   212  106  229 1    
   213  107  108 2    
   214  107  109 am   BACKBONE|DICT|INTERRES
   215  109  110 1    
   216  109  230 1    
   217  110  111 1    
   218  110  112 1    
   219  110  231 1    
   220  111  232 1    
   221  111  233 1    
   222  111  234 1    
   223  112  113 2    
   224  112  114 am   BACKBONE|DICT|INTERRES
   225  114  115 1    
   226  114  235 1    
   227  115  116 1    
   228  115  117 1    
   229  115  236 1    
   230  116  237 1    
   231  116  238 1    
   232  116  239 1    
   233  117  118 2    
   234  117  119 am   BACKBONE|DICT|INTERRES
   235  119  120 1    
   236  119  240 1    
   237  120  121 1    
   238  120  124 1    
   239  120  241 1    
   240  121  122 am   BACKBONE|DICT|INTERRES
   241  121  123 2    
   242  122  242 1    
   243  122  243 1    
   244  124  125 1    
   245  124  244 1    
   246  124  245 1    
   247  125  126 1    
   248  126  246 1    
   249  126  247 1    
@<TRIPOS>SUBSTRUCTURE
     1 UNK         1 GROUP             0       ****    0 ROOT    
