@<TRIPOS>MOLECULE
3R540
247   249    1
SMALL
USER_CHARGES


@<TRIPOS>ATOM
      1 CA         -4.7625  -16.5673  -41.7825 C.3       0 UNK        -0.1800 
      2 C          -4.6863  -15.0537  -41.9270 C.2       0 UNK         0.5000 
      3 O          -4.8489  -14.3331  -40.9417 O.2       0 UNK        -0.5000 
      4 N          -4.4518  -14.5719  -43.1527 N.am      1 UNK        -0.5000 
      5 CA         -4.2567  -13.1583  -43.4860 C.3       1 UNK         0.1400 
      6 C6         -4.4019  -12.9084  -45.0116 C.3       23 UNK        -0.0398 
      7 S7         -3.3216  -13.9616  -46.0406 S.3       23 UNK        -0.2404 
      8 C8         -3.6057  -13.2692  -47.7045 C.3       23 UNK        -0.0205 
      9 C9         -2.7895  -14.0043  -48.7611 C.ar      23 UNK        -0.0193 
     10 C10        -3.4024  -14.5430  -49.8980 C.ar      23 UNK        -0.1150 
     11 C11        -2.6494  -15.2529  -50.8406 C.ar      23 UNK        -0.0193 
     12 C12        -1.2801  -15.4428  -50.6286 C.ar      23 UNK        -0.1150 
     13 C13        -0.6636  -14.9267  -49.4871 C.ar      23 UNK        -0.0193 
     14 C14        -1.4136  -14.1688  -48.5868 C.ar      23 UNK        -0.1150 
     15 C15         0.7983  -15.2211  -49.1898 C.3       23 UNK        -0.0205 
     16 S16         1.0632  -16.8917  -48.4869 S.3       23 UNK        -0.2404 
     17 C17        -0.3341  -17.1539  -47.3314 C.3       23 UNK        -0.0398 
     18 CA         -1.4135  -18.0853  -47.9306 C.3       11 UNK         0.1400 
     19 N          -0.9268  -19.4624  -48.0795 N.am      11 UNK        -0.5000 
     20 C          -1.6047  -20.4434  -48.6889 C.2       10 UNK         0.5000 
     21 O          -2.7022  -20.2827  -49.2155 O.2       10 UNK        -0.5000 
     22 CA         -1.0008  -21.8550  -48.6327 C.3       10 UNK         0.1400 
     23 CB          0.1026  -22.0403  -49.6807 C.3       10 UNK        -0.1800 
     24 N          -0.4793  -22.1626  -47.3036 N.am      10 UNK        -0.5000 
     25 C          -1.2518  -22.3992  -46.2351 C.2       9 UNK         0.5000 
     26 O          -2.4803  -22.4155  -46.2714 O.2       9 UNK        -0.5000 
     27 CA         -0.5342  -22.6126  -44.8915 C.3       9 UNK         0.1400 
     28 CB         -0.0877  -24.0749  -44.7463 C.3       9 UNK        -0.1800 
     29 N           0.6173  -21.7255  -44.7177 N.am      9 UNK        -0.5000 
     30 C           0.5320  -20.3913  -44.6183 C.2       8 UNK         0.5000 
     31 O          -0.5273  -19.7677  -44.6472 O.2       8 UNK        -0.5000 
     32 CA          1.8552  -19.6165  -44.5196 C.3       8 UNK         0.1400 
     33 CB          2.3496  -19.5706  -43.0667 C.3       8 UNK        -0.1800 
     34 N           2.9197  -20.1362  -45.3789 N.am      8 UNK        -0.5000 
     35 C           2.8593  -20.2664  -46.7108 C.2       7 UNK         0.5000 
     36 O           1.8250  -20.1085  -47.3608 O.2       7 UNK        -0.5000 
     37 CA          4.1900  -20.5875  -47.4255 C.3       7 UNK         0.1400 
     38 CB          4.0432  -20.6202  -48.9580 C.3       7 UNK        -0.1800 
     39 N           5.2140  -19.6019  -47.0719 N.am      7 UNK        -0.5000 
     40 C           5.9435  -19.6015  -45.9471 C.2       6 UNK         0.5000 
     41 O           5.9148  -20.5126  -45.1189 O.2       6 UNK        -0.5000 
     42 CA          6.7856  -18.3406  -45.6656 C.3       6 UNK         0.1400 
     43 CB          8.1975  -18.4920  -46.2512 C.3       6 UNK        -0.1800 
     44 N           6.1753  -17.1111  -46.1844 N.am      6 UNK        -0.5000 
     45 C           4.9941  -16.6122  -45.7897 C.2       5 UNK         0.5000 
     46 O           4.3164  -17.1105  -44.8881 O.2       5 UNK        -0.5000 
     47 CA          4.4884  -15.3663  -46.5452 C.3       5 UNK         0.1400 
     48 CB          4.6837  -15.4945  -48.0688 C.3       5 UNK        -0.1800 
     49 N           3.0664  -15.1481  -46.2948 N.am      5 UNK        -0.5000 
     50 C           2.5507  -14.3874  -45.3236 C.2       4 UNK         0.5000 
     51 O           3.2198  -13.7513  -44.5056 O.2       4 UNK        -0.5000 
     52 CA          1.0113  -14.3371  -45.2704 C.3       4 UNK         0.1400 
     53 CB          0.4641  -15.2594  -44.1710 C.3       4 UNK        -0.1800 
     54 N           0.4708  -12.9873  -45.1013 N.am      4 UNK        -0.5000 
     55 C           0.7005  -11.9563  -45.9301 C.2       3 UNK         0.5000 
     56 O           1.3919  -12.0493  -46.9455 O.2       3 UNK        -0.5000 
     57 CA          0.0271  -10.6023  -45.6167 C.3       3 UNK         0.1400 
     58 CB         -0.7611  -10.0877  -46.8334 C.3       3 UNK        -0.1800 
     59 N          -0.8813  -10.6475  -44.4713 N.am      3 UNK        -0.5000 
     60 C          -0.5272  -10.5269  -43.1855 C.2       2 UNK         0.5000 
     61 O           0.6312  -10.3475  -42.8099 O.2       2 UNK        -0.5000 
     62 CA         -1.6599  -10.6355  -42.1426 C.3       2 UNK         0.1400 
     63 CB         -2.0622   -9.2400  -41.6407 C.3       2 UNK        -0.1800 
     64 N          -2.8575  -11.3249  -42.6396 N.am      2 UNK        -0.5000 
     65 C          -2.9102  -12.6297  -42.9408 C.2       1 UNK         0.5000 
     66 O          -1.9407  -13.3850  -42.8360 O.2       1 UNK        -0.5000 
     67 C          -2.7312  -18.0140  -47.1223 C.2       11 UNK         0.5000 
     68 O          -3.6371  -17.2702  -47.4949 O.2       11 UNK        -0.5000 
     69 N          -2.8416  -18.8295  -46.0639 N.am      12 UNK        -0.5000 
     70 CA         -4.0577  -19.0048  -45.2658 C.3       12 UNK         0.1400 
     71 CB         -3.6735  -19.6326  -43.9161 C.3       12 UNK        -0.1800 
     72 C          -5.1467  -19.8541  -45.9580 C.2       12 UNK         0.5000 
     73 O          -6.2695  -19.9037  -45.4542 O.2       12 UNK        -0.5000 
     74 N          -4.8000  -20.5165  -47.0722 N.am      13 UNK        -0.5000 
     75 CA         -5.6130  -21.4510  -47.8575 C.3       13 UNK         0.1400 
     76 CB         -6.7870  -20.7177  -48.5387 C.3       13 UNK        -0.1800 
     77 C          -6.0513  -22.7007  -47.0622 C.2       13 UNK         0.5000 
     78 O          -7.1407  -23.2317  -47.2873 O.2       13 UNK        -0.5000 
     79 N          -5.1883  -23.1533  -46.1462 N.am      14 UNK        -0.5000 
     80 CA         -5.3795  -24.3415  -45.3227 C.3       14 UNK         0.1400 
     81 CB         -4.5352  -24.1928  -44.0474 C.3       14 UNK        -0.1800 
     82 C          -4.9692  -25.6087  -46.0899 C.2       14 UNK         0.5000 
     83 O          -4.0972  -25.5473  -46.9598 O.2       14 UNK        -0.5000 
     84 N          -5.5986  -26.7406  -45.7409 N.am      15 UNK        -0.5000 
     85 CA         -5.2978  -28.1064  -46.2031 C.3       15 UNK         0.1400 
     86 CB         -3.9532  -28.5712  -45.6049 C.3       15 UNK        -0.1800 
     87 C          -5.3464  -28.3071  -47.7367 C.2       15 UNK         0.5000 
     88 O          -4.7294  -29.2425  -48.2488 O.2       15 UNK        -0.5000 
     89 N          -6.0588  -27.4130  -48.4401 N.am      16 UNK        -0.5000 
     90 CA         -6.1301  -27.2795  -49.9003 C.3       16 UNK         0.1400 
     91 CB         -6.8239  -28.5028  -50.5354 C.3       16 UNK        -0.1800 
     92 C          -4.7702  -26.9509  -50.5626 C.2       16 UNK         0.5000 
     93 O          -4.5940  -27.2074  -51.7545 O.2       16 UNK        -0.5000 
     94 N          -3.8375  -26.3621  -49.7977 N.am      17 UNK        -0.5000 
     95 CA         -2.4944  -25.9874  -50.2521 C.3       17 UNK         0.1400 
     96 CB         -1.5634  -25.9048  -49.0304 C.3       17 UNK        -0.1800 
     97 C          -2.4595  -24.6606  -51.0356 C.2       17 UNK         0.5000 
     98 O          -1.3951  -24.2893  -51.5291 O.2       17 UNK        -0.5000 
     99 N          -3.6060  -23.9665  -51.1144 N.am      18 UNK        -0.5000 
    100 CA        -3.8005  -22.6059  -51.6256 C.3       18 UNK         0.1400 
    101 CB        -5.3054  -22.3235  -51.7456 C.3       18 UNK        -0.1800 
    102 C         -3.0925  -22.2809  -52.9502 C.2       18 UNK         0.5000 
    103 O         -2.4967  -21.2113  -53.0721 O.2       18 UNK        -0.5000 
    104 N         -3.1258  -23.2279  -53.8964 N.am      19 UNK        -0.5000 
    105 CA        -2.5179  -23.1235  -55.2247 C.3       19 UNK         0.1400 
    106 CB        -2.8436  -24.3972  -56.0190 C.3       19 UNK        -0.1800 
    107 C         -0.9964  -22.8655  -55.2240 C.2       19 UNK         0.5000 
    108 O         -0.4861  -22.3135  -56.1993 O.2       19 UNK        -0.5000 
    109 N         -0.3009  -23.2379  -54.1391 N.am      20 UNK        -0.5000 
    110 CA         1.1376  -23.0258  -53.9725 C.3       20 UNK         0.1400 
    111 CB         1.6515  -23.9157  -52.8307 C.3       20 UNK        -0.1800 
    112 C          1.5284  -21.5527  -53.7322 C.2       20 UNK         0.5000 
    113 O          2.6889  -21.2083  -53.9608 O.2       20 UNK        -0.5000 
    114 N          0.5794  -20.7172  -53.2850 N.am      21 UNK        -0.5000 
    115 CA         0.7905  -19.2893  -53.0312 C.3       21 UNK         0.1400 
    116 CB         0.6163  -19.0007  -51.5326 C.3       21 UNK        -0.1800 
    117 C         -0.1634  -18.4100  -53.8529 C.2       21 UNK         0.5000 
    118 O          0.2567  -17.3588  -54.3381 O.2       21 UNK        -0.5000 
    119 N         -1.4220  -18.8407  -53.9872 N.am      22 UNK        -0.5000 
    120 CA        -2.5171  -18.0793  -54.6066 C.3       22 UNK         0.1400 
    121 C         -2.8456  -18.5274  -56.0598 C.2       22 UNK         0.5000 
    122 N         -2.1338  -19.4840  -56.6440 N.am      22 UNK        -0.7600 
    123 O         -3.7556  -17.9846  -56.6805 O.2       22 UNK        -0.5000 
    124 C124       -3.7908  -18.0778  -53.7137 C.3       23 UNK        -0.0398 
    125 S125       -3.4721  -17.6349  -51.9683 S.3       23 UNK        -0.2404 
    126 C126       -3.3041  -15.8275  -52.0868 C.3       23 UNK        -0.0205 
    127 H127       -5.6895  -16.8526  -41.2852 H         1 UNK         0.0600 
    128 H128       -3.9266  -16.9301  -41.1846 H         1 UNK         0.0600 
    129 H129       -4.7315  -17.0662  -42.7507 H         1 UNK         0.0600 
    130 H130       -4.2859  -15.2108  -43.9169 H         1 UNK         0.3000 
    131 H131       -5.0496  -12.5967  -42.9870 H         1 UNK         0.0600 
    132 H132       -4.2170  -11.8603  -45.2529 H         1 UNK         0.0800 
    133 H133       -5.4336  -13.1008  -45.3094 H         1 UNK         0.0800 
    134 H134       -3.3388  -12.2126  -47.7164 H         1 UNK         0.0800 
    135 H135       -4.6708  -13.3283  -47.9331 H         1 UNK         0.0800 
    136 H136       -4.4658  -14.4182  -50.0456 H         1 UNK         0.1150 
    137 H137       -0.7036  -16.0204  -51.3373 H         1 UNK         0.1150 
    138 H138       -0.9390  -13.7558  -47.7092 H         1 UNK         0.1150 
    139 H139        1.3795  -15.1348  -50.1089 H         1 UNK         0.0800 
    140 H140        1.2050  -14.4695  -48.5125 H         1 UNK         0.0800 
    141 H141       -0.7703  -16.1995  -47.0453 H         1 UNK         0.0800 
    142 H142        0.0601  -17.5824  -46.4095 H         1 UNK         0.0800 
    143 H143       -1.6527  -17.7248  -48.9333 H         1 UNK         0.0600 
    144 H144       -0.0013  -19.6636  -47.7088 H         1 UNK         0.3000 
    145 H145       -1.7980  -22.5661  -48.8589 H         1 UNK         0.0600 
    146 H146        0.4863  -23.0601  -49.6650 H         1 UNK         0.0600 
    147 H147       -0.2810  -21.8515  -50.6838 H         1 UNK         0.0600 
    148 H148        0.9394  -21.3645  -49.5137 H         1 UNK         0.0600 
    149 H149        0.5188  -22.0756  -47.1763 H         1 UNK         0.3000 
    150 H150       -1.2507  -22.3948  -44.0964 H         1 UNK         0.0600 
    151 H151       -0.9333  -24.7542  -44.8647 H         1 UNK         0.0600 
    152 H152        0.3418  -24.2602  -43.7617 H         1 UNK         0.0600 
    153 H153        0.6573  -24.3460  -45.4953 H         1 UNK         0.0600 
    154 H154        1.5313  -22.1533  -44.6970 H         1 UNK         0.3000 
    155 H155        1.6594  -18.5919  -44.8405 H         1 UNK         0.0600 
    156 H156        2.6116  -20.5630  -42.6980 H         1 UNK         0.0600 
    157 H157        1.5830  -19.1641  -42.4055 H         1 UNK         0.0600 
    158 H158        3.2294  -18.9338  -42.9712 H         1 UNK         0.0600 
    159 H159        3.8224  -20.2776  -44.9412 H         1 UNK         0.3000 
    160 H160        4.5113  -21.5777  -47.0964 H         1 UNK         0.0600 
    161 H161        3.6759  -19.6703  -49.3494 H         1 UNK         0.0600 
    162 H162        3.3425  -21.3964  -49.2666 H         1 UNK         0.0600 
    163 H163        4.9958  -20.8367  -49.4415 H         1 UNK         0.0600 
    164 H164        5.2767  -18.7938  -47.6728 H         1 UNK         0.3000 
    165 H165        6.8729  -18.2387  -44.5819 H         1 UNK         0.0600 
    166 H166        8.8271  -17.6417  -45.9885 H         1 UNK         0.0600 
    167 H167        8.6860  -19.3876  -45.8651 H         1 UNK         0.0600 
    168 H168        8.1766  -18.5725  -47.3388 H         1 UNK         0.0600 
    169 H169        6.6798  -16.6387  -46.9204 H         1 UNK         0.3000 
    170 H170        5.0607  -14.5059  -46.1927 H         1 UNK         0.0600 
    171 H171        5.7396  -15.5117  -48.3398 H         1 UNK         0.0600 
    172 H172        4.2245  -16.4035  -48.4601 H         1 UNK         0.0600 
    173 H173        4.2389  -14.6481  -48.5931 H         1 UNK         0.0600 
    174 H174        2.4400  -15.6781  -46.8844 H         1 UNK         0.3000 
    175 H175        0.6357  -14.6963  -46.2249 H         1 UNK         0.0600 
    176 H176        0.7090  -14.8853  -43.1763 H         1 UNK         0.0600 
    177 H177       -0.6203  -15.3513  -44.2388 H         1 UNK         0.0600 
    178 H178        0.8798  -16.2640  -44.2561 H         1 UNK         0.0600 
    179 H179       -0.1173  -12.8382  -44.2926 H         1 UNK         0.3000 
    180 H180        0.8265   -9.8888  -45.4068 H         1 UNK         0.0600 
    181 H181       -1.2160   -9.1183  -46.6288 H         1 UNK         0.0600 
    182 H182       -1.5542  -10.7787  -47.1177 H         1 UNK         0.0600 
    183 H183       -0.1114   -9.9606  -47.7002 H         1 UNK         0.0600 
    184 H184       -1.8561  -10.8002  -44.6797 H         1 UNK         0.3000 
    185 H185       -1.2688  -11.2032  -41.2956 H         1 UNK         0.0600 
    186 H186       -1.2014   -8.7073  -41.2342 H         1 UNK         0.0600 
    187 H187       -2.4779   -8.6282  -42.4424 H         1 UNK         0.0600 
    188 H188       -2.8058   -9.3051  -40.8462 H         1 UNK         0.0600 
    189 H189       -3.6880  -10.7589  -42.7420 H         1 UNK         0.3000 
    190 H190       -2.0310  -19.3670  -45.7680 H         1 UNK         0.3000 
    191 H191       -4.4880  -18.0200  -45.0740 H         1 UNK         0.0600 
    192 H192       -4.5448  -19.7410  -43.2691 H         1 UNK         0.0600 
    193 H193       -2.9503  -19.0141  -43.3842 H         1 UNK         0.0600 
    194 H194       -3.2362  -20.6233  -44.0465 H         1 UNK         0.0600 
    195 H195       -3.8548  -20.3925  -47.4136 H         1 UNK         0.3000 
    196 H196       -4.9555  -21.8212  -48.6443 H         1 UNK         0.0600 
    197 H197       -7.5062  -20.3398  -47.8118 H         1 UNK         0.0600 
    198 H198       -6.4307  -19.8738  -49.1299 H         1 UNK         0.0600 
    199 H199       -7.3275  -21.3805  -49.2151 H         1 UNK         0.0600 
    200 H200       -4.2600  -22.7356  -46.1116 H         1 UNK         0.3000 
    201 H201       -6.4316  -24.4169  -45.0401 H         1 UNK         0.0600 
    202 H202       -3.4699  -24.1375  -44.2745 H         1 UNK         0.0600 
    203 H203       -4.6840  -25.0402  -43.3772 H         1 UNK         0.0600 
    204 H204       -4.8064  -23.2910  -43.4980 H         1 UNK         0.0600 
    205 H205       -6.3208  -26.6814  -45.0360 H         1 UNK         0.3000 
    206 H206       -6.0806  -28.7464  -45.7941 H         1 UNK         0.0600 
    207 H207       -3.9382  -28.4448  -44.5223 H         1 UNK         0.0600 
    208 H208       -3.7741  -29.6278  -45.8070 H         1 UNK         0.0600 
    209 H209       -3.1138  -28.0113  -46.0192 H         1 UNK         0.0600 
    210 H210       -6.5228  -26.6849  -47.9153 H         1 UNK         0.3000 
    211 H211       -6.7655  -26.4130  -50.0883 H         1 UNK         0.0600 
    212 H212       -7.0288  -28.3314  -51.5928 H         1 UNK         0.0600 
    213 H213       -7.7785  -28.7101  -50.0520 H         1 UNK         0.0600 
    214 H214       -6.2097  -29.4008  -50.4653 H         1 UNK         0.0600 
    215 H215       -4.0438  -26.1704  -48.8204 H         1 UNK         0.3000 
    216 H216       -2.1157  -26.7680  -50.9150 H         1 UNK         0.0600 
    217 H217       -1.8523  -25.0969  -48.3570 H         1 UNK         0.0600 
    218 H218       -0.5321  -25.7212  -49.3344 H         1 UNK         0.0600 
    219 H219       -1.5741  -26.8345  -48.4612 H         1 UNK         0.0600 
    220 H220       -4.4122  -24.3916  -50.6832 H         1 UNK         0.3000 
    221 H221       -3.3896  -21.9354  -50.8768 H         1 UNK         0.0600 
    222 H222       -5.8209  -22.4984  -50.8026 H         1 UNK         0.0600 
    223 H223       -5.7742  -22.9556  -52.5009 H         1 UNK         0.0600 
    224 H224       -5.4853  -21.2847  -52.0265 H         1 UNK         0.0600 
    225 H225       -3.6052  -24.0911  -53.6863 H         1 UNK         0.3000 
    226 H226       -2.9864  -22.2765  -55.7298 H         1 UNK         0.0600 
    227 H227       -2.4297  -25.2853  -55.5395 H         1 UNK         0.0600 
    228 H228       -3.9202  -24.5379  -56.1167 H         1 UNK         0.0600 
    229 H229       -2.4317  -24.3461  -57.0278 H         1 UNK         0.0600 
    230 H230       -0.7906  -23.6572  -53.3539 H         1 UNK         0.3000 
    231 H231        1.6333  -23.3452  -54.8917 H         1 UNK         0.0600 
    232 H232        1.2102  -23.6367  -51.8750 H         1 UNK         0.0600 
    233 H233        2.7342  -23.8333  -52.7272 H         1 UNK         0.0600 
    234 H234        1.4205  -24.9654  -53.0122 H         1 UNK         0.0600 
    235 H235       -0.3584  -21.0749  -53.1494 H         1 UNK         0.3000 
    236 H236        1.8046  -18.9943  -53.3079 H         1 UNK         0.0600 
    237 H237        1.3495  -19.5441  -50.9377 H         1 UNK         0.0600 
    238 H238        0.7589  -17.9406  -51.3231 H         1 UNK         0.0600 
    239 H239       -0.3798  -19.2719  -51.1816 H         1 UNK         0.0600 
    240 H240       -1.7130  -19.7166  -53.5577 H         1 UNK         0.3000 
    241 H241       -2.2042  -17.0396  -54.7077 H         1 UNK         0.0600 
    242 H242       -2.3502  -19.7537  -57.5904 H         1 UNK         0.3800 
    243 H243       -1.3717  -19.9314  -56.1586 H         1 UNK         0.3800 
    244 H244       -4.2497  -19.0679  -53.7181 H         1 UNK         0.0800 
    245 H245       -4.5414  -17.3944  -54.1141 H         1 UNK         0.0800 
    246 H246       -4.2870  -15.3835  -52.2514 H         1 UNK         0.0800 
    247 H247       -2.6956  -15.5654  -52.9527 H         1 UNK         0.0800 
@<TRIPOS>BOND
     1    1    2 1    
     2    1  127 1    
     3    1  128 1    
     4    1  129 1    
     5    2    3 2    
     6    2    4 am   BACKBONE|DICT|INTERRES
     7    4    5 1    
     8    4  130 1    
     9    5    6 1    
    10    5   65 1    
    11    5  131 1    
    12    6    7 1    
    13    6  132 1    
    14    6  133 1    
    15    7    8 1    
    16    8    9 1    
    17    8  134 1    
    18    8  135 1    
    19    9   10 ar   
    20    9   14 ar   
    21   10   11 ar   
    22   10  136 1    
    23   11   12 ar   
    24   11  126 1    
    25   12   13 ar   
    26   12  137 1    
    27   13   14 ar   
    28   13   15 1    
    29   14  138 1    
    30   15   16 1    
    31   15  139 1    
    32   15  140 1    
    33   16   17 1    
    34   17   18 1    
    35   17  141 1    
    36   17  142 1    
    37   18   19 1    
    38   18   67 1    
    39   18  143 1    
    40   19   20 am   BACKBONE|DICT|INTERRES
    41   19  144 1    
    42   20   21 2    
    43   20   22 1    
    44   22   23 1    
    45   22   24 1    
    46   22  145 1    
    47   23  146 1    
    48   23  147 1    
    49   23  148 1    
    50   24   25 am   BACKBONE|DICT|INTERRES
    51   24  149 1    
    52   25   26 2    
    53   25   27 1    
    54   27   28 1    
    55   27   29 1    
    56   27  150 1    
    57   28  151 1    
    58   28  152 1    
    59   28  153 1    
    60   29   30 am   BACKBONE|DICT|INTERRES
    61   29  154 1    
    62   30   31 2    
    63   30   32 1    
    64   32   33 1    
    65   32   34 1    
    66   32  155 1    
    67   33  156 1    
    68   33  157 1    
    69   33  158 1    
    70   34   35 am   BACKBONE|DICT|INTERRES
    71   34  159 1    
    72   35   36 2    
    73   35   37 1    
    74   37   38 1    
    75   37   39 1    
    76   37  160 1    
    77   38  161 1    
    78   38  162 1    
    79   38  163 1    
    80   39   40 am   BACKBONE|DICT|INTERRES
    81   39  164 1    
    82   40   41 2    
    83   40   42 1    
    84   42   43 1    
    85   42   44 1    
    86   42  165 1    
    87   43  166 1    
    88   43  167 1    
    89   43  168 1    
    90   44   45 am   BACKBONE|DICT|INTERRES
    91   44  169 1    
    92   45   46 2    
    93   45   47 1    
    94   47   48 1    
    95   47   49 1    
    96   47  170 1    
    97   48  171 1    
    98   48  172 1    
    99   48  173 1    
   100   49   50 am   BACKBONE|DICT|INTERRES
   101   49  174 1    
   102   50   51 2    
   103   50   52 1    
   104   52   53 1    
   105   52   54 1    
   106   52  175 1    
   107   53  176 1    
   108   53  177 1    
   109   53  178 1    
   110   54   55 am   BACKBONE|DICT|INTERRES
   111   54  179 1    
   112   55   56 2    
   113   55   57 1    
   114   57   58 1    
   115   57   59 1    
   116   57  180 1    
   117   58  181 1    
   118   58  182 1    
   119   58  183 1    
   120   59   60 am   BACKBONE|DICT|INTERRES
   121   59  184 1    
   122   60   61 2    
   123   60   62 1    
   124   62   63 1    
   125   62   64 1    
   126   62  185 1    
   127   63  186 1    
   128   63  187 1    
   129   63  188 1    
   130   64   65 am   BACKBONE|DICT|INTERRES
   131   64  189 1    
   132   65   66 2    
   133   67   68 2    
   134   67   69 am   BACKBONE|DICT|INTERRES
   135   69   70 1    
   136   69  190 1    
   137   70   71 1    
   138   70   72 1    
   139   70  191 1    
   140   71  192 1    
   141   71  193 1    
   142   71  194 1    
   143   72   73 2    
   144   72   74 am   BACKBONE|DICT|INTERRES
   145   74   75 1    
   146   74  195 1    
   147   75   76 1    
   148   75   77 1    
   149   75  196 1    
   150   76  197 1    
   151   76  198 1    
   152   76  199 1    
   153   77   78 2    
   154   77   79 am   BACKBONE|DICT|INTERRES
   155   79   80 1    
   156   79  200 1    
   157   80   81 1    
   158   80   82 1    
   159   80  201 1    
   160   81  202 1    
   161   81  203 1    
   162   81  204 1    
   163   82   83 2    
   164   82   84 am   BACKBONE|DICT|INTERRES
   165   84   85 1    
   166   84  205 1    
   167   85   86 1    
   168   85   87 1    
   169   85  206 1    
   170   86  207 1    
   171   86  208 1    
   172   86  209 1    
   173   87   88 2    
   174   87   89 am   BACKBONE|DICT|INTERRES
   175   89   90 1    
   176   89  210 1    
   177   90   91 1    
   178   90   92 1    
   179   90  211 1    
   180   91  212 1    
   181   91  213 1    
   182   91  214 1    
   183   92   93 2    
   184   92   94 am   BACKBONE|DICT|INTERRES
   185   94   95 1    
   186   94  215 1    
   187   95   96 1    
   188   95   97 1    
   189   95  216 1    
   190   96  217 1    
   191   96  218 1    
   192   96  219 1    
   193   97   98 2    
   194   97   99 am   BACKBONE|DICT|INTERRES
   195   99  100 1    
   196   99  220 1    
   197  100  101 1    
   198  100  102 1    
   199  100  221 1    
   200  101  222 1    
   201  101  223 1    
   202  101  224 1    
   203  102  103 2    
   204  102  104 am   BACKBONE|DICT|INTERRES
   205  104  105 1    
   206  104  225 1    
   207  105  106 1    
   208  105  107 1    
   209  105  226 1    
   210  106  227 1    
   211  106  228 1    
   212  106  229 1    
   213  107  108 2    
   214  107  109 am   BACKBONE|DICT|INTERRES
   215  109  110 1    
   216  109  230 1    
   217  110  111 1    
   218  110  112 1    
   219  110  231 1    
   220  111  232 1    
   221  111  233 1    
   222  111  234 1    
   223  112  113 2    
   224  112  114 am   BACKBONE|DICT|INTERRES
   225  114  115 1    
   226  114  235 1    
   227  115  116 1    
   228  115  117 1    
   229  115  236 1    
   230  116  237 1    
   231  116  238 1    
   232  116  239 1    
   233  117  118 2    
   234  117  119 am   BACKBONE|DICT|INTERRES
   235  119  120 1    
   236  119  240 1    
   237  120  121 1    
   238  120  124 1    
   239  120  241 1    
   240  121  122 am   BACKBONE|DICT|INTERRES
   241  121  123 2    
   242  122  242 1    
   243  122  243 1    
   244  124  125 1    
   245  124  244 1    
   246  124  245 1    
   247  125  126 1    
   248  126  246 1    
   249  126  247 1    
@<TRIPOS>SUBSTRUCTURE
     1 UNK         1 GROUP             0       ****    0 ROOT    
