@<TRIPOS>MOLECULE
3R540
247   249    1
SMALL
USER_CHARGES


@<TRIPOS>ATOM
      1 CA         -4.7715  -16.9025  -48.8614 C.3       0 UNK        -0.1800 
      2 C          -4.1714  -15.5319  -48.5742 C.2       0 UNK         0.5000 
      3 O          -4.8231  -14.6910  -47.9543 O.2       0 UNK        -0.5000 
      4 N          -2.9242  -15.3058  -49.0034 N.am      1 UNK        -0.5000 
      5 CA         -2.1438  -14.0882  -48.7726 C.3       1 UNK         0.1400 
      6 C6         -1.0958  -13.8543  -49.8930 C.3       23 UNK        -0.0398 
      7 S7         -1.8091  -13.2349  -51.4644 S.3       23 UNK        -0.2404 
      8 C8         -2.3017  -14.7140  -52.4197 C.3       23 UNK        -0.0205 
      9 C9         -1.3275  -15.8713  -52.2819 C.ar      23 UNK        -0.0193 
     10 C10        -0.0878  -15.8602  -52.9266 C.ar      23 UNK        -0.1150 
     11 C11         0.8269  -16.9013  -52.7263 C.ar      23 UNK        -0.0193 
     12 C12         0.4884  -17.9529  -51.8632 C.ar      23 UNK        -0.1150 
     13 C13        -0.7598  -17.9809  -51.2361 C.ar      23 UNK        -0.0193 
     14 C14        -1.6649  -16.9491  -51.4668 C.ar      23 UNK        -0.1150 
     15 C15        -1.1422  -19.0898  -50.2760 C.3       23 UNK        -0.0205 
     16 S16        -0.9530  -18.5225  -48.5591 S.3       23 UNK        -0.2404 
     17 C17        -1.9801  -19.7349  -47.6726 C.3       23 UNK        -0.0398 
     18 CA         -1.3363  -21.1383  -47.6095 C.3       11 UNK         0.1400 
     19 N          -0.1071  -21.1756  -46.8186 N.am      11 UNK        -0.5000 
     20 C           0.7435  -22.2109  -46.8014 C.2       10 UNK         0.5000 
     21 O           0.6165  -23.2118  -47.5075 O.2       10 UNK        -0.5000 
     22 CA          1.9036  -22.1389  -45.7927 C.3       10 UNK         0.1400 
     23 CB          3.0632  -21.3004  -46.3506 C.3       10 UNK        -0.1800 
     24 N           1.4890  -21.6133  -44.4897 N.am      10 UNK        -0.5000 
     25 C           0.5948  -22.2071  -43.6852 C.2       9 UNK         0.5000 
     26 O           0.0497  -23.2800  -43.9438 O.2       9 UNK        -0.5000 
     27 CA          0.2132  -21.4648  -42.3924 C.3       9 UNK         0.1400 
     28 CB          1.2854  -21.6669  -41.3115 C.3       9 UNK        -0.1800 
     29 N          -0.0155  -20.0350  -42.6005 N.am      9 UNK        -0.5000 
     30 C          -0.9797  -19.5202  -43.3778 C.2       8 UNK         0.5000 
     31 O          -1.8053  -20.1973  -43.9890 O.2       8 UNK        -0.5000 
     32 CA         -0.9877  -17.9907  -43.5486 C.3       8 UNK         0.1400 
     33 CB         -1.5637  -17.3052  -42.3007 C.3       8 UNK        -0.1800 
     34 N           0.3424  -17.4535  -43.8318 N.am      8 UNK        -0.5000 
     35 C           1.1060  -17.8075  -44.8758 C.2       7 UNK         0.5000 
     36 O           0.7609  -18.6142  -45.7366 O.2       7 UNK        -0.5000 
     37 CA          2.5223  -17.2136  -44.9213 C.3       7 UNK         0.1400 
     38 CB          2.4997  -15.7615  -45.4250 C.3       7 UNK        -0.1800 
     39 N           3.1728  -17.2818  -43.6123 N.am      7 UNK        -0.5000 
     40 C           3.5446  -18.4229  -43.0131 C.2       6 UNK         0.5000 
     41 O           3.4182  -19.5370  -43.5209 O.2       6 UNK        -0.5000 
     42 CA          4.1161  -18.2994  -41.5891 C.3       6 UNK         0.1400 
     43 CB          5.6064  -17.9303  -41.6320 C.3       6 UNK        -0.1800 
     44 N           3.3947  -17.3159  -40.7801 N.am      6 UNK        -0.5000 
     45 C           2.1226  -17.4526  -40.3794 C.2       5 UNK         0.5000 
     46 O           1.4329  -18.4430  -40.6186 O.2       5 UNK        -0.5000 
     47 CA          1.5027  -16.2574  -39.6307 C.3       5 UNK         0.1400 
     48 CB          1.8129  -16.3400  -38.1289 C.3       5 UNK        -0.1800 
     49 N           1.9415  -14.9575  -40.1499 N.am      5 UNK        -0.5000 
     50 C           1.7198  -14.5315  -41.3994 C.2       4 UNK         0.5000 
     51 O           1.1313  -15.2000  -42.2552 O.2       4 UNK        -0.5000 
     52 CA          2.2812  -13.1533  -41.7713 C.3       4 UNK         0.1400 
     53 CB          3.8018  -13.2181  -41.9977 C.3       4 UNK        -0.1800 
     54 N           1.6218  -12.7331  -42.9982 N.am      4 UNK        -0.5000 
     55 C           1.4063  -11.4819  -43.4113 C.2       3 UNK         0.5000 
     56 O           1.8142  -10.4835  -42.8166 O.2       3 UNK        -0.5000 
     57 CA          0.5911  -11.3201  -44.7105 C.3       3 UNK         0.1400 
     58 CB          1.5224  -11.0181  -45.8946 C.3       3 UNK        -0.1800 
     59 N          -0.2140  -12.5001  -45.0404 N.am      3 UNK        -0.5000 
     60 C          -1.3240  -12.8902  -44.4020 C.2       2 UNK         0.5000 
     61 O          -1.8187  -12.2637  -43.4635 O.2       2 UNK        -0.5000 
     62 CA         -1.9874  -14.1885  -44.9149 C.3       2 UNK         0.1400 
     63 CB         -3.2540  -14.5623  -44.1234 C.3       2 UNK        -0.1800 
     64 N          -2.3403  -14.1190  -46.3339 N.am      2 UNK        -0.5000 
     65 C          -1.4980  -14.1750  -47.3727 C.2       1 UNK         0.5000 
     66 O          -0.2786  -14.3064  -47.2485 O.2       1 UNK        -0.5000 
     67 C          -2.3550  -22.1822  -47.1213 C.2       11 UNK         0.5000 
     68 O          -2.8759  -22.9313  -47.9469 O.2       11 UNK        -0.5000 
     69 N          -2.6050  -22.2405  -45.8053 N.am      12 UNK        -0.5000 
     70 CA         -3.5426  -23.1748  -45.1729 C.3       12 UNK         0.1400 
     71 CB         -3.6642  -22.8505  -43.6771 C.3       12 UNK        -0.1800 
     72 C          -3.1740  -24.6543  -45.3790 C.2       12 UNK         0.5000 
     73 O          -4.0711  -25.4831  -45.5359 O.2       12 UNK        -0.5000 
     74 N          -1.8677  -24.9510  -45.4171 N.am      13 UNK        -0.5000 
     75 CA         -1.3225  -26.2668  -45.7497 C.3       13 UNK         0.1400 
     76 CB          0.1877  -26.2773  -45.4686 C.3       13 UNK        -0.1800 
     77 C          -1.6082  -26.6930  -47.2039 C.2       13 UNK         0.5000 
     78 O          -1.7354  -27.8909  -47.4612 O.2       13 UNK        -0.5000 
     79 N          -1.7164  -25.7195  -48.1200 N.am      14 UNK        -0.5000 
     80 CA         -2.1111  -25.9408  -49.5084 C.3       14 UNK         0.1400 
     81 CB         -1.5356  -24.8337  -50.4064 C.3       14 UNK        -0.1800 
     82 C          -3.6410  -26.0540  -49.6367 C.2       14 UNK         0.5000 
     83 O          -4.1178  -27.0760  -50.1303 O.2       14 UNK        -0.5000 
     84 N          -4.3681  -25.0289  -49.1620 N.am      15 UNK        -0.5000 
     85 CA         -5.8373  -24.9449  -49.0948 C.3       15 UNK         0.1400 
     86 CB         -6.5112  -25.2586  -50.4520 C.3       15 UNK        -0.1800 
     87 C          -6.3233  -23.5568  -48.6384 C.2       15 UNK         0.5000 
     88 O          -7.4187  -23.4575  -48.0863 O.2       15 UNK        -0.5000 
     89 N          -5.5331  -22.5113  -48.9265 N.am      16 UNK        -0.5000 
     90 CA         -5.8190  -21.0803  -48.7367 C.3       16 UNK         0.1400 
     91 CB         -6.0081  -20.7206  -47.2485 C.3       16 UNK        -0.1800 
     92 C          -6.9513  -20.5352  -49.6334 C.2       16 UNK         0.5000 
     93 O          -7.4578  -19.4386  -49.3890 O.2       16 UNK        -0.5000 
     94 N          -7.2950  -21.2791  -50.6927 N.am      17 UNK        -0.5000 
     95 CA         -8.2114  -20.8824  -51.7596 C.3       17 UNK         0.1400 
     96 CB         -8.7238  -22.1542  -52.4593 C.3       17 UNK        -0.1800 
     97 C          -7.5024  -19.9138  -52.7274 C.2       17 UNK         0.5000 
     98 O          -7.1504  -20.3002  -53.8433 O.2       17 UNK        -0.5000 
     99 N          -7.2524  -18.6897  -52.2413 N.am      18 UNK        -0.5000 
    100 CA        -6.4115  -17.6522  -52.8437 C.3       18 UNK         0.1400 
    101 CB        -7.0266  -17.1241  -54.1597 C.3       18 UNK        -0.1800 
    102 C         -4.9541  -18.1444  -52.9626 C.2       18 UNK         0.5000 
    103 O         -4.4139  -18.6445  -51.9727 O.2       18 UNK        -0.5000 
    104 N         -4.3471  -18.0234  -54.1508 N.am      19 UNK        -0.5000 
    105 CA        -2.9870  -18.4585  -54.4846 C.3       19 UNK         0.1400 
    106 CB        -2.5352  -17.7343  -55.7650 C.3       19 UNK        -0.1800 
    107 C         -2.8365  -19.9927  -54.5776 C.2       19 UNK         0.5000 
    108 O         -2.3254  -20.5057  -55.5730 O.2       19 UNK        -0.5000 
    109 N         -3.2786  -20.7034  -53.5340 N.am      20 UNK        -0.5000 
    110 CA        -3.3039  -22.1634  -53.4446 C.3       20 UNK         0.1400 
    111 CB        -4.0134  -22.5706  -52.1445 C.3       20 UNK        -0.1800 
    112 C         -1.9108  -22.8124  -53.5259 C.2       20 UNK         0.5000 
    113 O         -1.7642  -23.8564  -54.1619 O.2       20 UNK        -0.5000 
    114 N         -0.9203  -22.1813  -52.8816 N.am      21 UNK        -0.5000 
    115 CA         0.4661  -22.6487  -52.8669 C.3       21 UNK         0.1400 
    116 CB         1.1459  -22.1801  -51.5701 C.3       21 UNK        -0.1800 
    117 C          1.2618  -22.1680  -54.0948 C.2       21 UNK         0.5000 
    118 O          2.1547  -22.8849  -54.5490 O.2       21 UNK        -0.5000 
    119 N          0.9458  -20.9641  -54.5905 N.am      22 UNK        -0.5000 
    120 CA         1.6815  -20.2949  -55.6777 C.3       22 UNK         0.1400 
    121 C          1.1239  -20.5748  -57.1010 C.2       22 UNK         0.5000 
    122 N         -0.1202  -21.0016  -57.2684 N.am      22 UNK        -0.7600 
    123 O          1.8473  -20.4168  -58.0807 O.2       22 UNK        -0.5000 
    124 C124        1.8203  -18.7727  -55.4214 C.3       23 UNK        -0.0398 
    125 S125        2.8541  -18.4342  -53.9562 S.3       23 UNK        -0.2404 
    126 C126        2.1996  -16.8282  -53.3902 C.3       23 UNK        -0.0205 
    127 H127       -5.5517  -16.8222  -49.6180 H         1 UNK         0.0600 
    128 H128       -4.0235  -17.6103  -49.2177 H         1 UNK         0.0600 
    129 H129       -5.2169  -17.3154  -47.9564 H         1 UNK         0.0600 
    130 H130       -2.4127  -16.0538  -49.4489 H         1 UNK         0.3000 
    131 H131       -2.8139  -13.2258  -48.7606 H         1 UNK         0.0600 
    132 H132       -0.4850  -14.7424  -50.0559 H         1 UNK         0.0800 
    133 H133       -0.3904  -13.0822  -49.5804 H         1 UNK         0.0800 
    134 H134       -3.3001  -15.0166  -52.0997 H         1 UNK         0.0800 
    135 H135       -2.3937  -14.4420  -53.4720 H         1 UNK         0.0800 
    136 H136        0.1745  -15.0227  -53.5579 H         1 UNK         0.1150 
    137 H137        1.2024  -18.7386  -51.6653 H         1 UNK         0.1150 
    138 H138       -2.6354  -16.9837  -50.9985 H         1 UNK         0.1150 
    139 H139       -2.1744  -19.3917  -50.4615 H         1 UNK         0.0800 
    140 H140       -0.5208  -19.9698  -50.4361 H         1 UNK         0.0800 
    141 H141       -2.9530  -19.7676  -48.1626 H         1 UNK         0.0800 
    142 H142       -2.1617  -19.3533  -46.6663 H         1 UNK         0.0800 
    143 H143       -1.0701  -21.4304  -48.6271 H         1 UNK         0.0600 
    144 H144        0.1040  -20.3515  -46.2610 H         1 UNK         0.3000 
    145 H145        2.2673  -23.1567  -45.6371 H         1 UNK         0.0600 
    146 H146        3.9198  -21.3154  -45.6766 H         1 UNK         0.0600 
    147 H147        3.3987  -21.6896  -47.3126 H         1 UNK         0.0600 
    148 H148        2.7741  -20.2601  -46.5004 H         1 UNK         0.0600 
    149 H149        1.9199  -20.7438  -44.1923 H         1 UNK         0.3000 
    150 H150       -0.7197  -21.8977  -42.0262 H         1 UNK         0.0600 
    151 H151        1.4679  -22.7276  -41.1347 H         1 UNK         0.0600 
    152 H152        0.9753  -21.2279  -40.3631 H         1 UNK         0.0600 
    153 H153        2.2348  -21.2118  -41.5953 H         1 UNK         0.0600 
    154 H154        0.5996  -19.4012  -42.0983 H         1 UNK         0.3000 
    155 H155       -1.6258  -17.7478  -44.4008 H         1 UNK         0.0600 
    156 H156       -1.0257  -17.5902  -41.3968 H         1 UNK         0.0600 
    157 H157       -2.6106  -17.5751  -42.1577 H         1 UNK         0.0600 
    158 H158       -1.5111  -16.2207  -42.3829 H         1 UNK         0.0600 
    159 H159        0.7035  -16.7645  -43.1769 H         1 UNK         0.3000 
    160 H160        3.1124  -17.8057  -45.6241 H         1 UNK         0.0600 
    161 H161        3.5052  -15.3438  -45.4755 H         1 UNK         0.0600 
    162 H162        1.8990  -15.1153  -44.7866 H         1 UNK         0.0600 
    163 H163        2.0749  -15.7087  -46.4283 H         1 UNK         0.0600 
    164 H164        3.2639  -16.4161  -43.1035 H         1 UNK         0.3000 
    165 H165        4.0193  -19.2740  -41.1058 H         1 UNK         0.0600 
    166 H166        6.0379  -17.9169  -40.6309 H         1 UNK         0.0600 
    167 H167        6.1709  -18.6568  -42.2182 H         1 UNK         0.0600 
    168 H168        5.7679  -16.9494  -42.0807 H         1 UNK         0.0600 
    169 H169        3.8882  -16.4698  -40.5378 H         1 UNK         0.3000 
    170 H170        0.4198  -16.3169  -39.7577 H         1 UNK         0.0600 
    171 H171        1.4791  -17.2918  -37.7134 H         1 UNK         0.0600 
    172 H172        2.8821  -16.2525  -37.9319 H         1 UNK         0.0600 
    173 H173        1.3035  -15.5500  -37.5768 H         1 UNK         0.0600 
    174 H174        2.4358  -14.3577  -39.5050 H         1 UNK         0.3000 
    175 H175        2.0483  -12.4517  -40.9677 H         1 UNK         0.0600 
    176 H176        4.0604  -13.9187  -42.7929 H         1 UNK         0.0600 
    177 H177        4.2006  -12.2415  -42.2727 H         1 UNK         0.0600 
    178 H178        4.3229  -13.5361  -41.0942 H         1 UNK         0.0600 
    179 H179        1.1946  -13.4947  -43.5087 H         1 UNK         0.3000 
    180 H180       -0.0812  -10.4704  -44.5749 H         1 UNK         0.0600 
    181 H181        2.2091  -11.8438  -46.0857 H         1 UNK         0.0600 
    182 H182        2.1230  -10.1277  -45.7037 H         1 UNK         0.0600 
    183 H183        0.9541  -10.8365  -46.8071 H         1 UNK         0.0600 
    184 H184        0.0937  -13.0636  -45.8284 H         1 UNK         0.3000 
    185 H185       -1.2598  -14.9915  -44.7779 H         1 UNK         0.0600 
    186 H186       -3.0575  -14.6037  -43.0518 H         1 UNK         0.0600 
    187 H187       -4.0524  -13.8357  -44.2788 H         1 UNK         0.0600 
    188 H188       -3.6289  -15.5415  -44.4219 H         1 UNK         0.0600 
    189 H189       -3.3284  -14.0383  -46.5449 H         1 UNK         0.3000 
    190 H190       -2.1543  -21.5712  -45.1845 H         1 UNK         0.3000 
    191 H191       -4.5211  -23.0242  -45.6320 H         1 UNK         0.0600 
    192 H192       -2.7049  -22.9451  -43.1678 H         1 UNK         0.0600 
    193 H193       -4.3667  -23.5244  -43.1853 H         1 UNK         0.0600 
    194 H194       -4.0272  -21.8343  -43.5230 H         1 UNK         0.0600 
    195 H195       -1.1959  -24.2217  -45.1974 H         1 UNK         0.3000 
    196 H196       -1.7953  -27.0001  -45.0932 H         1 UNK         0.0600 
    197 H197        0.7145  -25.5396  -46.0744 H         1 UNK         0.0600 
    198 H198        0.6203  -27.2539  -45.6891 H         1 UNK         0.0600 
    199 H199        0.3950  -26.0590  -44.4209 H         1 UNK         0.0600 
    200 H200       -1.6195  -24.7570  -47.8229 H         1 UNK         0.3000 
    201 H201       -1.6784  -26.8841  -49.8492 H         1 UNK         0.0600 
    202 H202       -1.9181  -23.8463  -50.1529 H         1 UNK         0.0600 
    203 H203       -1.7812  -25.0225  -51.4516 H         1 UNK         0.0600 
    204 H204       -0.4488  -24.7961  -50.3317 H         1 UNK         0.0600 
    205 H205       -3.8634  -24.2782  -48.6941 H         1 UNK         0.3000 
    206 H206       -6.1778  -25.6690  -48.3524 H         1 UNK         0.0600 
    207 H207       -7.5750  -25.0159  -50.4337 H         1 UNK         0.0600 
    208 H208       -6.0638  -24.6913  -51.2675 H         1 UNK         0.0600 
    209 H209       -6.4492  -26.3163  -50.7038 H         1 UNK         0.0600 
    210 H210       -4.6304  -22.7119  -49.3329 H         1 UNK         0.3000 
    211 H211       -4.9256  -20.5598  -49.0813 H         1 UNK         0.0600 
    212 H212       -6.8916  -21.1950  -46.8219 H         1 UNK         0.0600 
    213 H213       -6.1226  -19.6444  -47.1154 H         1 UNK         0.0600 
    214 H214       -5.1450  -21.0194  -46.6573 H         1 UNK         0.0600 
    215 H215       -6.8201  -22.1588  -50.8199 H         1 UNK         0.3000 
    216 H216       -9.0699  -20.3640  -51.3273 H         1 UNK         0.0600 
    217 H217       -9.4135  -21.9040  -53.2664 H         1 UNK         0.0600 
    218 H218       -9.2603  -22.7975  -51.7616 H         1 UNK         0.0600 
    219 H219       -7.9087  -22.7367  -52.8910 H         1 UNK         0.0600 
    220 H220       -7.5071  -18.5310  -51.2722 H         1 UNK         0.3000 
    221 H221       -6.3918  -16.8239  -52.1342 H         1 UNK         0.0600 
    222 H222       -7.0431  -17.8808  -54.9446 H         1 UNK         0.0600 
    223 H223       -8.0533  -16.7936  -54.0016 H         1 UNK         0.0600 
    224 H224       -6.4716  -16.2642  -54.5367 H         1 UNK         0.0600 
    225 H225       -4.8855  -17.6449  -54.9161 H         1 UNK         0.3000 
    226 H226       -2.3178  -18.1443  -53.6886 H         1 UNK         0.0600 
    227 H227       -2.5665  -16.6522  -55.6359 H         1 UNK         0.0600 
    228 H228       -1.5091  -17.9959  -56.0257 H         1 UNK         0.0600 
    229 H229       -3.1665  -17.9916  -56.6163 H         1 UNK         0.0600 
    230 H230       -3.7037  -20.1818  -52.7720 H         1 UNK         0.3000 
    231 H231       -3.8906  -22.5368  -54.2865 H         1 UNK         0.0600 
    232 H232       -5.0488  -22.2326  -52.1477 H         1 UNK         0.0600 
    233 H233       -3.5211  -22.1481  -51.2679 H         1 UNK         0.0600 
    234 H234       -4.0239  -23.6549  -52.0285 H         1 UNK         0.0600 
    235 H235       -1.1304  -21.3285  -52.3876 H         1 UNK         0.3000 
    236 H236        0.4748  -23.7411  -52.8681 H         1 UNK         0.0600 
    237 H237        2.1443  -22.6100  -51.4811 H         1 UNK         0.0600 
    238 H238        1.2581  -21.0969  -51.5404 H         1 UNK         0.0600 
    239 H239        0.5825  -22.4868  -50.6884 H         1 UNK         0.0600 
    240 H240        0.1802  -20.4522  -54.1831 H         1 UNK         0.3000 
    241 H241        2.6974  -20.6953  -55.6961 H         1 UNK         0.0600 
    242 H242       -0.4501  -21.1868  -58.2018 H         1 UNK         0.3800 
    243 H243       -0.7822  -21.0350  -56.4978 H         1 UNK         0.3800 
    244 H244        2.2876  -18.2733  -56.2722 H         1 UNK         0.0800 
    245 H245        0.8379  -18.3155  -55.2957 H         1 UNK         0.0800 
    246 H246        2.9009  -16.4060  -52.6695 H         1 UNK         0.0800 
    247 H247        2.1805  -16.1421  -54.2385 H         1 UNK         0.0800 
@<TRIPOS>BOND
     1    1    2 1    
     2    1  127 1    
     3    1  128 1    
     4    1  129 1    
     5    2    3 2    
     6    2    4 am   BACKBONE|DICT|INTERRES
     7    4    5 1    
     8    4  130 1    
     9    5    6 1    
    10    5   65 1    
    11    5  131 1    
    12    6    7 1    
    13    6  132 1    
    14    6  133 1    
    15    7    8 1    
    16    8    9 1    
    17    8  134 1    
    18    8  135 1    
    19    9   10 ar   
    20    9   14 ar   
    21   10   11 ar   
    22   10  136 1    
    23   11   12 ar   
    24   11  126 1    
    25   12   13 ar   
    26   12  137 1    
    27   13   14 ar   
    28   13   15 1    
    29   14  138 1    
    30   15   16 1    
    31   15  139 1    
    32   15  140 1    
    33   16   17 1    
    34   17   18 1    
    35   17  141 1    
    36   17  142 1    
    37   18   19 1    
    38   18   67 1    
    39   18  143 1    
    40   19   20 am   BACKBONE|DICT|INTERRES
    41   19  144 1    
    42   20   21 2    
    43   20   22 1    
    44   22   23 1    
    45   22   24 1    
    46   22  145 1    
    47   23  146 1    
    48   23  147 1    
    49   23  148 1    
    50   24   25 am   BACKBONE|DICT|INTERRES
    51   24  149 1    
    52   25   26 2    
    53   25   27 1    
    54   27   28 1    
    55   27   29 1    
    56   27  150 1    
    57   28  151 1    
    58   28  152 1    
    59   28  153 1    
    60   29   30 am   BACKBONE|DICT|INTERRES
    61   29  154 1    
    62   30   31 2    
    63   30   32 1    
    64   32   33 1    
    65   32   34 1    
    66   32  155 1    
    67   33  156 1    
    68   33  157 1    
    69   33  158 1    
    70   34   35 am   BACKBONE|DICT|INTERRES
    71   34  159 1    
    72   35   36 2    
    73   35   37 1    
    74   37   38 1    
    75   37   39 1    
    76   37  160 1    
    77   38  161 1    
    78   38  162 1    
    79   38  163 1    
    80   39   40 am   BACKBONE|DICT|INTERRES
    81   39  164 1    
    82   40   41 2    
    83   40   42 1    
    84   42   43 1    
    85   42   44 1    
    86   42  165 1    
    87   43  166 1    
    88   43  167 1    
    89   43  168 1    
    90   44   45 am   BACKBONE|DICT|INTERRES
    91   44  169 1    
    92   45   46 2    
    93   45   47 1    
    94   47   48 1    
    95   47   49 1    
    96   47  170 1    
    97   48  171 1    
    98   48  172 1    
    99   48  173 1    
   100   49   50 am   BACKBONE|DICT|INTERRES
   101   49  174 1    
   102   50   51 2    
   103   50   52 1    
   104   52   53 1    
   105   52   54 1    
   106   52  175 1    
   107   53  176 1    
   108   53  177 1    
   109   53  178 1    
   110   54   55 am   BACKBONE|DICT|INTERRES
   111   54  179 1    
   112   55   56 2    
   113   55   57 1    
   114   57   58 1    
   115   57   59 1    
   116   57  180 1    
   117   58  181 1    
   118   58  182 1    
   119   58  183 1    
   120   59   60 am   BACKBONE|DICT|INTERRES
   121   59  184 1    
   122   60   61 2    
   123   60   62 1    
   124   62   63 1    
   125   62   64 1    
   126   62  185 1    
   127   63  186 1    
   128   63  187 1    
   129   63  188 1    
   130   64   65 am   BACKBONE|DICT|INTERRES
   131   64  189 1    
   132   65   66 2    
   133   67   68 2    
   134   67   69 am   BACKBONE|DICT|INTERRES
   135   69   70 1    
   136   69  190 1    
   137   70   71 1    
   138   70   72 1    
   139   70  191 1    
   140   71  192 1    
   141   71  193 1    
   142   71  194 1    
   143   72   73 2    
   144   72   74 am   BACKBONE|DICT|INTERRES
   145   74   75 1    
   146   74  195 1    
   147   75   76 1    
   148   75   77 1    
   149   75  196 1    
   150   76  197 1    
   151   76  198 1    
   152   76  199 1    
   153   77   78 2    
   154   77   79 am   BACKBONE|DICT|INTERRES
   155   79   80 1    
   156   79  200 1    
   157   80   81 1    
   158   80   82 1    
   159   80  201 1    
   160   81  202 1    
   161   81  203 1    
   162   81  204 1    
   163   82   83 2    
   164   82   84 am   BACKBONE|DICT|INTERRES
   165   84   85 1    
   166   84  205 1    
   167   85   86 1    
   168   85   87 1    
   169   85  206 1    
   170   86  207 1    
   171   86  208 1    
   172   86  209 1    
   173   87   88 2    
   174   87   89 am   BACKBONE|DICT|INTERRES
   175   89   90 1    
   176   89  210 1    
   177   90   91 1    
   178   90   92 1    
   179   90  211 1    
   180   91  212 1    
   181   91  213 1    
   182   91  214 1    
   183   92   93 2    
   184   92   94 am   BACKBONE|DICT|INTERRES
   185   94   95 1    
   186   94  215 1    
   187   95   96 1    
   188   95   97 1    
   189   95  216 1    
   190   96  217 1    
   191   96  218 1    
   192   96  219 1    
   193   97   98 2    
   194   97   99 am   BACKBONE|DICT|INTERRES
   195   99  100 1    
   196   99  220 1    
   197  100  101 1    
   198  100  102 1    
   199  100  221 1    
   200  101  222 1    
   201  101  223 1    
   202  101  224 1    
   203  102  103 2    
   204  102  104 am   BACKBONE|DICT|INTERRES
   205  104  105 1    
   206  104  225 1    
   207  105  106 1    
   208  105  107 1    
   209  105  226 1    
   210  106  227 1    
   211  106  228 1    
   212  106  229 1    
   213  107  108 2    
   214  107  109 am   BACKBONE|DICT|INTERRES
   215  109  110 1    
   216  109  230 1    
   217  110  111 1    
   218  110  112 1    
   219  110  231 1    
   220  111  232 1    
   221  111  233 1    
   222  111  234 1    
   223  112  113 2    
   224  112  114 am   BACKBONE|DICT|INTERRES
   225  114  115 1    
   226  114  235 1    
   227  115  116 1    
   228  115  117 1    
   229  115  236 1    
   230  116  237 1    
   231  116  238 1    
   232  116  239 1    
   233  117  118 2    
   234  117  119 am   BACKBONE|DICT|INTERRES
   235  119  120 1    
   236  119  240 1    
   237  120  121 1    
   238  120  124 1    
   239  120  241 1    
   240  121  122 am   BACKBONE|DICT|INTERRES
   241  121  123 2    
   242  122  242 1    
   243  122  243 1    
   244  124  125 1    
   245  124  244 1    
   246  124  245 1    
   247  125  126 1    
   248  126  246 1    
   249  126  247 1    
@<TRIPOS>SUBSTRUCTURE
     1 UNK         1 GROUP             0       ****    0 ROOT    
