@<TRIPOS>MOLECULE
3R540
247   249    1
SMALL
USER_CHARGES


@<TRIPOS>ATOM
      1 CA         -2.3844  -11.6126  -46.8342 C.3       0 UNK        -0.1800 
      2 C          -2.1255  -13.0916  -47.0817 C.2       0 UNK         0.5000 
      3 O          -0.9728  -13.5193  -47.0711 O.2       0 UNK        -0.5000 
      4 N          -3.1928  -13.8729  -47.2936 N.am      1 UNK        -0.5000 
      5 CA         -3.1422  -15.3236  -47.5300 C.3       1 UNK         0.1400 
      6 C6         -4.4048  -15.8314  -48.2707 C.3       23 UNK        -0.0398 
      7 S7         -4.4599  -15.2827  -50.0099 S.3       23 UNK        -0.2404 
      8 C8         -3.9627  -16.7993  -50.8935 C.3       23 UNK        -0.0205 
      9 C9         -2.4625  -17.0439  -50.8184 C.ar      23 UNK        -0.0193 
     10 C10        -1.6346  -16.6168  -51.8594 C.ar      23 UNK        -0.1150 
     11 C11        -0.2568  -16.8643  -51.8253 C.ar      23 UNK        -0.0193 
     12 C12         0.2941  -17.4821  -50.6992 C.ar      23 UNK        -0.1150 
     13 C13        -0.5193  -17.9049  -49.6445 C.ar      23 UNK        -0.0193 
     14 C14        -1.9005  -17.7092  -49.7246 C.ar      23 UNK        -0.1150 
     15 C15         0.0959  -18.5600  -48.4170 C.3       23 UNK        -0.0205 
     16 S16         0.9277  -20.1292  -48.8178 S.3       23 UNK        -0.2404 
     17 C17         1.3002  -20.7642  -47.1498 C.3       23 UNK        -0.0398 
     18 CA          0.3938  -21.9557  -46.7568 C.3       11 UNK         0.1400 
     19 N           0.9660  -22.7167  -45.6456 N.am      11 UNK        -0.5000 
     20 C           0.8489  -24.0405  -45.4809 C.2       10 UNK         0.5000 
     21 O           0.3087  -24.7862  -46.2977 O.2       10 UNK        -0.5000 
     22 CA          1.4329  -24.6420  -44.1857 C.3       10 UNK         0.1400 
     23 CB          2.8591  -25.1580  -44.4307 C.3       10 UNK        -0.1800 
     24 N           1.4538  -23.7105  -43.0551 N.am      10 UNK        -0.5000 
     25 C           0.3631  -23.2363  -42.4382 C.2       9 UNK         0.5000 
     26 O          -0.7871  -23.5340  -42.7583 O.2       9 UNK        -0.5000 
     27 CA          0.5938  -22.2172  -41.3042 C.3       9 UNK         0.1400 
     28 CB          0.8617  -22.9479  -39.9798 C.3       9 UNK        -0.1800 
     29 N           1.6647  -21.2385  -41.5389 N.am      9 UNK        -0.5000 
     30 C           1.8410  -20.4972  -42.6418 C.2       8 UNK         0.5000 
     31 O           1.1858  -20.6441  -43.6769 O.2       8 UNK        -0.5000 
     32 CA          2.9636  -19.4402  -42.5832 C.3       8 UNK         0.1400 
     33 CB          4.3429  -20.1182  -42.6133 C.3       8 UNK        -0.1800 
     34 N           2.8947  -18.4900  -43.6945 N.am      8 UNK        -0.5000 
     35 C           1.8868  -17.6400  -43.9288 C.2       7 UNK         0.5000 
     36 O           0.9431  -17.4524  -43.1566 O.2       7 UNK        -0.5000 
     37 CA          1.9696  -16.8928  -45.2664 C.3       7 UNK         0.1400 
     38 CB          0.7012  -16.0873  -45.5810 C.3       7 UNK        -0.1800 
     39 N           3.1195  -15.9951  -45.2673 N.am      7 UNK        -0.5000 
     40 C           4.0817  -15.9729  -46.1997 C.2       6 UNK         0.5000 
     41 O           4.1440  -16.7840  -47.1242 O.2       6 UNK        -0.5000 
     42 CA          5.1443  -14.8554  -46.1212 C.3       6 UNK         0.1400 
     43 CB          5.0173  -13.9107  -47.3279 C.3       6 UNK        -0.1800 
     44 N           5.0536  -14.0538  -44.9011 N.am      6 UNK        -0.5000 
     45 C           5.6181  -14.3692  -43.7288 C.2       5 UNK         0.5000 
     46 O           6.3368  -15.3541  -43.5572 O.2       5 UNK        -0.5000 
     47 CA          5.3014  -13.4379  -42.5393 C.3       5 UNK         0.1400 
     48 CB          6.4010  -12.3767  -42.3814 C.3       5 UNK        -0.1800 
     49 N           3.9963  -12.7672  -42.6254 N.am      5 UNK        -0.5000 
     50 C           2.8167  -13.4003  -42.6759 C.2       4 UNK         0.5000 
     51 O           2.7111  -14.6266  -42.7306 O.2       4 UNK        -0.5000 
     52 CA          1.5540  -12.5187  -42.7269 C.3       4 UNK         0.1400 
     53 CB          1.2616  -12.0868  -44.1731 C.3       4 UNK        -0.1800 
     54 N           0.3823  -13.2213  -42.2047 N.am      4 UNK        -0.5000 
     55 C           0.2166  -13.6251  -40.9397 C.2       3 UNK         0.5000 
     56 O           0.9937  -13.3300  -40.0298 O.2       3 UNK        -0.5000 
     57 CA         -0.9994  -14.5204  -40.6182 C.3       3 UNK         0.1400 
     58 CB         -2.1339  -13.7013  -39.9720 C.3       3 UNK        -0.1800 
     59 N          -1.5040  -15.3437  -41.7299 N.am      3 UNK        -0.5000 
     60 C          -2.1272  -14.9527  -42.8487 C.2       2 UNK         0.5000 
     61 O          -2.3077  -13.7731  -43.1642 O.2       2 UNK        -0.5000 
     62 CA         -2.6350  -16.0710  -43.7690 C.3       2 UNK         0.1400 
     63 CB         -3.9088  -16.7253  -43.2052 C.3       2 UNK        -0.1800 
     64 N          -2.9185  -15.4934  -45.0757 N.am      2 UNK        -0.5000 
     65 C          -2.9071  -16.1451  -46.2418 C.2       1 UNK         0.5000 
     66 O          -2.7186  -17.3581  -46.3326 O.2       1 UNK        -0.5000 
     67 C          -1.0312  -21.4901  -46.4014 C.2       11 UNK         0.5000 
     68 O          -1.9233  -21.5588  -47.2472 O.2       11 UNK        -0.5000 
     69 N          -1.2220  -21.0385  -45.1524 N.am      12 UNK        -0.5000 
     70 CA         -2.4990  -20.5676  -44.6148 C.3       12 UNK         0.1400 
     71 CB         -2.2838  -20.0213  -43.1972 C.3       12 UNK        -0.1800 
     72 C          -3.5942  -21.6490  -44.6226 C.2       12 UNK         0.5000 
     73 O          -4.7559  -21.3267  -44.8754 O.2       12 UNK        -0.5000 
     74 N          -3.1994  -22.9111  -44.3957 N.am      13 UNK        -0.5000 
     75 CA         -4.0226  -24.1099  -44.5506 C.3       13 UNK         0.1400 
     76 CB         -3.1803  -25.3484  -44.2044 C.3       13 UNK        -0.1800 
     77 C          -4.6070  -24.2122  -45.9733 C.2       13 UNK         0.5000 
     78 O          -3.8723  -24.4869  -46.9234 O.2       13 UNK        -0.5000 
     79 N          -5.9128  -23.9329  -46.0825 N.am      14 UNK        -0.5000 
     80 CA         -6.7073  -23.8425  -47.3123 C.3       14 UNK         0.1400 
     81 CB         -6.7465  -25.1969  -48.0530 C.3       14 UNK        -0.1800 
     82 C          -6.3107  -22.6749  -48.2435 C.2       14 UNK         0.5000 
     83 O          -6.7095  -22.6894  -49.4077 O.2       14 UNK        -0.5000 
     84 N          -5.5642  -21.6829  -47.7282 N.am      15 UNK        -0.5000 
     85 CA         -5.1314  -20.4505  -48.4018 C.3       15 UNK         0.1400 
     86 CB         -6.3323  -19.4912  -48.5357 C.3       15 UNK        -0.1800 
     87 C          -4.4313  -20.7193  -49.7518 C.2       15 UNK         0.5000 
     88 O          -4.9437  -20.3331  -50.8046 O.2       15 UNK        -0.5000 
     89 N          -3.3010  -21.4377  -49.6947 N.am      16 UNK        -0.5000 
     90 CA         -2.5080  -21.9235  -50.8320 C.3       16 UNK         0.1400 
     91 CB         -1.8093  -20.7523  -51.5541 C.3       16 UNK        -0.1800 
     92 C          -3.3148  -22.8263  -51.7900 C.2       16 UNK         0.5000 
     93 O          -3.1317  -22.7526  -53.0063 O.2       16 UNK        -0.5000 
     94 N          -4.2114  -23.6428  -51.2146 N.am      17 UNK        -0.5000 
     95 CA         -5.1847  -24.5076  -51.8907 C.3       17 UNK         0.1400 
     96 CB         -4.4696  -25.6610  -52.6255 C.3       17 UNK        -0.1800 
     97 C          -6.1288  -23.6962  -52.8021 C.2       17 UNK         0.5000 
     98 O          -6.2276  -23.9704  -53.9977 O.2       17 UNK        -0.5000 
     99 N          -6.7634  -22.6704  -52.2174 N.am      18 UNK        -0.5000 
    100 CA        -7.5900  -21.6493  -52.8705 C.3       18 UNK         0.1400 
    101 CB        -8.9081  -22.2608  -53.3888 C.3       18 UNK        -0.1800 
    102 C         -6.8062  -20.8771  -53.9540 C.2       18 UNK         0.5000 
    103 O         -7.2968  -20.6878  -55.0684 O.2       18 UNK        -0.5000 
    104 N         -5.5777  -20.4792  -53.5956 N.am      19 UNK        -0.5000 
    105 CA        -4.5729  -19.7876  -54.4073 C.3       19 UNK         0.1400 
    106 CB        -5.0705  -18.3901  -54.8284 C.3       19 UNK        -0.1800 
    107 C         -4.0169  -20.5960  -55.6012 C.2       19 UNK         0.5000 
    108 O         -3.2881  -20.0250  -56.4144 O.2       19 UNK        -0.5000 
    109 N         -4.3060  -21.9028  -55.6871 N.am      20 UNK        -0.5000 
    110 CA        -3.8141  -22.7856  -56.7490 C.3       20 UNK         0.1400 
    111 CB        -4.5602  -24.1259  -56.7039 C.3       20 UNK        -0.1800 
    112 C         -2.2926  -23.0170  -56.6938 C.2       20 UNK         0.5000 
    113 O         -1.6649  -23.1370  -57.7466 O.2       20 UNK        -0.5000 
    114 N         -1.7221  -23.0538  -55.4809 N.am      21 UNK        -0.5000 
    115 CA        -0.2764  -23.1514  -55.2622 C.3       21 UNK         0.1400 
    116 CB        -0.0101  -23.7584  -53.8758 C.3       21 UNK        -0.1800 
    117 C          0.4336  -21.7909  -55.4156 C.2       21 UNK         0.5000 
    118 O          1.6374  -21.7631  -55.6739 O.2       21 UNK        -0.5000 
    119 N         -0.3193  -20.6950  -55.2583 N.am      22 UNK        -0.5000 
    120 CA         0.1312  -19.3171  -55.4950 C.3       22 UNK         0.1400 
    121 C          0.1678  -18.9794  -57.0119 C.2       22 UNK         0.5000 
    122 N         -0.8961  -19.2539  -57.7573 N.am      22 UNK        -0.7600 
    123 O          1.1710  -18.4853  -57.5193 O.2       22 UNK        -0.5000 
    124 C124       -0.7367  -18.3208  -54.6874 C.3       23 UNK        -0.0398 
    125 S125       -0.0953  -16.6083  -54.6468 S.3       23 UNK        -0.2404 
    126 C126        0.6618  -16.4862  -52.9865 C.3       23 UNK        -0.0205 
    127 H127       -1.8654  -11.0109  -47.5803 H         1 UNK         0.0600 
    128 H128       -2.0149  -11.3291  -45.8485 H         1 UNK         0.0600 
    129 H129       -3.4467  -11.3724  -46.8818 H         1 UNK         0.0600 
    130 H130       -4.1145  -13.4597  -47.3031 H         1 UNK         0.3000 
    131 H131       -2.2755  -15.5200  -48.1631 H         1 UNK         0.0600 
    132 H132       -4.4670  -16.9197  -48.2529 H         1 UNK         0.0800 
    133 H133       -5.3078  -15.4819  -47.7677 H         1 UNK         0.0800 
    134 H134       -4.5051  -17.6605  -50.5060 H         1 UNK         0.0800 
    135 H135       -4.2680  -16.7060  -51.9366 H         1 UNK         0.0800 
    136 H136       -2.0714  -16.1122  -52.7092 H         1 UNK         0.1150 
    137 H137        1.3602  -17.6539  -50.6466 H         1 UNK         0.1150 
    138 H138       -2.5348  -18.0582  -48.9232 H         1 UNK         0.1150 
    139 H139        0.8208  -17.8714  -47.9844 H         1 UNK         0.0800 
    140 H140       -0.6659  -18.7355  -47.6556 H         1 UNK         0.0800 
    141 H141        1.2520  -19.9627  -46.4109 H         1 UNK         0.0800 
    142 H142        2.3419  -21.0877  -47.1657 H         1 UNK         0.0800 
    143 H143        0.3156  -22.6155  -47.6241 H         1 UNK         0.0600 
    144 H144        1.3626  -22.1666  -44.8911 H         1 UNK         0.3000 
    145 H145        0.8051  -25.4918  -43.9090 H         1 UNK         0.0600 
    146 H146        2.8791  -25.8774  -45.2505 H         1 UNK         0.0600 
    147 H147        3.5414  -24.3471  -44.6887 H         1 UNK         0.0600 
    148 H148        3.2536  -25.6623  -43.5484 H         1 UNK         0.0600 
    149 H149        2.3594  -23.3990  -42.7366 H         1 UNK         0.3000 
    150 H150       -0.3299  -21.6506  -41.1855 H         1 UNK         0.0600 
    151 H151        0.0730  -23.6703  -39.7644 H         1 UNK         0.0600 
    152 H152        0.8964  -22.2501  -39.1430 H         1 UNK         0.0600 
    153 H153        1.8071  -23.4913  -40.0041 H         1 UNK         0.0600 
    154 H154        2.2705  -21.0640  -40.7502 H         1 UNK         0.3000 
    155 H155        2.8588  -18.8807  -41.6515 H         1 UNK         0.0600 
    156 H156        4.4708  -20.7979  -41.7700 H         1 UNK         0.0600 
    157 H157        5.1449  -19.3818  -42.5549 H         1 UNK         0.0600 
    158 H158        4.4861  -20.6977  -43.5264 H         1 UNK         0.0600 
    159 H159        3.6242  -18.5642  -44.3876 H         1 UNK         0.3000 
    160 H160        2.0788  -17.6567  -46.0372 H         1 UNK         0.0600 
    161 H161        0.4999  -15.3297  -44.8229 H         1 UNK         0.0600 
    162 H162       -0.1605  -16.7506  -45.6283 H         1 UNK         0.0600 
    163 H163        0.7792  -15.5868  -46.5461 H         1 UNK         0.0600 
    164 H164        3.1672  -15.3594  -44.4762 H         1 UNK         0.3000 
    165 H165        6.1250  -15.3337  -46.1666 H         1 UNK         0.0600 
    166 H166        5.7913  -13.1432  -47.3113 H         1 UNK         0.0600 
    167 H167        5.1241  -14.4558  -48.2668 H         1 UNK         0.0600 
    168 H168        4.0479  -13.4110  -47.3472 H         1 UNK         0.0600 
    169 H169        4.4787  -13.2254  -44.9463 H         1 UNK         0.3000 
    170 H170        5.2934  -14.0564  -41.6394 H         1 UNK         0.0600 
    171 H171        7.3833  -12.8420  -42.2884 H         1 UNK         0.0600 
    172 H172        6.4366  -11.7036  -43.2390 H         1 UNK         0.0600 
    173 H173        6.2435  -11.7742  -41.4866 H         1 UNK         0.0600 
    174 H174        4.0100  -11.7575  -42.6017 H         1 UNK         0.3000 
    175 H175        1.7207  -11.6297  -42.1155 H         1 UNK         0.0600 
    176 H176        0.3773  -11.4511  -44.2240 H         1 UNK         0.0600 
    177 H177        2.0931  -11.5178  -44.5903 H         1 UNK         0.0600 
    178 H178        1.0915  -12.9446  -44.8252 H         1 UNK         0.0600 
    179 H179       -0.3393  -13.4718  -42.8693 H         1 UNK         0.3000 
    180 H180       -0.6525  -15.2352  -39.8703 H         1 UNK         0.0600 
    181 H181       -2.5175  -12.9335  -40.6443 H         1 UNK         0.0600 
    182 H182       -1.7833  -13.1960  -39.0712 H         1 UNK         0.0600 
    183 H183       -2.9670  -14.3411  -39.6813 H         1 UNK         0.0600 
    184 H184       -1.3436  -16.3350  -41.6136 H         1 UNK         0.3000 
    185 H185       -1.8468  -16.8206  -43.8640 H         1 UNK         0.0600 
    186 H186       -3.7262  -17.1620  -42.2229 H         1 UNK         0.0600 
    187 H187       -4.7166  -16.0003  -43.0977 H         1 UNK         0.0600 
    188 H188       -4.2632  -17.5257  -43.8551 H         1 UNK         0.0600 
    189 H189       -3.0228  -14.4863  -45.0688 H         1 UNK         0.3000 
    190 H190       -0.4196  -20.9783  -44.5310 H         1 UNK         0.3000 
    191 H191       -2.8410  -19.7494  -45.2501 H         1 UNK         0.0600 
    192 H192       -1.5274  -19.2360  -43.1839 H         1 UNK         0.0600 
    193 H193       -3.2064  -19.5988  -42.7991 H         1 UNK         0.0600 
    194 H194       -1.9671  -20.8071  -42.5137 H         1 UNK         0.0600 
    195 H195       -2.2298  -23.0702  -44.1444 H         1 UNK         0.3000 
    196 H196       -4.8424  -24.0481  -43.8323 H         1 UNK         0.0600 
    197 H197       -3.7545  -26.2648  -44.3456 H         1 UNK         0.0600 
    198 H198       -2.8560  -25.3258  -43.1639 H         1 UNK         0.0600 
    199 H199       -2.2893  -25.4171  -44.8304 H         1 UNK         0.0600 
    200 H200       -6.4073  -23.6737  -45.2396 H         1 UNK         0.3000 
    201 H201       -7.7255  -23.6226  -46.9890 H         1 UNK         0.0600 
    202 H202       -7.0331  -26.0059  -47.3811 H         1 UNK         0.0600 
    203 H203       -5.7811  -25.4503  -48.4913 H         1 UNK         0.0600 
    204 H204       -7.4757  -25.1792  -48.8638 H         1 UNK         0.0600 
    205 H205       -5.2882  -21.7585  -46.7541 H         1 UNK         0.3000 
    206 H206       -4.3935  -19.9753  -47.7528 H         1 UNK         0.0600 
    207 H207       -6.7583  -19.2581  -47.5599 H         1 UNK         0.0600 
    208 H208       -6.0393  -18.5479  -48.9940 H         1 UNK         0.0600 
    209 H209       -7.1238  -19.9179  -49.1529 H         1 UNK         0.0600 
    210 H210       -2.9271  -21.6662  -48.7741 H         1 UNK         0.3000 
    211 H211       -1.7273  -22.5603  -50.4139 H         1 UNK         0.0600 
    212 H212       -1.2573  -21.0802  -52.4336 H         1 UNK         0.0600 
    213 H213       -1.0873  -20.2771  -50.8964 H         1 UNK         0.0600 
    214 H214       -2.5131  -19.9863  -51.8733 H         1 UNK         0.0600 
    215 H215       -4.3051  -23.5873  -50.2104 H         1 UNK         0.3000 
    216 H216       -5.8090  -24.9475  -51.1119 H         1 UNK         0.0600 
    217 H217       -5.1918  -26.3483  -53.0673 H         1 UNK         0.0600 
    218 H218       -3.8492  -26.2380  -51.9401 H         1 UNK         0.0600 
    219 H219       -3.8295  -25.2990  -53.4303 H         1 UNK         0.0600 
    220 H220       -6.6277  -22.5421  -51.2151 H         1 UNK         0.3000 
    221 H221       -7.8428  -20.9220  -52.0976 H         1 UNK         0.0600 
    222 H222       -8.7364  -22.9714  -54.1978 H         1 UNK         0.0600 
    223 H223       -9.4397  -22.7813  -52.5923 H         1 UNK         0.0600 
    224 H224       -9.5734  -21.4858  -53.7705 H         1 UNK         0.0600 
    225 H225       -5.2984  -20.6532  -52.6317 H         1 UNK         0.3000 
    226 H226       -3.7228  -19.6340  -53.7448 H         1 UNK         0.0600 
    227 H227       -4.2688  -17.8066  -55.2822 H         1 UNK         0.0600 
    228 H228       -5.8799  -18.4505  -55.5562 H         1 UNK         0.0600 
    229 H229       -5.4323  -17.8255  -53.9692 H         1 UNK         0.0600 
    230 H230       -4.8733  -22.3295  -54.9651 H         1 UNK         0.3000 
    231 H231       -4.0400  -22.3093  -57.7054 H         1 UNK         0.0600 
    232 H232       -4.3500  -24.6706  -55.7831 H         1 UNK         0.0600 
    233 H233       -4.2642  -24.7653  -57.5364 H         1 UNK         0.0600 
    234 H234       -5.6386  -23.9812  -56.7716 H         1 UNK         0.0600 
    235 H235       -2.3081  -22.9601  -54.6524 H         1 UNK         0.3000 
    236 H236        0.1478  -23.8285  -56.0067 H         1 UNK         0.0600 
    237 H237       -0.4950  -24.7291  -53.7710 H         1 UNK         0.0600 
    238 H238        1.0582  -23.9089  -53.7161 H         1 UNK         0.0600 
    239 H239       -0.3717  -23.1169  -53.0738 H         1 UNK         0.0600 
    240 H240       -1.3082  -20.8254  -55.1113 H         1 UNK         0.3000 
    241 H241        1.1526  -19.2338  -55.1180 H         1 UNK         0.0600 
    242 H242       -0.8772  -19.0487  -58.7433 H         1 UNK         0.3800 
    243 H243       -1.7488  -19.6171  -57.3363 H         1 UNK         0.3800 
    244 H244       -1.7493  -18.2828  -55.0893 H         1 UNK         0.0800 
    245 H245       -0.8435  -18.6877  -53.6670 H         1 UNK         0.0800 
    246 H246        1.0080  -15.4632  -52.8352 H         1 UNK         0.0800 
    247 H247        1.5515  -17.1180  -52.9782 H         1 UNK         0.0800 
@<TRIPOS>BOND
     1    1    2 1    
     2    1  127 1    
     3    1  128 1    
     4    1  129 1    
     5    2    3 2    
     6    2    4 am   BACKBONE|DICT|INTERRES
     7    4    5 1    
     8    4  130 1    
     9    5    6 1    
    10    5   65 1    
    11    5  131 1    
    12    6    7 1    
    13    6  132 1    
    14    6  133 1    
    15    7    8 1    
    16    8    9 1    
    17    8  134 1    
    18    8  135 1    
    19    9   10 ar   
    20    9   14 ar   
    21   10   11 ar   
    22   10  136 1    
    23   11   12 ar   
    24   11  126 1    
    25   12   13 ar   
    26   12  137 1    
    27   13   14 ar   
    28   13   15 1    
    29   14  138 1    
    30   15   16 1    
    31   15  139 1    
    32   15  140 1    
    33   16   17 1    
    34   17   18 1    
    35   17  141 1    
    36   17  142 1    
    37   18   19 1    
    38   18   67 1    
    39   18  143 1    
    40   19   20 am   BACKBONE|DICT|INTERRES
    41   19  144 1    
    42   20   21 2    
    43   20   22 1    
    44   22   23 1    
    45   22   24 1    
    46   22  145 1    
    47   23  146 1    
    48   23  147 1    
    49   23  148 1    
    50   24   25 am   BACKBONE|DICT|INTERRES
    51   24  149 1    
    52   25   26 2    
    53   25   27 1    
    54   27   28 1    
    55   27   29 1    
    56   27  150 1    
    57   28  151 1    
    58   28  152 1    
    59   28  153 1    
    60   29   30 am   BACKBONE|DICT|INTERRES
    61   29  154 1    
    62   30   31 2    
    63   30   32 1    
    64   32   33 1    
    65   32   34 1    
    66   32  155 1    
    67   33  156 1    
    68   33  157 1    
    69   33  158 1    
    70   34   35 am   BACKBONE|DICT|INTERRES
    71   34  159 1    
    72   35   36 2    
    73   35   37 1    
    74   37   38 1    
    75   37   39 1    
    76   37  160 1    
    77   38  161 1    
    78   38  162 1    
    79   38  163 1    
    80   39   40 am   BACKBONE|DICT|INTERRES
    81   39  164 1    
    82   40   41 2    
    83   40   42 1    
    84   42   43 1    
    85   42   44 1    
    86   42  165 1    
    87   43  166 1    
    88   43  167 1    
    89   43  168 1    
    90   44   45 am   BACKBONE|DICT|INTERRES
    91   44  169 1    
    92   45   46 2    
    93   45   47 1    
    94   47   48 1    
    95   47   49 1    
    96   47  170 1    
    97   48  171 1    
    98   48  172 1    
    99   48  173 1    
   100   49   50 am   BACKBONE|DICT|INTERRES
   101   49  174 1    
   102   50   51 2    
   103   50   52 1    
   104   52   53 1    
   105   52   54 1    
   106   52  175 1    
   107   53  176 1    
   108   53  177 1    
   109   53  178 1    
   110   54   55 am   BACKBONE|DICT|INTERRES
   111   54  179 1    
   112   55   56 2    
   113   55   57 1    
   114   57   58 1    
   115   57   59 1    
   116   57  180 1    
   117   58  181 1    
   118   58  182 1    
   119   58  183 1    
   120   59   60 am   BACKBONE|DICT|INTERRES
   121   59  184 1    
   122   60   61 2    
   123   60   62 1    
   124   62   63 1    
   125   62   64 1    
   126   62  185 1    
   127   63  186 1    
   128   63  187 1    
   129   63  188 1    
   130   64   65 am   BACKBONE|DICT|INTERRES
   131   64  189 1    
   132   65   66 2    
   133   67   68 2    
   134   67   69 am   BACKBONE|DICT|INTERRES
   135   69   70 1    
   136   69  190 1    
   137   70   71 1    
   138   70   72 1    
   139   70  191 1    
   140   71  192 1    
   141   71  193 1    
   142   71  194 1    
   143   72   73 2    
   144   72   74 am   BACKBONE|DICT|INTERRES
   145   74   75 1    
   146   74  195 1    
   147   75   76 1    
   148   75   77 1    
   149   75  196 1    
   150   76  197 1    
   151   76  198 1    
   152   76  199 1    
   153   77   78 2    
   154   77   79 am   BACKBONE|DICT|INTERRES
   155   79   80 1    
   156   79  200 1    
   157   80   81 1    
   158   80   82 1    
   159   80  201 1    
   160   81  202 1    
   161   81  203 1    
   162   81  204 1    
   163   82   83 2    
   164   82   84 am   BACKBONE|DICT|INTERRES
   165   84   85 1    
   166   84  205 1    
   167   85   86 1    
   168   85   87 1    
   169   85  206 1    
   170   86  207 1    
   171   86  208 1    
   172   86  209 1    
   173   87   88 2    
   174   87   89 am   BACKBONE|DICT|INTERRES
   175   89   90 1    
   176   89  210 1    
   177   90   91 1    
   178   90   92 1    
   179   90  211 1    
   180   91  212 1    
   181   91  213 1    
   182   91  214 1    
   183   92   93 2    
   184   92   94 am   BACKBONE|DICT|INTERRES
   185   94   95 1    
   186   94  215 1    
   187   95   96 1    
   188   95   97 1    
   189   95  216 1    
   190   96  217 1    
   191   96  218 1    
   192   96  219 1    
   193   97   98 2    
   194   97   99 am   BACKBONE|DICT|INTERRES
   195   99  100 1    
   196   99  220 1    
   197  100  101 1    
   198  100  102 1    
   199  100  221 1    
   200  101  222 1    
   201  101  223 1    
   202  101  224 1    
   203  102  103 2    
   204  102  104 am   BACKBONE|DICT|INTERRES
   205  104  105 1    
   206  104  225 1    
   207  105  106 1    
   208  105  107 1    
   209  105  226 1    
   210  106  227 1    
   211  106  228 1    
   212  106  229 1    
   213  107  108 2    
   214  107  109 am   BACKBONE|DICT|INTERRES
   215  109  110 1    
   216  109  230 1    
   217  110  111 1    
   218  110  112 1    
   219  110  231 1    
   220  111  232 1    
   221  111  233 1    
   222  111  234 1    
   223  112  113 2    
   224  112  114 am   BACKBONE|DICT|INTERRES
   225  114  115 1    
   226  114  235 1    
   227  115  116 1    
   228  115  117 1    
   229  115  236 1    
   230  116  237 1    
   231  116  238 1    
   232  116  239 1    
   233  117  118 2    
   234  117  119 am   BACKBONE|DICT|INTERRES
   235  119  120 1    
   236  119  240 1    
   237  120  121 1    
   238  120  124 1    
   239  120  241 1    
   240  121  122 am   BACKBONE|DICT|INTERRES
   241  121  123 2    
   242  122  242 1    
   243  122  243 1    
   244  124  125 1    
   245  124  244 1    
   246  124  245 1    
   247  125  126 1    
   248  126  246 1    
   249  126  247 1    
@<TRIPOS>SUBSTRUCTURE
     1 UNK         1 GROUP             0       ****    0 ROOT    
