@<TRIPOS>MOLECULE
3R540
247   249    1
SMALL
USER_CHARGES


@<TRIPOS>ATOM
      1 CA         -0.8243   -8.9621  -45.3560 C.3       0 UNK        -0.1800 
      2 C          -1.3706   -9.5112  -46.6666 C.2       0 UNK         0.5000 
      3 O          -1.6312   -8.7405  -47.5900 O.2       0 UNK        -0.5000 
      4 N          -1.5504  -10.8370  -46.7419 N.am      1 UNK        -0.5000 
      5 CA         -2.0939  -11.5674  -47.8939 C.3       1 UNK         0.1400 
      6 C6         -2.2896  -13.0788  -47.6073 C.3       23 UNK        -0.0398 
      7 S7         -3.0644  -13.4681  -46.0005 S.3       23 UNK        -0.2404 
      8 C8         -2.4042  -15.1412  -45.6908 C.3       23 UNK        -0.0205 
      9 C9         -3.1348  -16.1973  -46.5094 C.ar      23 UNK        -0.0193 
     10 C10        -2.8660  -16.3507  -47.8724 C.ar      23 UNK        -0.1150 
     11 C11        -3.5707  -17.2792  -48.6427 C.ar      23 UNK        -0.0193 
     12 C12        -4.5277  -18.0887  -48.0253 C.ar      23 UNK        -0.1150 
     13 C13        -4.7738  -17.9820  -46.6532 C.ar      23 UNK        -0.0193 
     14 C14        -4.0839  -17.0248  -45.9035 C.ar      23 UNK        -0.1150 
     15 C15        -5.7732  -18.9097  -45.9750 C.3       23 UNK        -0.0205 
     16 S16        -5.3530  -20.6725  -46.1816 S.3       23 UNK        -0.2404 
     17 C17        -3.6476  -20.7321  -45.5349 C.3       23 UNK        -0.0398 
     18 CA         -3.0053  -22.1248  -45.7410 C.3       11 UNK         0.1400 
     19 N          -1.5537  -22.0557  -45.9329 N.am      11 UNK        -0.5000 
     20 C          -0.8097  -23.0262  -46.4791 C.2       10 UNK         0.5000 
     21 O          -1.2913  -24.0532  -46.9517 O.2       10 UNK        -0.5000 
     22 CA          0.7199  -22.8429  -46.4965 C.3       10 UNK         0.1400 
     23 CB          1.1927  -22.2583  -47.8338 C.3       10 UNK        -0.1800 
     24 N           1.2104  -22.0164  -45.3952 N.am      10 UNK        -0.5000 
     25 C           1.1455  -22.3711  -44.1049 C.2       9 UNK         0.5000 
     26 O           0.7310  -23.4655  -43.7227 O.2       9 UNK        -0.5000 
     27 CA          1.5462  -21.3030  -43.0710 C.3       9 UNK         0.1400 
     28 CB          3.0720  -21.2448  -42.9087 C.3       9 UNK        -0.1800 
     29 N           1.0330  -19.9731  -43.4102 N.am      9 UNK        -0.5000 
     30 C          -0.2685  -19.6568  -43.4871 C.2       8 UNK         0.5000 
     31 O          -1.1781  -20.4468  -43.2308 O.2       8 UNK        -0.5000 
     32 CA         -0.6128  -18.2430  -43.9931 C.3       8 UNK         0.1400 
     33 CB         -0.4404  -17.2026  -42.8765 C.3       8 UNK        -0.1800 
     34 N           0.1909  -17.8547  -45.1524 N.am      8 UNK        -0.5000 
     35 C           0.1552  -18.4672  -46.3443 C.2       7 UNK         0.5000 
     36 O          -0.6058  -19.3935  -46.6108 O.2       7 UNK        -0.5000 
     37 CA          1.1877  -18.0175  -47.3919 C.3       7 UNK         0.1400 
     38 CB          0.7203  -16.7664  -48.1501 C.3       7 UNK        -0.1800 
     39 N           2.4961  -17.7724  -46.7884 N.am      7 UNK        -0.5000 
     40 C           3.3069  -18.7366  -46.3308 C.2       6 UNK         0.5000 
     41 O           3.0445  -19.9369  -46.3908 O.2       6 UNK        -0.5000 
     42 CA          4.6135  -18.2779  -45.6591 C.3       6 UNK         0.1400 
     43 CB          5.7197  -18.0799  -46.7057 C.3       6 UNK        -0.1800 
     44 N           4.4443  -17.0473  -44.8837 N.am      6 UNK        -0.5000 
     45 C           3.7151  -16.9660  -43.7621 C.2       5 UNK         0.5000 
     46 O           3.1198  -17.9203  -43.2623 O.2       5 UNK        -0.5000 
     47 CA          3.5915  -15.5730  -43.1209 C.3       5 UNK         0.1400 
     48 CB          4.8352  -15.2508  -42.2792 C.3       5 UNK        -0.1800 
     49 N           3.3641  -14.4949  -44.0889 N.am      5 UNK        -0.5000 
     50 C           2.3058  -14.4135  -44.9087 C.2       4 UNK         0.5000 
     51 O           1.4618  -15.3010  -45.0204 O.2       4 UNK        -0.5000 
     52 CA          2.1520  -13.1427  -45.7606 C.3       4 UNK         0.1400 
     53 CB          1.0753  -12.2428  -45.1431 C.3       4 UNK        -0.1800 
     54 N           3.3926  -12.3677  -45.8577 N.am      4 UNK        -0.5000 
     55 C           4.3266  -12.3586  -46.8238 C.2       3 UNK         0.5000 
     56 O           5.3717  -11.7296  -46.6691 O.2       3 UNK        -0.5000 
     57 CA          4.1204  -13.1045  -48.1652 C.3       3 UNK         0.1400 
     58 CB          4.2776  -14.6264  -48.0100 C.3       3 UNK        -0.1800 
     59 N           2.8749  -12.7955  -48.8729 N.am      3 UNK        -0.5000 
     60 C           2.4908  -11.5853  -49.3038 C.2       2 UNK         0.5000 
     61 O           3.1405  -10.5525  -49.1442 O.2       2 UNK        -0.5000 
     62 CA          1.1279  -11.5252  -50.0079 C.3       2 UNK         0.1400 
     63 CB          0.9525  -12.6674  -51.0360 C.3       2 UNK        -0.1800 
     64 N           0.0953  -11.5693  -48.9777 N.am      2 UNK        -0.5000 
     65 C          -1.2228  -11.4127  -49.1589 C.2       1 UNK         0.5000 
     66 O          -1.7533  -11.1766  -50.2444 O.2       1 UNK        -0.5000 
     67 C          -3.3689  -23.0970  -44.6053 C.2       11 UNK         0.5000 
     68 O          -4.3014  -23.8845  -44.7596 O.2       11 UNK        -0.5000 
     69 N          -2.5846  -23.0845  -43.5172 N.am      12 UNK        -0.5000 
     70 CA         -2.6807  -24.0504  -42.4180 C.3       12 UNK         0.1400 
     71 CB         -1.7757  -23.6047  -41.2598 C.3       12 UNK        -0.1800 
     72 C          -2.3507  -25.4913  -42.8624 C.2       12 UNK         0.5000 
     73 O          -2.9549  -26.4380  -42.3584 O.2       12 UNK        -0.5000 
     74 N          -1.4407  -25.6239  -43.8376 N.am      13 UNK        -0.5000 
     75 CA         -1.1100  -26.8739  -44.5276 C.3       13 UNK         0.1400 
     76 CB          0.3030  -26.7461  -45.1195 C.3       13 UNK        -0.1800 
     77 C          -2.1260  -27.2634  -45.6273 C.2       13 UNK         0.5000 
     78 O          -1.9671  -28.3214  -46.2360 O.2       13 UNK        -0.5000 
     79 N          -3.1267  -26.4051  -45.8796 N.am      14 UNK        -0.5000 
     80 CA         -4.2079  -26.5045  -46.8693 C.3       14 UNK         0.1400 
     81 CB         -5.0394  -27.7880  -46.6762 C.3       14 UNK        -0.1800 
     82 C          -3.7741  -26.3152  -48.3377 C.2       14 UNK         0.5000 
     83 O          -4.6320  -26.3310  -49.2203 O.2       14 UNK        -0.5000 
     84 N          -2.4820  -26.0808  -48.5926 N.am      15 UNK        -0.5000 
     85 CA         -1.9206  -25.8355  -49.9204 C.3       15 UNK         0.1400 
     86 CB         -0.3871  -25.8938  -49.8465 C.3       15 UNK        -0.1800 
     87 C          -2.3965  -24.4974  -50.5102 C.2       15 UNK         0.5000 
     88 O          -2.8477  -24.4639  -51.6549 O.2       15 UNK        -0.5000 
     89 N          -2.3468  -23.4338  -49.6948 N.am      16 UNK        -0.5000 
     90 CA         -2.8239  -22.0974  -50.0703 C.3       16 UNK         0.1400 
     91 CB         -2.0764  -21.0221  -49.2733 C.3       16 UNK        -0.1800 
     92 C          -4.3515  -21.9357  -49.9286 C.2       16 UNK         0.5000 
     93 O          -4.8860  -20.8943  -50.3094 O.2       16 UNK        -0.5000 
     94 N          -5.0294  -22.9591  -49.3914 N.am      17 UNK        -0.5000 
     95 CA         -6.4849  -23.0736  -49.4211 C.3       17 UNK         0.1400 
     96 CB         -6.9697  -23.8722  -48.2005 C.3       17 UNK        -0.1800 
     97 C          -6.9382  -23.7334  -50.7366 C.2       17 UNK         0.5000 
     98 O          -7.9007  -23.2687  -51.3479 O.2       17 UNK        -0.5000 
     99 N          -6.2341  -24.7982  -51.1509 N.am      18 UNK        -0.5000 
    100 CA        -6.5004  -25.5563  -52.3727 C.3       18 UNK         0.1400 
    101 CB        -5.7273  -26.8834  -52.3224 C.3       18 UNK        -0.1800 
    102 C         -6.1624  -24.7827  -53.6602 C.2       18 UNK         0.5000 
    103 O         -6.9462  -24.8266  -54.6098 O.2       18 UNK        -0.5000 
    104 N         -5.0128  -24.0980  -53.6741 N.am      19 UNK        -0.5000 
    105 CA        -4.5310  -23.2873  -54.7908 C.3       19 UNK         0.1400 
    106 CB        -3.1877  -23.8578  -55.2719 C.3       19 UNK        -0.1800 
    107 C         -4.3539  -21.8364  -54.3278 C.2       19 UNK         0.5000 
    108 O         -4.0015  -21.6034  -53.1723 O.2       19 UNK        -0.5000 
    109 N         -4.5560  -20.8774  -55.2388 N.am      20 UNK        -0.5000 
    110 CA        -4.4371  -19.4377  -54.9874 C.3       20 UNK         0.1400 
    111 CB        -5.2548  -18.6822  -56.0505 C.3       20 UNK        -0.1800 
    112 C         -2.9656  -18.9705  -54.9279 C.2       20 UNK         0.5000 
    113 O         -2.5444  -18.1356  -55.7307 O.2       20 UNK        -0.5000 
    114 N         -2.2044  -19.5221  -53.9737 N.am      21 UNK        -0.5000 
    115 CA        -0.7692  -19.2916  -53.7671 C.3       21 UNK         0.1400 
    116 CB        -0.2868  -20.1908  -52.6180 C.3       21 UNK        -0.1800 
    117 C         -0.3925  -17.8210  -53.4910 C.2       21 UNK         0.5000 
    118 O          0.7109  -17.3986  -53.8373 O.2       21 UNK        -0.5000 
    119 N         -1.3238  -17.0747  -52.8889 N.am      22 UNK        -0.5000 
    120 CA        -1.2487  -15.6266  -52.6439 C.3       22 UNK         0.1400 
    121 C         -1.7555  -14.7508  -53.8300 C.2       22 UNK         0.5000 
    122 N         -2.1970  -15.3145  -54.9491 N.am      22 UNK        -0.7600 
    123 O         -1.7264  -13.5266  -53.7455 O.2       22 UNK        -0.5000 
    124 C124       -1.9121  -15.2482  -51.2902 C.3       23 UNK        -0.0398 
    125 S125       -3.6068  -15.9102  -51.0806 S.3       23 UNK        -0.2404 
    126 C126       -3.2856  -17.4350  -50.1310 C.3       23 UNK        -0.0205 
    127 H127        0.1742   -8.5525  -45.5086 H         1 UNK         0.0600 
    128 H128       -0.7639   -9.7321  -44.5865 H         1 UNK         0.0600 
    129 H129       -1.4683   -8.1647  -44.9852 H         1 UNK         0.0600 
    130 H130       -1.3784  -11.4015  -45.9229 H         1 UNK         0.3000 
    131 H131       -3.0734  -11.1357  -48.1105 H         1 UNK         0.0600 
    132 H132       -2.9062  -13.5191  -48.3931 H         1 UNK         0.0800 
    133 H133       -1.3293  -13.5966  -47.6422 H         1 UNK         0.0800 
    134 H134       -2.5108  -15.3568  -44.6271 H         1 UNK         0.0800 
    135 H135       -1.3333  -15.1769  -45.8955 H         1 UNK         0.0800 
    136 H136       -2.1201  -15.7310  -48.3414 H         1 UNK         0.1150 
    137 H137       -5.0662  -18.8251  -48.6054 H         1 UNK         0.1150 
    138 H138       -4.2832  -16.9250  -44.8459 H         1 UNK         0.1150 
    139 H139       -5.8455  -18.6903  -44.9087 H         1 UNK         0.0800 
    140 H140       -6.7638  -18.7309  -46.3947 H         1 UNK         0.0800 
    141 H141       -3.6345  -20.4203  -44.4889 H         1 UNK         0.0800 
    142 H142       -3.0712  -19.9826  -46.0760 H         1 UNK         0.0800 
    143 H143       -3.4146  -22.5498  -46.6606 H         1 UNK         0.0600 
    144 H144       -1.0969  -21.1951  -45.6541 H         1 UNK         0.3000 
    145 H145        1.1650  -23.8338  -46.3936 H         1 UNK         0.0600 
    146 H146        0.8685  -21.2261  -47.9566 H         1 UNK         0.0600 
    147 H147        2.2804  -22.2724  -47.9034 H         1 UNK         0.0600 
    148 H148        0.8058  -22.8313  -48.6771 H         1 UNK         0.0600 
    149 H149        1.6199  -21.1215  -45.6443 H         1 UNK         0.3000 
    150 H150        1.1128  -21.5925  -42.1115 H         1 UNK         0.0600 
    151 H151        3.4734  -22.2215  -42.6356 H         1 UNK         0.0600 
    152 H152        3.3578  -20.5443  -42.1239 H         1 UNK         0.0600 
    153 H153        3.5640  -20.9327  -43.8302 H         1 UNK         0.0600 
    154 H154        1.7246  -19.2499  -43.5865 H         1 UNK         0.3000 
    155 H155       -1.6607  -18.2435  -44.3006 H         1 UNK         0.0600 
    156 H156       -0.7111  -16.2043  -43.2193 H         1 UNK         0.0600 
    157 H157       -1.0761  -17.4389  -42.0225 H         1 UNK         0.0600 
    158 H158        0.5886  -17.1608  -42.5191 H         1 UNK         0.0600 
    159 H159        0.8142  -17.0612  -45.0297 H         1 UNK         0.3000 
    160 H160        1.2974  -18.8236  -48.1202 H         1 UNK         0.0600 
    161 H161       -0.1854  -16.9865  -48.7139 H         1 UNK         0.0600 
    162 H162        1.4707  -16.4350  -48.8678 H         1 UNK         0.0600 
    163 H163        0.5035  -15.9355  -47.4788 H         1 UNK         0.0600 
    164 H164        2.7547  -16.8113  -46.6316 H         1 UNK         0.3000 
    165 H165        4.9311  -19.0681  -44.9753 H         1 UNK         0.0600 
    166 H166        6.6605  -17.7905  -46.2372 H         1 UNK         0.0600 
    167 H167        5.9027  -19.0041  -47.2554 H         1 UNK         0.0600 
    168 H168        5.4565  -17.3142  -47.4354 H         1 UNK         0.0600 
    169 H169        4.9091  -16.2184  -45.2221 H         1 UNK         0.3000 
    170 H170        2.7286  -15.5996  -42.4520 H         1 UNK         0.0600 
    171 H171        5.0202  -16.0320  -41.5405 H         1 UNK         0.0600 
    172 H172        5.7301  -15.1640  -42.8966 H         1 UNK         0.0600 
    173 H173        4.7110  -14.3146  -41.7346 H         1 UNK         0.0600 
    174 H174        4.0252  -13.7327  -44.0772 H         1 UNK         0.3000 
    175 H175        1.7913  -13.4602  -46.7351 H         1 UNK         0.0600 
    176 H176        0.1067  -12.7444  -45.1262 H         1 UNK         0.0600 
    177 H177        1.3189  -11.9658  -44.1164 H         1 UNK         0.0600 
    178 H178        0.9694  -11.3225  -45.7151 H         1 UNK         0.0600 
    179 H179        3.5843  -11.7957  -45.0485 H         1 UNK         0.3000 
    180 H180        4.9298  -12.7742  -48.8199 H         1 UNK         0.0600 
    181 H181        3.4184  -15.0838  -47.5243 H         1 UNK         0.0600 
    182 H182        5.1626  -14.8690  -47.4206 H         1 UNK         0.0600 
    183 H183        4.3976  -15.1061  -48.9816 H         1 UNK         0.0600 
    184 H184        2.2767  -13.5800  -49.0821 H         1 UNK         0.3000 
    185 H185        1.0624  -10.5682  -50.5294 H         1 UNK         0.0600 
    186 H186        0.0845  -12.4966  -51.6726 H         1 UNK         0.0600 
    187 H187        1.8174  -12.7368  -51.6970 H         1 UNK         0.0600 
    188 H188        0.8219  -13.6377  -50.5565 H         1 UNK         0.0600 
    189 H189        0.4361  -11.6834  -48.0345 H         1 UNK         0.3000 
    190 H190       -1.8600  -22.3771  -43.4480 H         1 UNK         0.3000 
    191 H191       -3.7128  -24.0445  -42.0614 H         1 UNK         0.0600 
    192 H192       -0.7236  -23.6038  -41.5430 H         1 UNK         0.0600 
    193 H193       -1.8829  -24.2725  -40.4042 H         1 UNK         0.0600 
    194 H194       -2.0320  -22.6000  -40.9232 H         1 UNK         0.0600 
    195 H195       -0.9394  -24.7955  -44.1358 H         1 UNK         0.3000 
    196 H196       -1.0979  -27.6832  -43.7948 H         1 UNK         0.0600 
    197 H197        0.3378  -26.0079  -45.9198 H         1 UNK         0.0600 
    198 H198        0.6391  -27.6955  -45.5381 H         1 UNK         0.0600 
    199 H199        1.0272  -26.4525  -44.3592 H         1 UNK         0.0600 
    200 H200       -3.1590  -25.5586  -45.3246 H         1 UNK         0.3000 
    201 H201       -4.8688  -25.6645  -46.6553 H         1 UNK         0.0600 
    202 H202       -5.3651  -27.8952  -45.6416 H         1 UNK         0.0600 
    203 H203       -4.4791  -28.6825  -46.9487 H         1 UNK         0.0600 
    204 H204       -5.9360  -27.7677  -47.2969 H         1 UNK         0.0600 
    205 H205       -1.8577  -25.9615  -47.8053 H         1 UNK         0.3000 
    206 H206       -2.2599  -26.6327  -50.5853 H         1 UNK         0.0600 
    207 H207       -0.0481  -26.8734  -49.5094 H         1 UNK         0.0600 
    208 H208        0.0583  -25.7145  -50.8259 H         1 UNK         0.0600 
    209 H209        0.0154  -25.1484  -49.1603 H         1 UNK         0.0600 
    210 H210       -1.9925  -23.5621  -48.7524 H         1 UNK         0.3000 
    211 H211       -2.5749  -21.9352  -51.1192 H         1 UNK         0.0600 
    212 H212       -2.3618  -21.0172  -48.2258 H         1 UNK         0.0600 
    213 H213       -2.3041  -20.0319  -49.6618 H         1 UNK         0.0600 
    214 H214       -0.9984  -21.1506  -49.3427 H         1 UNK         0.0600 
    215 H215       -4.5110  -23.7791  -49.1177 H         1 UNK         0.3000 
    216 H216       -6.9315  -22.0785  -49.3638 H         1 UNK         0.0600 
    217 H217       -8.0590  -23.8730  -48.1502 H         1 UNK         0.0600 
    218 H218       -6.6017  -23.4369  -47.2710 H         1 UNK         0.0600 
    219 H219       -6.6480  -24.9123  -48.2351 H         1 UNK         0.0600 
    220 H220       -5.4980  -25.1652  -50.5571 H         1 UNK         0.3000 
    221 H221       -7.5669  -25.7899  -52.3970 H         1 UNK         0.0600 
    222 H222       -4.6514  -26.7194  -52.2481 H         1 UNK         0.0600 
    223 H223       -6.0326  -27.4844  -51.4656 H         1 UNK         0.0600 
    224 H224       -5.9096  -27.4779  -53.2185 H         1 UNK         0.0600 
    225 H225       -4.4229  -24.0905  -52.8463 H         1 UNK         0.3000 
    226 H226       -5.2390  -23.3030  -55.6218 H         1 UNK         0.0600 
    227 H227       -3.2976  -24.8876  -55.6120 H         1 UNK         0.0600 
    228 H228       -2.7913  -23.2790  -56.1070 H         1 UNK         0.0600 
    229 H229       -2.4392  -23.8464  -54.4781 H         1 UNK         0.0600 
    230 H230       -4.7976  -21.1436  -56.1825 H         1 UNK         0.3000 
    231 H231       -4.8814  -19.2154  -54.0145 H         1 UNK         0.0600 
    232 H232       -5.2233  -17.6057  -55.8767 H         1 UNK         0.0600 
    233 H233       -6.3029  -18.9813  -56.0276 H         1 UNK         0.0600 
    234 H234       -4.8754  -18.8646  -57.0567 H         1 UNK         0.0600 
    235 H235       -2.6452  -20.2287  -53.3913 H         1 UNK         0.3000 
    236 H236       -0.2548  -19.5949  -54.6810 H         1 UNK         0.0600 
    237 H237       -0.4958  -21.2415  -52.8208 H         1 UNK         0.0600 
    238 H238       -0.7691  -19.9277  -51.6766 H         1 UNK         0.0600 
    239 H239        0.7900  -20.0956  -52.4721 H         1 UNK         0.0600 
    240 H240       -2.2104  -17.5038  -52.6708 H         1 UNK         0.3000 
    241 H241       -0.1940  -15.3620  -52.5481 H         1 UNK         0.0600 
    242 H242       -2.5092  -14.7224  -55.7019 H         1 UNK         0.3800 
    243 H243       -2.2105  -16.3214  -55.0742 H         1 UNK         0.3800 
    244 H244       -1.9466  -14.1649  -51.1605 H         1 UNK         0.0800 
    245 H245       -1.2829  -15.6085  -50.4774 H         1 UNK         0.0800 
    246 H246       -2.2525  -17.7568  -50.2641 H         1 UNK         0.0800 
    247 H247       -3.9050  -18.2289  -50.5518 H         1 UNK         0.0800 
@<TRIPOS>BOND
     1    1    2 1    
     2    1  127 1    
     3    1  128 1    
     4    1  129 1    
     5    2    3 2    
     6    2    4 am   BACKBONE|DICT|INTERRES
     7    4    5 1    
     8    4  130 1    
     9    5    6 1    
    10    5   65 1    
    11    5  131 1    
    12    6    7 1    
    13    6  132 1    
    14    6  133 1    
    15    7    8 1    
    16    8    9 1    
    17    8  134 1    
    18    8  135 1    
    19    9   10 ar   
    20    9   14 ar   
    21   10   11 ar   
    22   10  136 1    
    23   11   12 ar   
    24   11  126 1    
    25   12   13 ar   
    26   12  137 1    
    27   13   14 ar   
    28   13   15 1    
    29   14  138 1    
    30   15   16 1    
    31   15  139 1    
    32   15  140 1    
    33   16   17 1    
    34   17   18 1    
    35   17  141 1    
    36   17  142 1    
    37   18   19 1    
    38   18   67 1    
    39   18  143 1    
    40   19   20 am   BACKBONE|DICT|INTERRES
    41   19  144 1    
    42   20   21 2    
    43   20   22 1    
    44   22   23 1    
    45   22   24 1    
    46   22  145 1    
    47   23  146 1    
    48   23  147 1    
    49   23  148 1    
    50   24   25 am   BACKBONE|DICT|INTERRES
    51   24  149 1    
    52   25   26 2    
    53   25   27 1    
    54   27   28 1    
    55   27   29 1    
    56   27  150 1    
    57   28  151 1    
    58   28  152 1    
    59   28  153 1    
    60   29   30 am   BACKBONE|DICT|INTERRES
    61   29  154 1    
    62   30   31 2    
    63   30   32 1    
    64   32   33 1    
    65   32   34 1    
    66   32  155 1    
    67   33  156 1    
    68   33  157 1    
    69   33  158 1    
    70   34   35 am   BACKBONE|DICT|INTERRES
    71   34  159 1    
    72   35   36 2    
    73   35   37 1    
    74   37   38 1    
    75   37   39 1    
    76   37  160 1    
    77   38  161 1    
    78   38  162 1    
    79   38  163 1    
    80   39   40 am   BACKBONE|DICT|INTERRES
    81   39  164 1    
    82   40   41 2    
    83   40   42 1    
    84   42   43 1    
    85   42   44 1    
    86   42  165 1    
    87   43  166 1    
    88   43  167 1    
    89   43  168 1    
    90   44   45 am   BACKBONE|DICT|INTERRES
    91   44  169 1    
    92   45   46 2    
    93   45   47 1    
    94   47   48 1    
    95   47   49 1    
    96   47  170 1    
    97   48  171 1    
    98   48  172 1    
    99   48  173 1    
   100   49   50 am   BACKBONE|DICT|INTERRES
   101   49  174 1    
   102   50   51 2    
   103   50   52 1    
   104   52   53 1    
   105   52   54 1    
   106   52  175 1    
   107   53  176 1    
   108   53  177 1    
   109   53  178 1    
   110   54   55 am   BACKBONE|DICT|INTERRES
   111   54  179 1    
   112   55   56 2    
   113   55   57 1    
   114   57   58 1    
   115   57   59 1    
   116   57  180 1    
   117   58  181 1    
   118   58  182 1    
   119   58  183 1    
   120   59   60 am   BACKBONE|DICT|INTERRES
   121   59  184 1    
   122   60   61 2    
   123   60   62 1    
   124   62   63 1    
   125   62   64 1    
   126   62  185 1    
   127   63  186 1    
   128   63  187 1    
   129   63  188 1    
   130   64   65 am   BACKBONE|DICT|INTERRES
   131   64  189 1    
   132   65   66 2    
   133   67   68 2    
   134   67   69 am   BACKBONE|DICT|INTERRES
   135   69   70 1    
   136   69  190 1    
   137   70   71 1    
   138   70   72 1    
   139   70  191 1    
   140   71  192 1    
   141   71  193 1    
   142   71  194 1    
   143   72   73 2    
   144   72   74 am   BACKBONE|DICT|INTERRES
   145   74   75 1    
   146   74  195 1    
   147   75   76 1    
   148   75   77 1    
   149   75  196 1    
   150   76  197 1    
   151   76  198 1    
   152   76  199 1    
   153   77   78 2    
   154   77   79 am   BACKBONE|DICT|INTERRES
   155   79   80 1    
   156   79  200 1    
   157   80   81 1    
   158   80   82 1    
   159   80  201 1    
   160   81  202 1    
   161   81  203 1    
   162   81  204 1    
   163   82   83 2    
   164   82   84 am   BACKBONE|DICT|INTERRES
   165   84   85 1    
   166   84  205 1    
   167   85   86 1    
   168   85   87 1    
   169   85  206 1    
   170   86  207 1    
   171   86  208 1    
   172   86  209 1    
   173   87   88 2    
   174   87   89 am   BACKBONE|DICT|INTERRES
   175   89   90 1    
   176   89  210 1    
   177   90   91 1    
   178   90   92 1    
   179   90  211 1    
   180   91  212 1    
   181   91  213 1    
   182   91  214 1    
   183   92   93 2    
   184   92   94 am   BACKBONE|DICT|INTERRES
   185   94   95 1    
   186   94  215 1    
   187   95   96 1    
   188   95   97 1    
   189   95  216 1    
   190   96  217 1    
   191   96  218 1    
   192   96  219 1    
   193   97   98 2    
   194   97   99 am   BACKBONE|DICT|INTERRES
   195   99  100 1    
   196   99  220 1    
   197  100  101 1    
   198  100  102 1    
   199  100  221 1    
   200  101  222 1    
   201  101  223 1    
   202  101  224 1    
   203  102  103 2    
   204  102  104 am   BACKBONE|DICT|INTERRES
   205  104  105 1    
   206  104  225 1    
   207  105  106 1    
   208  105  107 1    
   209  105  226 1    
   210  106  227 1    
   211  106  228 1    
   212  106  229 1    
   213  107  108 2    
   214  107  109 am   BACKBONE|DICT|INTERRES
   215  109  110 1    
   216  109  230 1    
   217  110  111 1    
   218  110  112 1    
   219  110  231 1    
   220  111  232 1    
   221  111  233 1    
   222  111  234 1    
   223  112  113 2    
   224  112  114 am   BACKBONE|DICT|INTERRES
   225  114  115 1    
   226  114  235 1    
   227  115  116 1    
   228  115  117 1    
   229  115  236 1    
   230  116  237 1    
   231  116  238 1    
   232  116  239 1    
   233  117  118 2    
   234  117  119 am   BACKBONE|DICT|INTERRES
   235  119  120 1    
   236  119  240 1    
   237  120  121 1    
   238  120  124 1    
   239  120  241 1    
   240  121  122 am   BACKBONE|DICT|INTERRES
   241  121  123 2    
   242  122  242 1    
   243  122  243 1    
   244  124  125 1    
   245  124  244 1    
   246  124  245 1    
   247  125  126 1    
   248  126  246 1    
   249  126  247 1    
@<TRIPOS>SUBSTRUCTURE
     1 UNK         1 GROUP             0       ****    0 ROOT    
