@<TRIPOS>MOLECULE
3R540
247   249    1
SMALL
USER_CHARGES


@<TRIPOS>ATOM
      1 CA          2.9700  -14.5180  -48.8285 C.3       0 UNK        -0.1800 
      2 C           1.7671  -14.5514  -47.8986 C.2       0 UNK         0.5000 
      3 O           1.9043  -14.8639  -46.7172 O.2       0 UNK        -0.5000 
      4 N           0.5868  -14.2106  -48.4284 N.am      1 UNK        -0.5000 
      5 CA         -0.7180  -14.2653  -47.7502 C.3       1 UNK         0.1400 
      6 C6         -1.8682  -14.1639  -48.7885 C.3       23 UNK        -0.0398 
      7 S7         -3.3858  -15.1006  -48.3853 S.3       23 UNK        -0.2404 
      8 C8         -2.8258  -16.8293  -48.1991 C.3       23 UNK        -0.0205 
      9 C9         -1.8906  -17.2950  -49.3061 C.ar      23 UNK        -0.0193 
     10 C10        -2.3768  -17.5645  -50.5881 C.ar      23 UNK        -0.1150 
     11 C11        -1.5137  -17.9629  -51.6163 C.ar      23 UNK        -0.0193 
     12 C12        -0.1469  -18.0988  -51.3338 C.ar      23 UNK        -0.1150 
     13 C13         0.3472  -17.8585  -50.0491 C.ar      23 UNK        -0.0193 
     14 C14        -0.5305  -17.4601  -49.0413 C.ar      23 UNK        -0.1150 
     15 C15         1.8338  -17.9996  -49.7597 C.3       23 UNK        -0.0205 
     16 S16         2.2850  -19.6929  -49.2749 S.3       23 UNK        -0.2404 
     17 C17         1.7695  -19.7371  -47.5233 C.3       23 UNK        -0.0398 
     18 CA          1.0272  -21.0415  -47.1554 C.3       11 UNK         0.1400 
     19 N           1.0805  -21.3072  -45.7179 N.am      11 UNK        -0.5000 
     20 C           0.7558  -22.4784  -45.1536 C.2       10 UNK         0.5000 
     21 O           0.4283  -23.4788  -45.7921 O.2       10 UNK        -0.5000 
     22 CA          0.7420  -22.5187  -43.6157 C.3       10 UNK         0.1400 
     23 CB          2.1611  -22.7050  -43.0587 C.3       10 UNK        -0.1800 
     24 N           0.1404  -21.3156  -43.0395 N.am      10 UNK        -0.5000 
     25 C          -1.1392  -20.9553  -43.2081 C.2       9 UNK         0.5000 
     26 O          -1.9637  -21.6412  -43.8108 O.2       9 UNK        -0.5000 
     27 CA         -1.5588  -19.5834  -42.6525 C.3       9 UNK         0.1400 
     28 CB         -1.8695  -19.6701  -41.1509 C.3       9 UNK        -0.1800 
     29 N          -0.5503  -18.5495  -42.8894 N.am      9 UNK        -0.5000 
     30 C          -0.2370  -18.0510  -44.0943 C.2       8 UNK         0.5000 
     31 O          -0.7683  -18.4068  -45.1445 O.2       8 UNK        -0.5000 
     32 CA          0.8905  -17.0055  -44.1372 C.3       8 UNK         0.1400 
     33 CB          0.3389  -15.6078  -43.8235 C.3       8 UNK        -0.1800 
     34 N           1.9842  -17.3195  -43.2178 N.am      8 UNK        -0.5000 
     35 C           2.7645  -18.4052  -43.3230 C.2       7 UNK         0.5000 
     36 O           2.6608  -19.2397  -44.2236 O.2       7 UNK        -0.5000 
     37 CA          3.7920  -18.6217  -42.1990 C.3       7 UNK         0.1400 
     38 CB          4.9832  -17.6659  -42.3605 C.3       7 UNK        -0.1800 
     39 N           3.2097  -18.4533  -40.8664 N.am      7 UNK        -0.5000 
     40 C           2.2228  -19.1955  -40.3481 C.2       6 UNK         0.5000 
     41 O           1.6946  -20.1296  -40.9487 O.2       6 UNK        -0.5000 
     42 CA          1.6954  -18.8156  -38.9493 C.3       6 UNK         0.1400 
     43 CB          2.5556  -19.4409  -37.8349 C.3       6 UNK        -0.1800 
     44 N           1.5024  -17.3709  -38.7564 N.am      6 UNK        -0.5000 
     45 C           2.4311  -16.4088  -38.6881 C.2       5 UNK         0.5000 
     46 O           3.6470  -16.6177  -38.6999 O.2       5 UNK        -0.5000 
     47 CA          1.9057  -14.9624  -38.6358 C.3       5 UNK         0.1400 
     48 CB          1.8148  -14.4729  -37.1827 C.3       5 UNK        -0.1800 
     49 N           2.7590  -14.0493  -39.3973 N.am      5 UNK        -0.5000 
     50 C           3.0009  -14.1416  -40.7110 C.2       4 UNK         0.5000 
     51 O           2.4690  -14.9696  -41.4587 O.2       4 UNK        -0.5000 
     52 CA          4.0388  -13.1631  -41.2722 C.3       4 UNK         0.1400 
     53 CB          5.4662  -13.6720  -40.9849 C.3       4 UNK        -0.1800 
     54 N           3.8187  -13.0226  -42.7071 N.am      4 UNK        -0.5000 
     55 C           4.3889  -12.1124  -43.5030 C.2       3 UNK         0.5000 
     56 O           5.1794  -11.2522  -43.1124 O.2       3 UNK        -0.5000 
     57 CA          4.0009  -12.1704  -44.9902 C.3       3 UNK         0.1400 
     58 CB          4.6919  -13.3583  -45.6780 C.3       3 UNK        -0.1800 
     59 N           2.5516  -12.2392  -45.2065 N.am      3 UNK        -0.5000 
     60 C           1.7028  -11.2323  -44.9364 C.2       2 UNK         0.5000 
     61 O           2.0651  -10.1567  -44.4571 O.2       2 UNK        -0.5000 
     62 CA          0.2155  -11.4425  -45.2857 C.3       2 UNK         0.1400 
     63 CB         -0.5311  -10.1248  -45.5691 C.3       2 UNK        -0.1800 
     64 N           0.0773  -12.3385  -46.4309 N.am      2 UNK        -0.5000 
     65 C          -0.8746  -13.2672  -46.5772 C.2       1 UNK         0.5000 
     66 O          -1.8290  -13.3810  -45.8077 O.2       1 UNK        -0.5000 
     67 C          -0.4206  -21.0921  -47.6938 C.2       11 UNK         0.5000 
     68 O          -0.6493  -21.7133  -48.7302 O.2       11 UNK        -0.5000 
     69 N          -1.3829  -20.5196  -46.9514 N.am      12 UNK        -0.5000 
     70 CA         -2.8173  -20.5962  -47.2463 C.3       12 UNK         0.1400 
     71 CB         -3.6186  -19.7584  -46.2368 C.3       12 UNK        -0.1800 
     72 C          -3.3479  -22.0402  -47.2545 C.2       12 UNK         0.5000 
     73 O          -4.1156  -22.3961  -48.1481 O.2       12 UNK        -0.5000 
     74 N          -2.9146  -22.8482  -46.2768 N.am      13 UNK        -0.5000 
     75 CA         -3.2407  -24.2692  -46.1679 C.3       13 UNK         0.1400 
     76 CB         -2.7631  -24.8117  -44.8126 C.3       13 UNK        -0.1800 
     77 C          -2.6638  -25.0935  -47.3321 C.2       13 UNK         0.5000 
     78 O          -3.3873  -25.9035  -47.9115 O.2       13 UNK        -0.5000 
     79 N          -1.3966  -24.8376  -47.6901 N.am      14 UNK        -0.5000 
     80 CA         -0.7160  -25.4449  -48.8385 C.3       14 UNK         0.1400 
     81 CB          0.7689  -25.0518  -48.8204 C.3       14 UNK        -0.1800 
     82 C          -1.3655  -25.0727  -50.1866 C.2       14 UNK         0.5000 
     83 O          -1.4769  -25.9251  -51.0681 O.2       14 UNK        -0.5000 
     84 N          -1.8232  -23.8198  -50.2979 N.am      15 UNK        -0.5000 
     85 CA         -2.5752  -23.2801  -51.4301 C.3       15 UNK         0.1400 
     86 CB         -2.5257  -21.7460  -51.3479 C.3       15 UNK        -0.1800 
     87 C          -4.0413  -23.7558  -51.4967 C.2       15 UNK         0.5000 
     88 O          -4.7207  -23.4522  -52.4791 O.2       15 UNK        -0.5000 
     89 N          -4.5214  -24.4342  -50.4426 N.am      16 UNK        -0.5000 
     90 CA         -5.9012  -24.8796  -50.2228 C.3       16 UNK         0.1400 
     91 CB         -6.2649  -26.0184  -51.1969 C.3       16 UNK        -0.1800 
     92 C          -6.9033  -23.7052  -50.2432 C.2       16 UNK         0.5000 
     93 O          -7.9529  -23.7912  -50.8821 O.2       16 UNK        -0.5000 
     94 N          -6.5258  -22.6142  -49.5588 N.am      17 UNK        -0.5000 
     95 CA         -7.2021  -21.3141  -49.5024 C.3       17 UNK         0.1400 
     96 CB         -8.5865  -21.4321  -48.8309 C.3       17 UNK        -0.1800 
     97 C          -7.2418  -20.6055  -50.8740 C.2       17 UNK         0.5000 
     98 O          -8.2249  -19.9354  -51.1935 O.2       17 UNK        -0.5000 
     99 N          -6.1559  -20.7697  -51.6463 N.am      18 UNK        -0.5000 
    100 CA        -5.9400  -20.2788  -53.0106 C.3       18 UNK         0.1400 
    101 CB        -5.8979  -18.7373  -53.0494 C.3       18 UNK        -0.1800 
    102 C         -6.9532  -20.8907  -53.9946 C.2       18 UNK         0.5000 
    103 O         -7.7706  -20.1765  -54.5806 O.2       18 UNK        -0.5000 
    104 N         -6.8896  -22.2204  -54.1399 N.am      19 UNK        -0.5000 
    105 CA        -7.7359  -23.0288  -55.0199 C.3       19 UNK         0.1400 
    106 CB        -7.6302  -24.5009  -54.5871 C.3       19 UNK        -0.1800 
    107 C         -7.3860  -22.8233  -56.5100 C.2       19 UNK         0.5000 
    108 O         -6.7989  -23.7050  -57.1382 O.2       19 UNK        -0.5000 
    109 N         -7.7182  -21.6312  -57.0258 N.am      20 UNK        -0.5000 
    110 CA        -7.4744  -21.0928  -58.3738 C.3       20 UNK         0.1400 
    111 CB        -8.0600  -22.0100  -59.4663 C.3       20 UNK        -0.1800 
    112 C         -6.0028  -20.7237  -58.6648 C.2       20 UNK         0.5000 
    113 O         -5.7323  -20.0816  -59.6806 O.2       20 UNK        -0.5000 
    114 N         -5.0880  -21.0943  -57.7663 N.am      21 UNK        -0.5000 
    115 CA        -3.6577  -20.8216  -57.7769 C.3       21 UNK         0.1400 
    116 CB        -2.9584  -21.6745  -58.8534 C.3       21 UNK        -0.1800 
    117 C         -3.1196  -21.1499  -56.3761 C.2       21 UNK         0.5000 
    118 O         -3.8283  -21.7742  -55.5806 O.2       21 UNK        -0.5000 
    119 N         -1.8779  -20.7394  -56.0984 N.am      22 UNK        -0.5000 
    120 CA        -1.1843  -21.0354  -54.8320 C.3       22 UNK         0.1400 
    121 C         -0.4643  -22.4174  -54.8029 C.2       22 UNK         0.5000 
    122 N         -0.4830  -23.2058  -55.8706 N.am      22 UNK        -0.7600 
    123 O          0.1196  -22.7864  -53.7889 O.2       22 UNK        -0.5000 
    124 C124       -0.2288  -19.8987  -54.3839 C.3       23 UNK        -0.0398 
    125 S125       -0.9619  -18.2219  -54.4177 S.3       23 UNK        -0.2404 
    126 C126       -2.1153  -18.2334  -52.9985 C.3       23 UNK        -0.0205 
    127 H127        2.6888  -14.7923  -49.8456 H         1 UNK         0.0600 
    128 H128        3.7334  -15.2184  -48.4892 H         1 UNK         0.0600 
    129 H129        3.4039  -13.5187  -48.8496 H         1 UNK         0.0600 
    130 H130        0.5567  -13.9360  -49.4001 H         1 UNK         0.3000 
    131 H131       -0.7617  -15.2442  -47.2756 H         1 UNK         0.0600 
    132 H132       -1.5367  -14.5374  -49.7587 H         1 UNK         0.0800 
    133 H133       -2.1396  -13.1219  -48.9666 H         1 UNK         0.0800 
    134 H134       -3.7040  -17.4755  -48.1802 H         1 UNK         0.0800 
    135 H135       -2.3472  -16.9393  -47.2253 H         1 UNK         0.0800 
    136 H136       -3.4326  -17.4459  -50.7872 H         1 UNK         0.1150 
    137 H137        0.5513  -18.3851  -52.1037 H         1 UNK         0.1150 
    138 H138       -0.1513  -17.2643  -48.0497 H         1 UNK         0.1150 
    139 H139        2.4068  -17.7242  -50.6463 H         1 UNK         0.0800 
    140 H140        2.1404  -17.3078  -48.9754 H         1 UNK         0.0800 
    141 H141        1.1782  -18.8629  -47.2553 H         1 UNK         0.0800 
    142 H142        2.6853  -19.6582  -46.9358 H         1 UNK         0.0800 
    143 H143        1.5665  -21.8645  -47.6301 H         1 UNK         0.0600 
    144 H144        1.3804  -20.5431  -45.1207 H         1 UNK         0.3000 
    145 H145        0.1396  -23.3765  -43.3095 H         1 UNK         0.0600 
    146 H146        2.1465  -22.8094  -41.9736 H         1 UNK         0.0600 
    147 H147        2.6263  -23.6031  -43.4666 H         1 UNK         0.0600 
    148 H148        2.8051  -21.8597  -43.3030 H         1 UNK         0.0600 
    149 H149        0.7469  -20.7312  -42.4701 H         1 UNK         0.3000 
    150 H150       -2.4731  -19.2826  -43.1683 H         1 UNK         0.0600 
    151 H151       -2.6612  -20.3958  -40.9608 H         1 UNK         0.0600 
    152 H152       -2.2088  -18.7103  -40.7611 H         1 UNK         0.0600 
    153 H153       -0.9988  -19.9798  -40.5734 H         1 UNK         0.0600 
    154 H154       -0.0317  -18.2245  -42.0881 H         1 UNK         0.3000 
    155 H155        1.2931  -16.9964  -45.1521 H         1 UNK         0.0600 
    156 H156       -0.0021  -15.5293  -42.7906 H         1 UNK         0.0600 
    157 H157       -0.5085  -15.3728  -44.4670 H         1 UNK         0.0600 
    158 H158        1.0949  -14.8401  -43.9872 H         1 UNK         0.0600 
    159 H159        2.1510  -16.6576  -42.4653 H         1 UNK         0.3000 
    160 H160        4.1602  -19.6468  -42.2752 H         1 UNK         0.0600 
    161 H161        5.7424  -17.8479  -41.5997 H         1 UNK         0.0600 
    162 H162        4.6735  -16.6236  -42.2826 H         1 UNK         0.0600 
    163 H163        5.4586  -17.7953  -43.3336 H         1 UNK         0.0600 
    164 H164        3.5790  -17.7034  -40.2892 H         1 UNK         0.3000 
    165 H165        0.6995  -19.2532  -38.8657 H         1 UNK         0.0600 
    166 H166        2.1593  -19.2000  -36.8486 H         1 UNK         0.0600 
    167 H167        2.5695  -20.5280  -37.9231 H         1 UNK         0.0600 
    168 H168        3.5910  -19.1020  -37.8733 H         1 UNK         0.0600 
    169 H169        0.5346  -17.0798  -38.7453 H         1 UNK         0.3000 
    170 H170        0.9081  -14.9321  -39.0790 H         1 UNK         0.0600 
    171 H171        1.1635  -15.1188  -36.5924 H         1 UNK         0.0600 
    172 H172        2.7928  -14.4641  -36.6996 H         1 UNK         0.0600 
    173 H173        1.4044  -13.4643  -37.1300 H         1 UNK         0.0600 
    174 H174        3.2669  -13.3644  -38.8573 H         1 UNK         0.3000 
    175 H175        3.8911  -12.1910  -40.7975 H         1 UNK         0.0600 
    176 H176        5.6747  -14.6023  -41.5129 H         1 UNK         0.0600 
    177 H177        6.2202  -12.9443  -41.2837 H         1 UNK         0.0600 
    178 H178        5.6114  -13.8608  -39.9205 H         1 UNK         0.0600 
    179 H179        3.1593  -13.6882  -43.0899 H         1 UNK         0.3000 
    180 H180        4.3682  -11.2554  -45.4601 H         1 UNK         0.0600 
    181 H181        4.2950  -14.3144  -45.3344 H         1 UNK         0.0600 
    182 H182        5.7644  -13.3574  -45.4790 H         1 UNK         0.0600 
    183 H183        4.5685  -13.3101  -46.7583 H         1 UNK         0.0600 
    184 H184        2.1912  -13.1111  -45.5784 H         1 UNK         0.3000 
    185 H185       -0.2319  -11.9074  -44.4046 H         1 UNK         0.0600 
    186 H186       -0.4920   -9.4553  -44.7090 H         1 UNK         0.0600 
    187 H187       -0.1000   -9.5966  -46.4202 H         1 UNK         0.0600 
    188 H188       -1.5837  -10.3070  -45.7861 H         1 UNK         0.0600 
    189 H189        0.8238  -12.3083  -47.1111 H         1 UNK         0.3000 
    190 H190       -1.1185  -19.9719  -46.1371 H         1 UNK         0.3000 
    191 H191       -2.9675  -20.1712  -48.2406 H         1 UNK         0.0600 
    192 H192       -3.6171  -20.2056  -45.2435 H         1 UNK         0.0600 
    193 H193       -4.6597  -19.6708  -46.5495 H         1 UNK         0.0600 
    194 H194       -3.2230  -18.7506  -46.1374 H         1 UNK         0.0600 
    195 H195       -2.3384  -22.4532  -45.5391 H         1 UNK         0.3000 
    196 H196       -4.3281  -24.3626  -46.2030 H         1 UNK         0.0600 
    197 H197       -3.0257  -25.8641  -44.6994 H         1 UNK         0.0600 
    198 H198       -3.2254  -24.2698  -43.9874 H         1 UNK         0.0600 
    199 H199       -1.6822  -24.7292  -44.7006 H         1 UNK         0.0600 
    200 H200       -0.8560  -24.1795  -47.1362 H         1 UNK         0.3000 
    201 H201       -0.7816  -26.5292  -48.7275 H         1 UNK         0.0600 
    202 H202        1.2495  -25.3682  -47.8945 H         1 UNK         0.0600 
    203 H203        0.9013  -23.9738  -48.9140 H         1 UNK         0.0600 
    204 H204        1.3071  -25.5214  -49.6447 H         1 UNK         0.0600 
    205 H205       -1.6094  -23.1616  -49.5527 H         1 UNK         0.3000 
    206 H206       -2.0912  -23.5968  -52.3553 H         1 UNK         0.0600 
    207 H207       -3.1125  -21.2916  -52.1419 H         1 UNK         0.0600 
    208 H208       -2.9258  -21.3785  -50.4035 H         1 UNK         0.0600 
    209 H209       -1.5038  -21.3773  -51.4428 H         1 UNK         0.0600 
    210 H210       -3.8869  -24.6123  -49.6743 H         1 UNK         0.3000 
    211 H211       -5.9347  -25.2883  -49.2119 H         1 UNK         0.0600 
    212 H212       -6.2402  -25.6881  -52.2346 H         1 UNK         0.0600 
    213 H213       -7.2659  -26.4023  -50.9971 H         1 UNK         0.0600 
    214 H214       -5.5717  -26.8535  -51.0973 H         1 UNK         0.0600 
    215 H215       -5.6316  -22.6491  -49.0687 H         1 UNK         0.3000 
    216 H216       -6.5835  -20.6854  -48.8602 H         1 UNK         0.0600 
    217 H217       -9.0168  -20.4465  -48.6496 H         1 UNK         0.0600 
    218 H218       -8.5152  -21.9360  -47.8671 H         1 UNK         0.0600 
    219 H219       -9.2932  -21.9864  -49.4489 H         1 UNK         0.0600 
    220 H220       -5.4473  -21.4010  -51.3025 H         1 UNK         0.3000 
    221 H221       -4.9587  -20.6354  -53.3229 H         1 UNK         0.0600 
    222 H222       -6.8640  -18.2936  -52.8079 H         1 UNK         0.0600 
    223 H223       -5.1663  -18.3459  -52.3436 H         1 UNK         0.0600 
    224 H224       -5.6161  -18.3838  -54.0419 H         1 UNK         0.0600 
    225 H225       -6.1681  -22.7225  -53.6285 H         1 UNK         0.3000 
    226 H226       -8.7739  -22.7189  -54.8816 H         1 UNK         0.0600 
    227 H227       -8.2321  -25.1443  -55.2299 H         1 UNK         0.0600 
    228 H228       -6.6009  -24.8596  -54.6287 H         1 UNK         0.0600 
    229 H229       -7.9916  -24.6342  -53.5676 H         1 UNK         0.0600 
    230 H230       -8.0966  -20.9583  -56.3645 H         1 UNK         0.3000 
    231 H231       -8.0268  -20.1528  -58.4112 H         1 UNK         0.0600 
    232 H232       -9.1044  -22.2482  -59.2651 H         1 UNK         0.0600 
    233 H233       -7.5100  -22.9473  -59.5512 H         1 UNK         0.0600 
    234 H234       -8.0206  -21.5247  -60.4422 H         1 UNK         0.0600 
    235 H235       -5.3859  -21.6152  -56.9499 H         1 UNK         0.3000 
    236 H236       -3.4966  -19.7601  -57.9743 H         1 UNK         0.0600 
    237 H237       -1.8832  -21.4935  -58.8651 H         1 UNK         0.0600 
    238 H238       -3.1125  -22.7405  -58.6807 H         1 UNK         0.0600 
    239 H239       -3.3305  -21.4422  -59.8511 H         1 UNK         0.0600 
    240 H240       -1.3501  -20.2261  -56.7895 H         1 UNK         0.3000 
    241 H241       -1.9442  -21.1136  -54.0575 H         1 UNK         0.0600 
    242 H242       -0.9597  -22.9246  -56.7114 H         1 UNK         0.3800 
    243 H243       -0.0138  -24.0972  -55.8342 H         1 UNK         0.3800 
    244 H244        0.1410  -20.1072  -53.3800 H         1 UNK         0.0800 
    245 H245        0.6517  -19.8791  -55.0280 H         1 UNK         0.0800 
    246 H246       -2.8630  -17.4650  -53.2004 H         1 UNK         0.0800 
    247 H247       -2.6588  -19.1758  -52.9755 H         1 UNK         0.0800 
@<TRIPOS>BOND
     1    1    2 1    
     2    1  127 1    
     3    1  128 1    
     4    1  129 1    
     5    2    3 2    
     6    2    4 am   BACKBONE|DICT|INTERRES
     7    4    5 1    
     8    4  130 1    
     9    5    6 1    
    10    5   65 1    
    11    5  131 1    
    12    6    7 1    
    13    6  132 1    
    14    6  133 1    
    15    7    8 1    
    16    8    9 1    
    17    8  134 1    
    18    8  135 1    
    19    9   10 ar   
    20    9   14 ar   
    21   10   11 ar   
    22   10  136 1    
    23   11   12 ar   
    24   11  126 1    
    25   12   13 ar   
    26   12  137 1    
    27   13   14 ar   
    28   13   15 1    
    29   14  138 1    
    30   15   16 1    
    31   15  139 1    
    32   15  140 1    
    33   16   17 1    
    34   17   18 1    
    35   17  141 1    
    36   17  142 1    
    37   18   19 1    
    38   18   67 1    
    39   18  143 1    
    40   19   20 am   BACKBONE|DICT|INTERRES
    41   19  144 1    
    42   20   21 2    
    43   20   22 1    
    44   22   23 1    
    45   22   24 1    
    46   22  145 1    
    47   23  146 1    
    48   23  147 1    
    49   23  148 1    
    50   24   25 am   BACKBONE|DICT|INTERRES
    51   24  149 1    
    52   25   26 2    
    53   25   27 1    
    54   27   28 1    
    55   27   29 1    
    56   27  150 1    
    57   28  151 1    
    58   28  152 1    
    59   28  153 1    
    60   29   30 am   BACKBONE|DICT|INTERRES
    61   29  154 1    
    62   30   31 2    
    63   30   32 1    
    64   32   33 1    
    65   32   34 1    
    66   32  155 1    
    67   33  156 1    
    68   33  157 1    
    69   33  158 1    
    70   34   35 am   BACKBONE|DICT|INTERRES
    71   34  159 1    
    72   35   36 2    
    73   35   37 1    
    74   37   38 1    
    75   37   39 1    
    76   37  160 1    
    77   38  161 1    
    78   38  162 1    
    79   38  163 1    
    80   39   40 am   BACKBONE|DICT|INTERRES
    81   39  164 1    
    82   40   41 2    
    83   40   42 1    
    84   42   43 1    
    85   42   44 1    
    86   42  165 1    
    87   43  166 1    
    88   43  167 1    
    89   43  168 1    
    90   44   45 am   BACKBONE|DICT|INTERRES
    91   44  169 1    
    92   45   46 2    
    93   45   47 1    
    94   47   48 1    
    95   47   49 1    
    96   47  170 1    
    97   48  171 1    
    98   48  172 1    
    99   48  173 1    
   100   49   50 am   BACKBONE|DICT|INTERRES
   101   49  174 1    
   102   50   51 2    
   103   50   52 1    
   104   52   53 1    
   105   52   54 1    
   106   52  175 1    
   107   53  176 1    
   108   53  177 1    
   109   53  178 1    
   110   54   55 am   BACKBONE|DICT|INTERRES
   111   54  179 1    
   112   55   56 2    
   113   55   57 1    
   114   57   58 1    
   115   57   59 1    
   116   57  180 1    
   117   58  181 1    
   118   58  182 1    
   119   58  183 1    
   120   59   60 am   BACKBONE|DICT|INTERRES
   121   59  184 1    
   122   60   61 2    
   123   60   62 1    
   124   62   63 1    
   125   62   64 1    
   126   62  185 1    
   127   63  186 1    
   128   63  187 1    
   129   63  188 1    
   130   64   65 am   BACKBONE|DICT|INTERRES
   131   64  189 1    
   132   65   66 2    
   133   67   68 2    
   134   67   69 am   BACKBONE|DICT|INTERRES
   135   69   70 1    
   136   69  190 1    
   137   70   71 1    
   138   70   72 1    
   139   70  191 1    
   140   71  192 1    
   141   71  193 1    
   142   71  194 1    
   143   72   73 2    
   144   72   74 am   BACKBONE|DICT|INTERRES
   145   74   75 1    
   146   74  195 1    
   147   75   76 1    
   148   75   77 1    
   149   75  196 1    
   150   76  197 1    
   151   76  198 1    
   152   76  199 1    
   153   77   78 2    
   154   77   79 am   BACKBONE|DICT|INTERRES
   155   79   80 1    
   156   79  200 1    
   157   80   81 1    
   158   80   82 1    
   159   80  201 1    
   160   81  202 1    
   161   81  203 1    
   162   81  204 1    
   163   82   83 2    
   164   82   84 am   BACKBONE|DICT|INTERRES
   165   84   85 1    
   166   84  205 1    
   167   85   86 1    
   168   85   87 1    
   169   85  206 1    
   170   86  207 1    
   171   86  208 1    
   172   86  209 1    
   173   87   88 2    
   174   87   89 am   BACKBONE|DICT|INTERRES
   175   89   90 1    
   176   89  210 1    
   177   90   91 1    
   178   90   92 1    
   179   90  211 1    
   180   91  212 1    
   181   91  213 1    
   182   91  214 1    
   183   92   93 2    
   184   92   94 am   BACKBONE|DICT|INTERRES
   185   94   95 1    
   186   94  215 1    
   187   95   96 1    
   188   95   97 1    
   189   95  216 1    
   190   96  217 1    
   191   96  218 1    
   192   96  219 1    
   193   97   98 2    
   194   97   99 am   BACKBONE|DICT|INTERRES
   195   99  100 1    
   196   99  220 1    
   197  100  101 1    
   198  100  102 1    
   199  100  221 1    
   200  101  222 1    
   201  101  223 1    
   202  101  224 1    
   203  102  103 2    
   204  102  104 am   BACKBONE|DICT|INTERRES
   205  104  105 1    
   206  104  225 1    
   207  105  106 1    
   208  105  107 1    
   209  105  226 1    
   210  106  227 1    
   211  106  228 1    
   212  106  229 1    
   213  107  108 2    
   214  107  109 am   BACKBONE|DICT|INTERRES
   215  109  110 1    
   216  109  230 1    
   217  110  111 1    
   218  110  112 1    
   219  110  231 1    
   220  111  232 1    
   221  111  233 1    
   222  111  234 1    
   223  112  113 2    
   224  112  114 am   BACKBONE|DICT|INTERRES
   225  114  115 1    
   226  114  235 1    
   227  115  116 1    
   228  115  117 1    
   229  115  236 1    
   230  116  237 1    
   231  116  238 1    
   232  116  239 1    
   233  117  118 2    
   234  117  119 am   BACKBONE|DICT|INTERRES
   235  119  120 1    
   236  119  240 1    
   237  120  121 1    
   238  120  124 1    
   239  120  241 1    
   240  121  122 am   BACKBONE|DICT|INTERRES
   241  121  123 2    
   242  122  242 1    
   243  122  243 1    
   244  124  125 1    
   245  124  244 1    
   246  124  245 1    
   247  125  126 1    
   248  126  246 1    
   249  126  247 1    
@<TRIPOS>SUBSTRUCTURE
     1 UNK         1 GROUP             0       ****    0 ROOT    
