@<TRIPOS>MOLECULE
3R540
247   249    1
SMALL
USER_CHARGES


@<TRIPOS>ATOM
      1 CA          1.6682   -9.8981  -47.9344 C.3       0 UNK        -0.1800 
      2 C           0.6587  -10.7383  -47.1673 C.2       0 UNK         0.5000 
      3 O           0.6883  -10.7602  -45.9374 O.2       0 UNK        -0.5000 
      4 N          -0.2493  -11.4148  -47.8824 N.am      1 UNK        -0.5000 
      5 CA         -1.2721  -12.3223  -47.3372 C.3       1 UNK         0.1400 
      6 C6         -2.0335  -13.0709  -48.4597 C.3       23 UNK        -0.0398 
      7 S7         -0.9159  -14.0367  -49.5335 S.3       23 UNK        -0.2404 
      8 C8         -1.6653  -15.6920  -49.4535 C.3       23 UNK        -0.0205 
      9 C9         -0.8127  -16.7065  -50.1985 C.ar      23 UNK        -0.0193 
     10 C10        -0.9631  -16.8861  -51.5747 C.ar      23 UNK        -0.1150 
     11 C11        -0.1572  -17.7948  -52.2737 C.ar      23 UNK        -0.0193 
     12 C12         0.7765  -18.5592  -51.5630 C.ar      23 UNK        -0.1150 
     13 C13         0.9210  -18.4046  -50.1796 C.ar      23 UNK        -0.0193 
     14 C14         0.1338  -17.4645  -49.5102 C.ar      23 UNK        -0.1150 
     15 C15         1.9239  -19.2466  -49.3996 C.3       23 UNK        -0.0205 
     16 S16         1.3369  -20.9491  -49.1113 S.3       23 UNK        -0.2404 
     17 C17        -0.2899  -20.6594  -48.3426 C.3       23 UNK        -0.0398 
     18 CA         -0.7755  -21.8579  -47.4937 C.3       11 UNK         0.1400 
     19 N          -0.0972  -21.9660  -46.1971 N.am      11 UNK        -0.5000 
     20 C          -0.2755  -22.9763  -45.3312 C.2       10 UNK         0.5000 
     21 O          -0.9823  -23.9580  -45.5609 O.2       10 UNK        -0.5000 
     22 CA          0.3905  -22.8430  -43.9499 C.3       10 UNK         0.1400 
     23 CB          1.8881  -23.1760  -44.0197 C.3       10 UNK        -0.1800 
     24 N           0.1952  -21.5171  -43.3622 N.am      10 UNK        -0.5000 
     25 C          -0.9998  -21.0044  -43.0314 C.2       9 UNK         0.5000 
     26 O          -2.0594  -21.6225  -43.1306 O.2       9 UNK        -0.5000 
     27 CA         -1.0253  -19.5375  -42.5646 C.3       9 UNK         0.1400 
     28 CB         -0.6397  -19.4219  -41.0827 C.3       9 UNK        -0.1800 
     29 N          -0.1514  -18.6833  -43.3671 N.am      9 UNK        -0.5000 
     30 C          -0.3059  -18.4509  -44.6778 C.2       8 UNK         0.5000 
     31 O          -1.2464  -18.8774  -45.3453 O.2       8 UNK        -0.5000 
     32 CA          0.8113  -17.6600  -45.3751 C.3       8 UNK         0.1400 
     33 CB          0.6010  -16.1463  -45.2268 C.3       8 UNK        -0.1800 
     34 N           2.1381  -18.0422  -44.8927 N.am      8 UNK        -0.5000 
     35 C           2.7039  -19.2321  -45.1425 C.2       7 UNK         0.5000 
     36 O           2.1705  -20.1085  -45.8214 O.2       7 UNK        -0.5000 
     37 CA          4.0744  -19.4999  -44.4952 C.3       7 UNK         0.1400 
     38 CB          5.1996  -18.8827  -45.3388 C.3       7 UNK        -0.1800 
     39 N           4.1559  -18.9900  -43.1257 N.am      7 UNK        -0.5000 
     40 C           3.4558  -19.4813  -42.0929 C.2       6 UNK         0.5000 
     41 O           2.6986  -20.4475  -42.1795 O.2       6 UNK        -0.5000 
     42 CA          3.5801  -18.7277  -40.7532 C.3       6 UNK         0.1400 
     43 CB          4.7976  -19.2282  -39.9619 C.3       6 UNK        -0.1800 
     44 N           3.6646  -17.2705  -40.9109 N.am      6 UNK        -0.5000 
     45 C           2.7196  -16.5204  -41.4918 C.2       5 UNK         0.5000 
     46 O           1.6696  -16.9862  -41.9469 O.2       5 UNK        -0.5000 
     47 CA          3.0064  -15.0177  -41.6397 C.3       5 UNK         0.1400 
     48 CB          4.1895  -14.7814  -42.6011 C.3       5 UNK        -0.1800 
     49 N           1.7918  -14.4116  -42.1703 N.am      5 UNK        -0.5000 
     50 C           1.5091  -13.1176  -42.3301 C.2       4 UNK         0.5000 
     51 O           2.2686  -12.2033  -42.0009 O.2       4 UNK        -0.5000 
     52 CA          0.1570  -12.8339  -43.0176 C.3       4 UNK         0.1400 
     53 CB         -1.0344  -13.4746  -42.2731 C.3       4 UNK        -0.1800 
     54 N          -0.0846  -11.4155  -43.2804 N.am      4 UNK        -0.5000 
     55 C          -0.3281  -10.4272  -42.4077 C.2       3 UNK         0.5000 
     56 O          -0.4074  -10.5705  -41.1868 O.2       3 UNK        -0.5000 
     57 CA         -0.5611   -9.0370  -43.0257 C.3       3 UNK         0.1400 
     58 CB          0.7754   -8.3325  -43.3082 C.3       3 UNK        -0.1800 
     59 N          -1.3312   -9.1354  -44.2674 N.am      3 UNK        -0.5000 
     60 C          -2.6684   -9.2149  -44.3222 C.2       2 UNK         0.5000 
     61 O          -3.4009   -9.1095  -43.3376 O.2       2 UNK        -0.5000 
     62 CA         -3.2976   -9.4616  -45.7078 C.3       2 UNK         0.1400 
     63 CB         -3.5678   -8.1285  -46.4222 C.3       2 UNK        -0.1800 
     64 N          -2.4688  -10.3073  -46.5687 N.am      2 UNK        -0.5000 
     65 C          -2.2712  -11.6218  -46.3879 C.2       1 UNK         0.5000 
     66 O          -2.8260  -12.2789  -45.5070 O.2       1 UNK        -0.5000 
     67 C          -2.3080  -21.8132  -47.3398 C.2       11 UNK         0.5000 
     68 O          -2.9968  -22.5424  -48.0487 O.2       11 UNK        -0.5000 
     69 N          -2.8168  -20.9944  -46.4091 N.am      12 UNK        -0.5000 
     70 CA         -4.2460  -20.8627  -46.1181 C.3       12 UNK         0.1400 
     71 CB         -4.4661  -19.7076  -45.1300 C.3       12 UNK        -0.1800 
     72 C          -4.8850  -22.1620  -45.5918 C.2       12 UNK         0.5000 
     73 O          -6.0107  -22.4785  -45.9772 O.2       12 UNK        -0.5000 
     74 N          -4.1535  -22.8967  -44.7423 N.am      13 UNK        -0.5000 
     75 CA         -4.5590  -24.1983  -44.2117 C.3       13 UNK         0.1400 
     76 CB         -3.6346  -24.5871  -43.0476 C.3       13 UNK        -0.1800 
     77 C          -4.5741  -25.2988  -45.2890 C.2       13 UNK         0.5000 
     78 O          -5.5123  -26.0958  -45.3300 O.2       13 UNK        -0.5000 
     79 N          -3.5399  -25.3197  -46.1400 N.am      14 UNK        -0.5000 
     80 CA         -3.3965  -26.2550  -47.2567 C.3       14 UNK         0.1400 
     81 CB         -1.9437  -26.2104  -47.7439 C.3       14 UNK        -0.1800 
     82 C          -4.3702  -25.9689  -48.4160 C.2       14 UNK         0.5000 
     83 O          -4.8309  -26.9081  -49.0671 O.2       14 UNK        -0.5000 
     84 N          -4.6630  -24.6820  -48.6484 N.am      15 UNK        -0.5000 
     85 CA         -5.5776  -24.1312  -49.6465 C.3       15 UNK         0.1400 
     86 CB         -7.0403  -24.4446  -49.2626 C.3       15 UNK        -0.1800 
     87 C          -5.1883  -24.5675  -51.0717 C.2       15 UNK         0.5000 
     88 O          -4.1626  -24.1159  -51.5862 O.2       15 UNK        -0.5000 
     89 N          -5.9887  -25.4542  -51.6758 N.am      16 UNK        -0.5000 
     90 CA         -5.7726  -26.0203  -53.0065 C.3       16 UNK         0.1400 
     91 CB         -7.0064  -26.8429  -53.4062 C.3       16 UNK        -0.1800 
     92 C          -4.4952  -26.8743  -53.1214 C.2       16 UNK         0.5000 
     93 O          -3.9313  -26.9537  -54.2124 O.2       16 UNK        -0.5000 
     94 N          -4.0404  -27.4714  -52.0085 N.am      17 UNK        -0.5000 
     95 CA         -2.8189  -28.2802  -51.9607 C.3       17 UNK         0.1400 
     96 CB         -2.8207  -29.1480  -50.6934 C.3       17 UNK        -0.1800 
     97 C          -1.5330  -27.4350  -52.0531 C.2       17 UNK         0.5000 
     98 O          -0.5320  -27.9201  -52.5811 O.2       17 UNK        -0.5000 
     99 N          -1.5873  -26.1866  -51.5674 N.am      18 UNK        -0.5000 
    100 CA        -0.5111  -25.1995  -51.7029 C.3       18 UNK         0.1400 
    101 CB        -0.4641  -24.3289  -50.4387 C.3       18 UNK        -0.1800 
    102 C         -0.6820  -24.3094  -52.9470 C.2       18 UNK         0.5000 
    103 O          0.2573  -23.5999  -53.3075 O.2       18 UNK        -0.5000 
    104 N         -1.8765  -24.3465  -53.5563 N.am      19 UNK        -0.5000 
    105 CA        -2.3625  -23.4697  -54.6218 C.3       19 UNK         0.1400 
    106 CB        -1.5621  -23.6672  -55.9258 C.3       19 UNK        -0.1800 
    107 C         -2.4149  -22.0045  -54.1481 C.2       19 UNK         0.5000 
    108 O         -1.8462  -21.1211  -54.7892 O.2       19 UNK        -0.5000 
    109 N         -3.1048  -21.7779  -53.0200 N.am      20 UNK        -0.5000 
    110 CA        -3.2337  -20.4912  -52.3211 C.3       20 UNK         0.1400 
    111 CB        -3.9945  -20.7221  -51.0076 C.3       20 UNK        -0.1800 
    112 C         -3.8846  -19.3475  -53.1332 C.2       20 UNK         0.5000 
    113 O         -3.7936  -18.1913  -52.7228 O.2       20 UNK        -0.5000 
    114 N         -4.5045  -19.6712  -54.2761 N.am      21 UNK        -0.5000 
    115 CA        -4.9644  -18.7076  -55.2800 C.3       21 UNK         0.1400 
    116 CB        -5.9737  -19.4082  -56.2034 C.3       21 UNK        -0.1800 
    117 C         -3.8130  -18.0905  -56.1081 C.2       21 UNK         0.5000 
    118 O         -4.0295  -17.0759  -56.7713 O.2       21 UNK        -0.5000 
    119 N         -2.6281  -18.7170  -56.0681 N.am      22 UNK        -0.5000 
    120 CA        -1.3852  -18.3497  -56.7703 C.3       22 UNK         0.1400 
    121 C         -1.4071  -18.6321  -58.3045 C.2       22 UNK         0.5000 
    122 N         -2.3693  -19.3810  -58.8299 N.am      22 UNK        -0.7600 
    123 O         -0.5211  -18.1929  -59.0330 O.2       22 UNK        -0.5000 
    124 C124       -0.8681  -16.9161  -56.4458 C.3       23 UNK        -0.0398 
    125 S125       -0.6768  -16.4436  -54.6853 S.3       23 UNK        -0.2404 
    126 C126       -0.3100  -17.9921  -53.7820 C.3       23 UNK        -0.0205 
    127 H127        1.5131   -9.9613  -49.0117 H         1 UNK         0.0600 
    128 H128        1.5869   -8.8523  -47.6384 H         1 UNK         0.0600 
    129 H129        2.6803  -10.2380  -47.7151 H         1 UNK         0.0600 
    130 H130       -0.2150  -11.3652  -48.8909 H         1 UNK         0.3000 
    131 H131       -0.7463  -13.0673  -46.7359 H         1 UNK         0.0600 
    132 H132       -2.7815  -13.7397  -48.0295 H         1 UNK         0.0800 
    133 H133       -2.5825  -12.3663  -49.0869 H         1 UNK         0.0800 
    134 H134       -1.7811  -15.9925  -48.4107 H         1 UNK         0.0800 
    135 H135       -2.6679  -15.6607  -49.8829 H         1 UNK         0.0800 
    136 H136       -1.7081  -16.3066  -52.1010 H         1 UNK         0.1150 
    137 H137        1.3874  -19.2840  -52.0829 H         1 UNK         0.1150 
    138 H138        0.2496  -17.3195  -48.4487 H         1 UNK         0.1150 
    139 H139        2.8673  -19.2862  -49.9455 H         1 UNK         0.0800 
    140 H140        2.1498  -18.7833  -48.4379 H         1 UNK         0.0800 
    141 H141       -0.2533  -19.7562  -47.7336 H         1 UNK         0.0800 
    142 H142       -0.9830  -20.4498  -49.1605 H         1 UNK         0.0800 
    143 H143       -0.5500  -22.7738  -48.0424 H         1 UNK         0.0600 
    144 H144        0.5495  -21.2200  -45.9580 H         1 UNK         0.3000 
    145 H145       -0.0824  -23.5694  -43.2856 H         1 UNK         0.0600 
    146 H146        2.3431  -23.1518  -43.0294 H         1 UNK         0.0600 
    147 H147        2.0456  -24.1759  -44.4259 H         1 UNK         0.0600 
    148 H148        2.4314  -22.4762  -44.6537 H         1 UNK         0.0600 
    149 H149        1.0297  -20.9640  -43.1971 H         1 UNK         0.3000 
    150 H150       -2.0465  -19.1687  -42.6791 H         1 UNK         0.0600 
    151 H151       -1.3076  -20.0172  -40.4589 H         1 UNK         0.0600 
    152 H152       -0.7044  -18.3896  -40.7381 H         1 UNK         0.0600 
    153 H153        0.3767  -19.7709  -40.9014 H         1 UNK         0.0600 
    154 H154        0.6298  -18.2481  -42.8839 H         1 UNK         0.3000 
    155 H155        0.7697  -17.9041  -46.4351 H         1 UNK         0.0600 
    156 H156       -0.3396  -15.8395  -45.6863 H         1 UNK         0.0600 
    157 H157        0.5627  -15.8493  -44.1807 H         1 UNK         0.0600 
    158 H158        1.3985  -15.5832  -45.7118 H         1 UNK         0.0600 
    159 H159        2.6108  -17.3943  -44.2817 H         1 UNK         0.3000 
    160 H160        4.2233  -20.5814  -44.4661 H         1 UNK         0.0600 
    161 H161        5.1222  -17.7956  -45.3840 H         1 UNK         0.0600 
    162 H162        5.1685  -19.2570  -46.3630 H         1 UNK         0.0600 
    163 H163        6.1795  -19.1331  -44.9321 H         1 UNK         0.0600 
    164 H164        4.7573  -18.1956  -42.9663 H         1 UNK         0.3000 
    165 H165        2.6829  -18.9461  -40.1704 H         1 UNK         0.0600 
    166 H166        5.7329  -19.0076  -40.4778 H         1 UNK         0.0600 
    167 H167        4.8419  -18.7692  -38.9741 H         1 UNK         0.0600 
    168 H168        4.7502  -20.3081  -39.8150 H         1 UNK         0.0600 
    169 H169        4.5012  -16.8260  -40.5611 H         1 UNK         0.3000 
    170 H170        3.2224  -14.5974  -40.6558 H         1 UNK         0.0600 
    171 H171        5.1027  -15.2482  -42.2309 H         1 UNK         0.0600 
    172 H172        3.9890  -15.1896  -43.5925 H         1 UNK         0.0600 
    173 H173        4.4047  -13.7194  -42.7175 H         1 UNK         0.0600 
    174 H174        1.0987  -15.1099  -42.4116 H         1 UNK         0.3000 
    175 H175        0.2139  -13.2947  -44.0049 H         1 UNK         0.0600 
    176 H176       -1.9791  -13.2217  -42.7552 H         1 UNK         0.0600 
    177 H177       -0.9621  -14.5625  -42.2664 H         1 UNK         0.0600 
    178 H178       -1.0895  -13.1464  -41.2349 H         1 UNK         0.0600 
    179 H179        0.0491  -11.1444  -44.2517 H         1 UNK         0.3000 
    180 H180       -1.1136   -8.4325  -42.3031 H         1 UNK         0.0600 
    181 H181        0.6158   -7.3304  -43.7062 H         1 UNK         0.0600 
    182 H182        1.3613   -8.2306  -42.3939 H         1 UNK         0.0600 
    183 H183        1.3824   -8.8858  -44.0257 H         1 UNK         0.0600 
    184 H184       -0.8005   -9.2854  -45.1147 H         1 UNK         0.3000 
    185 H185       -4.2546   -9.9645  -45.5529 H         1 UNK         0.0600 
    186 H186       -4.0799   -8.2864  -47.3716 H         1 UNK         0.0600 
    187 H187       -4.2034   -7.4824  -45.8150 H         1 UNK         0.0600 
    188 H188       -2.6443   -7.5844  -46.6242 H         1 UNK         0.0600 
    189 H189       -1.9755   -9.8486  -47.3208 H         1 UNK         0.3000 
    190 H190       -2.1901  -20.3832  -45.8904 H         1 UNK         0.3000 
    191 H191       -4.7482  -20.6065  -47.0534 H         1 UNK         0.0600 
    192 H192       -5.5272  -19.5706  -44.9185 H         1 UNK         0.0600 
    193 H193       -4.0904  -18.7670  -45.5331 H         1 UNK         0.0600 
    194 H194       -3.9623  -19.8894  -44.1805 H         1 UNK         0.0600 
    195 H195       -3.2612  -22.5312  -44.4231 H         1 UNK         0.3000 
    196 H196       -5.5735  -24.1024  -43.8193 H         1 UNK         0.0600 
    197 H197       -3.9209  -25.5511  -42.6254 H         1 UNK         0.0600 
    198 H198       -3.6838  -23.8520  -42.2441 H         1 UNK         0.0600 
    199 H199       -2.5944  -24.6626  -43.3665 H         1 UNK         0.0600 
    200 H200       -2.7818  -24.6570  -46.0047 H         1 UNK         0.3000 
    201 H201       -3.6044  -27.2638  -46.8942 H         1 UNK         0.0600 
    202 H202       -1.2611  -26.5772  -46.9772 H         1 UNK         0.0600 
    203 H203       -1.6518  -25.1891  -47.9832 H         1 UNK         0.0600 
    204 H204       -1.7932  -26.8196  -48.6345 H         1 UNK         0.0600 
    205 H205       -4.1314  -23.9787  -48.1399 H         1 UNK         0.3000 
    206 H206       -5.4528  -23.0484  -49.6122 H         1 UNK         0.0600 
    207 H207       -7.2792  -24.0207  -48.2868 H         1 UNK         0.0600 
    208 H208       -7.7384  -24.0104  -49.9794 H         1 UNK         0.0600 
    209 H209       -7.2366  -25.5159  -49.2083 H         1 UNK         0.0600 
    210 H210       -6.7899  -25.7963  -51.1653 H         1 UNK         0.3000 
    211 H211       -5.6736  -25.1896  -53.7084 H         1 UNK         0.0600 
    212 H212       -7.1729  -27.6761  -52.7222 H         1 UNK         0.0600 
    213 H213       -6.8919  -27.2585  -54.4083 H         1 UNK         0.0600 
    214 H214       -7.9063  -26.2275  -53.4125 H         1 UNK         0.0600 
    215 H215       -4.5409  -27.3434  -51.1351 H         1 UNK         0.3000 
    216 H216       -2.8253  -28.9541  -52.8204 H         1 UNK         0.0600 
    217 H217       -1.9365  -29.7855  -50.6559 H         1 UNK         0.0600 
    218 H218       -3.6930  -29.8010  -50.6655 H         1 UNK         0.0600 
    219 H219       -2.8274  -28.5454  -49.7868 H         1 UNK         0.0600 
    220 H220       -2.4548  -25.8574  -51.1670 H         1 UNK         0.3000 
    221 H221        0.4532  -25.7030  -51.7985 H         1 UNK         0.0600 
    222 H222       -1.4438  -23.9161  -50.1923 H         1 UNK         0.0600 
    223 H223       -0.1045  -24.9066  -49.5890 H         1 UNK         0.0600 
    224 H224        0.2233  -23.4906  -50.5588 H         1 UNK         0.0600 
    225 H225       -2.5746  -24.9530  -53.1510 H         1 UNK         0.3000 
    226 H226       -3.3925  -23.7690  -54.8208 H         1 UNK         0.0600 
    227 H227       -1.5577  -24.7142  -56.2290 H         1 UNK         0.0600 
    228 H228       -2.0035  -23.0939  -56.7418 H         1 UNK         0.0600 
    229 H229       -0.5263  -23.3423  -55.8256 H         1 UNK         0.0600 
    230 H230       -3.5127  -22.5795  -52.5454 H         1 UNK         0.3000 
    231 H231       -2.2234  -20.1619  -52.0699 H         1 UNK         0.0600 
    232 H232       -4.0432  -19.8087  -50.4133 H         1 UNK         0.0600 
    233 H233       -3.4995  -21.4780  -50.3994 H         1 UNK         0.0600 
    234 H234       -5.0169  -21.0542  -51.1904 H         1 UNK         0.0600 
    235 H235       -4.5519  -20.6467  -54.5285 H         1 UNK         0.3000 
    236 H236       -5.4772  -17.8893  -54.7702 H         1 UNK         0.0600 
    237 H237       -5.5200  -20.2453  -56.7352 H         1 UNK         0.0600 
    238 H238       -6.8251  -19.7896  -55.6394 H         1 UNK         0.0600 
    239 H239       -6.3651  -18.7173  -56.9513 H         1 UNK         0.0600 
    240 H240       -2.5481  -19.5658  -55.5142 H         1 UNK         0.3000 
    241 H241       -0.6375  -19.0474  -56.3930 H         1 UNK         0.0600 
    242 H242       -2.3692  -19.5670  -59.8206 H         1 UNK         0.3800 
    243 H243       -3.0967  -19.7612  -58.2469 H         1 UNK         0.3800 
    244 H244       -1.5180  -16.1744  -56.9118 H         1 UNK         0.0800 
    245 H245        0.1108  -16.7702  -56.9051 H         1 UNK         0.0800 
    246 H246       -1.1092  -18.7120  -53.9342 H         1 UNK         0.0800 
    247 H247        0.5965  -18.4322  -54.2000 H         1 UNK         0.0800 
@<TRIPOS>BOND
     1    1    2 1    
     2    1  127 1    
     3    1  128 1    
     4    1  129 1    
     5    2    3 2    
     6    2    4 am   BACKBONE|DICT|INTERRES
     7    4    5 1    
     8    4  130 1    
     9    5    6 1    
    10    5   65 1    
    11    5  131 1    
    12    6    7 1    
    13    6  132 1    
    14    6  133 1    
    15    7    8 1    
    16    8    9 1    
    17    8  134 1    
    18    8  135 1    
    19    9   10 ar   
    20    9   14 ar   
    21   10   11 ar   
    22   10  136 1    
    23   11   12 ar   
    24   11  126 1    
    25   12   13 ar   
    26   12  137 1    
    27   13   14 ar   
    28   13   15 1    
    29   14  138 1    
    30   15   16 1    
    31   15  139 1    
    32   15  140 1    
    33   16   17 1    
    34   17   18 1    
    35   17  141 1    
    36   17  142 1    
    37   18   19 1    
    38   18   67 1    
    39   18  143 1    
    40   19   20 am   BACKBONE|DICT|INTERRES
    41   19  144 1    
    42   20   21 2    
    43   20   22 1    
    44   22   23 1    
    45   22   24 1    
    46   22  145 1    
    47   23  146 1    
    48   23  147 1    
    49   23  148 1    
    50   24   25 am   BACKBONE|DICT|INTERRES
    51   24  149 1    
    52   25   26 2    
    53   25   27 1    
    54   27   28 1    
    55   27   29 1    
    56   27  150 1    
    57   28  151 1    
    58   28  152 1    
    59   28  153 1    
    60   29   30 am   BACKBONE|DICT|INTERRES
    61   29  154 1    
    62   30   31 2    
    63   30   32 1    
    64   32   33 1    
    65   32   34 1    
    66   32  155 1    
    67   33  156 1    
    68   33  157 1    
    69   33  158 1    
    70   34   35 am   BACKBONE|DICT|INTERRES
    71   34  159 1    
    72   35   36 2    
    73   35   37 1    
    74   37   38 1    
    75   37   39 1    
    76   37  160 1    
    77   38  161 1    
    78   38  162 1    
    79   38  163 1    
    80   39   40 am   BACKBONE|DICT|INTERRES
    81   39  164 1    
    82   40   41 2    
    83   40   42 1    
    84   42   43 1    
    85   42   44 1    
    86   42  165 1    
    87   43  166 1    
    88   43  167 1    
    89   43  168 1    
    90   44   45 am   BACKBONE|DICT|INTERRES
    91   44  169 1    
    92   45   46 2    
    93   45   47 1    
    94   47   48 1    
    95   47   49 1    
    96   47  170 1    
    97   48  171 1    
    98   48  172 1    
    99   48  173 1    
   100   49   50 am   BACKBONE|DICT|INTERRES
   101   49  174 1    
   102   50   51 2    
   103   50   52 1    
   104   52   53 1    
   105   52   54 1    
   106   52  175 1    
   107   53  176 1    
   108   53  177 1    
   109   53  178 1    
   110   54   55 am   BACKBONE|DICT|INTERRES
   111   54  179 1    
   112   55   56 2    
   113   55   57 1    
   114   57   58 1    
   115   57   59 1    
   116   57  180 1    
   117   58  181 1    
   118   58  182 1    
   119   58  183 1    
   120   59   60 am   BACKBONE|DICT|INTERRES
   121   59  184 1    
   122   60   61 2    
   123   60   62 1    
   124   62   63 1    
   125   62   64 1    
   126   62  185 1    
   127   63  186 1    
   128   63  187 1    
   129   63  188 1    
   130   64   65 am   BACKBONE|DICT|INTERRES
   131   64  189 1    
   132   65   66 2    
   133   67   68 2    
   134   67   69 am   BACKBONE|DICT|INTERRES
   135   69   70 1    
   136   69  190 1    
   137   70   71 1    
   138   70   72 1    
   139   70  191 1    
   140   71  192 1    
   141   71  193 1    
   142   71  194 1    
   143   72   73 2    
   144   72   74 am   BACKBONE|DICT|INTERRES
   145   74   75 1    
   146   74  195 1    
   147   75   76 1    
   148   75   77 1    
   149   75  196 1    
   150   76  197 1    
   151   76  198 1    
   152   76  199 1    
   153   77   78 2    
   154   77   79 am   BACKBONE|DICT|INTERRES
   155   79   80 1    
   156   79  200 1    
   157   80   81 1    
   158   80   82 1    
   159   80  201 1    
   160   81  202 1    
   161   81  203 1    
   162   81  204 1    
   163   82   83 2    
   164   82   84 am   BACKBONE|DICT|INTERRES
   165   84   85 1    
   166   84  205 1    
   167   85   86 1    
   168   85   87 1    
   169   85  206 1    
   170   86  207 1    
   171   86  208 1    
   172   86  209 1    
   173   87   88 2    
   174   87   89 am   BACKBONE|DICT|INTERRES
   175   89   90 1    
   176   89  210 1    
   177   90   91 1    
   178   90   92 1    
   179   90  211 1    
   180   91  212 1    
   181   91  213 1    
   182   91  214 1    
   183   92   93 2    
   184   92   94 am   BACKBONE|DICT|INTERRES
   185   94   95 1    
   186   94  215 1    
   187   95   96 1    
   188   95   97 1    
   189   95  216 1    
   190   96  217 1    
   191   96  218 1    
   192   96  219 1    
   193   97   98 2    
   194   97   99 am   BACKBONE|DICT|INTERRES
   195   99  100 1    
   196   99  220 1    
   197  100  101 1    
   198  100  102 1    
   199  100  221 1    
   200  101  222 1    
   201  101  223 1    
   202  101  224 1    
   203  102  103 2    
   204  102  104 am   BACKBONE|DICT|INTERRES
   205  104  105 1    
   206  104  225 1    
   207  105  106 1    
   208  105  107 1    
   209  105  226 1    
   210  106  227 1    
   211  106  228 1    
   212  106  229 1    
   213  107  108 2    
   214  107  109 am   BACKBONE|DICT|INTERRES
   215  109  110 1    
   216  109  230 1    
   217  110  111 1    
   218  110  112 1    
   219  110  231 1    
   220  111  232 1    
   221  111  233 1    
   222  111  234 1    
   223  112  113 2    
   224  112  114 am   BACKBONE|DICT|INTERRES
   225  114  115 1    
   226  114  235 1    
   227  115  116 1    
   228  115  117 1    
   229  115  236 1    
   230  116  237 1    
   231  116  238 1    
   232  116  239 1    
   233  117  118 2    
   234  117  119 am   BACKBONE|DICT|INTERRES
   235  119  120 1    
   236  119  240 1    
   237  120  121 1    
   238  120  124 1    
   239  120  241 1    
   240  121  122 am   BACKBONE|DICT|INTERRES
   241  121  123 2    
   242  122  242 1    
   243  122  243 1    
   244  124  125 1    
   245  124  244 1    
   246  124  245 1    
   247  125  126 1    
   248  126  246 1    
   249  126  247 1    
@<TRIPOS>SUBSTRUCTURE
     1 UNK         1 GROUP             0       ****    0 ROOT    
