@<TRIPOS>MOLECULE
3R540
247   249    1
SMALL
USER_CHARGES


@<TRIPOS>ATOM
      1 CA         -1.9623   -9.6562  -44.2689 C.3       0 UNK        -0.1800 
      2 C          -1.0973  -10.2104  -45.3923 C.2       0 UNK         0.5000 
      3 O          -0.9463   -9.5604  -46.4274 O.2       0 UNK        -0.5000 
      4 N          -0.5372  -11.4103  -45.1954 N.am      1 UNK        -0.5000 
      5 CA          0.3832  -12.0675  -46.1280 C.3       1 UNK         0.1400 
      6 C6          0.5286  -13.5727  -45.7949 C.3       23 UNK        -0.0398 
      7 S7          1.0035  -14.5600  -47.2514 S.3       23 UNK        -0.2404 
      8 C8         -0.5871  -15.3632  -47.6516 C.3       23 UNK        -0.0205 
      9 C9         -0.5090  -16.3481  -48.8135 C.ar      23 UNK        -0.0193 
     10 C10        -1.5700  -16.4444  -49.7192 C.ar      23 UNK        -0.1150 
     11 C11        -1.5419  -17.3852  -50.7540 C.ar      23 UNK        -0.0193 
     12 C12        -0.4394  -18.2361  -50.8821 C.ar      23 UNK        -0.1150 
     13 C13         0.6268  -18.1519  -49.9831 C.ar      23 UNK        -0.0193 
     14 C14         0.5848  -17.2058  -48.9572 C.ar      23 UNK        -0.1150 
     15 C15         1.8237  -19.0845  -50.1046 C.3       23 UNK        -0.0205 
     16 S16         1.4585  -20.7761  -49.5331 S.3       23 UNK        -0.2404 
     17 C17         0.9499  -20.5078  -47.7965 C.3       23 UNK        -0.0398 
     18 CA          0.1042  -21.6609  -47.2086 C.3       11 UNK         0.1400 
     19 N          -0.1309  -21.4755  -45.7746 N.am      11 UNK        -0.5000 
     20 C          -0.5798  -22.4377  -44.9567 C.2       10 UNK         0.5000 
     21 O          -0.8405  -23.5834  -45.3263 O.2       10 UNK        -0.5000 
     22 CA         -0.8077  -22.0454  -43.4868 C.3       10 UNK         0.1400 
     23 CB          0.5317  -21.9250  -42.7434 C.3       10 UNK        -0.1800 
     24 N          -1.5600  -20.8019  -43.3213 N.am      10 UNK        -0.5000 
     25 C          -2.7961  -20.5590  -43.7727 C.2       9 UNK         0.5000 
     26 O          -3.4420  -21.3602  -44.4454 O.2       9 UNK        -0.5000 
     27 CA         -3.4195  -19.1870  -43.4448 C.3       9 UNK         0.1400 
     28 CB         -4.0543  -19.1832  -42.0414 C.3       9 UNK        -0.1800 
     29 N          -2.5099  -18.0496  -43.6374 N.am      9 UNK        -0.5000 
     30 C          -1.3965  -17.7397  -42.9597 C.2       8 UNK         0.5000 
     31 O          -0.9842  -18.3559  -41.9745 O.2       8 UNK        -0.5000 
     32 CA         -0.5729  -16.5684  -43.5226 C.3       8 UNK         0.1400 
     33 CB         -0.6272  -15.3655  -42.5684 C.3       8 UNK        -0.1800 
     34 N           0.8220  -16.9401  -43.7811 N.am      8 UNK        -0.5000 
     35 C           1.2174  -17.9678  -44.5513 C.2       7 UNK         0.5000 
     36 O           0.4360  -18.7103  -45.1492 O.2       7 UNK        -0.5000 
     37 CA          2.7231  -18.2412  -44.6929 C.3       7 UNK         0.1400 
     38 CB          3.2635  -17.6392  -45.9970 C.3       7 UNK        -0.1800 
     39 N           3.5155  -17.7502  -43.5626 N.am      7 UNK        -0.5000 
     40 C           4.4757  -18.4684  -42.9586 C.2       6 UNK         0.5000 
     41 O           4.7791  -19.6160  -43.2885 O.2       6 UNK        -0.5000 
     42 CA          5.2447  -17.8126  -41.7934 C.3       6 UNK         0.1400 
     43 CB          6.6060  -17.2910  -42.2774 C.3       6 UNK        -0.1800 
     44 N           4.5122  -16.7209  -41.1546 N.am      6 UNK        -0.5000 
     45 C           3.4160  -16.8817  -40.4005 C.2       5 UNK         0.5000 
     46 O           2.9632  -17.9841  -40.0910 O.2       5 UNK        -0.5000 
     47 CA          2.6878  -15.6098  -39.9170 C.3       5 UNK         0.1400 
     48 CB          2.9087  -15.4069  -38.4098 C.3       5 UNK        -0.1800 
     49 N           3.0504  -14.3691  -40.6119 N.am      5 UNK        -0.5000 
     50 C           2.9404  -14.1250  -41.9245 C.2       4 UNK         0.5000 
     51 O           2.5699  -14.9710  -42.7436 O.2       4 UNK        -0.5000 
     52 CA          3.3123  -12.7071  -42.4108 C.3       4 UNK         0.1400 
     53 CB          4.0869  -11.8613  -41.3751 C.3       4 UNK        -0.1800 
     54 N           4.0303  -12.7371  -43.6863 N.am      4 UNK        -0.5000 
     55 C           5.1854  -13.3665  -43.9529 C.2       3 UNK         0.5000 
     56 O           5.8404  -13.9708  -43.1025 O.2       3 UNK        -0.5000 
     57 CA          5.6929  -13.3377  -45.4105 C.3       3 UNK         0.1400 
     58 CB          5.8882  -14.7639  -45.9479 C.3       3 UNK        -0.1800 
     59 N           4.7853  -12.6218  -46.3115 N.am      3 UNK        -0.5000 
     60 C           4.8738  -11.3197  -46.6127 C.2       2 UNK         0.5000 
     61 O           5.7730  -10.5815  -46.2094 O.2       2 UNK        -0.5000 
     62 CA          3.7479  -10.7362  -47.4907 C.3       2 UNK         0.1400 
     63 CB          4.1231  -10.8309  -48.9774 C.3       2 UNK        -0.1800 
     64 N           2.4396  -11.3695  -47.2850 N.am      2 UNK        -0.5000 
     65 C           1.7549  -11.3590  -46.1333 C.2       1 UNK         0.5000 
     66 O           2.1848  -10.8573  -45.0920 O.2       1 UNK        -0.5000 
     67 C          -1.2246  -21.8632  -47.9650 C.2       11 UNK         0.5000 
     68 O          -1.3019  -22.7378  -48.8265 O.2       11 UNK        -0.5000 
     69 N          -2.2601  -21.0949  -47.5948 N.am      12 UNK        -0.5000 
     70 CA         -3.6035  -21.2091  -48.1614 C.3       12 UNK         0.1400 
     71 CB         -4.4860  -20.0568  -47.6616 C.3       12 UNK        -0.1800 
     72 C          -4.2464  -22.5754  -47.8666 C.2       12 UNK         0.5000 
     73 O          -4.8039  -23.1842  -48.7786 O.2       12 UNK        -0.5000 
     74 N          -4.1158  -23.0551  -46.6223 N.am      13 UNK        -0.5000 
     75 CA         -4.5640  -24.3772  -46.1851 C.3       13 UNK         0.1400 
     76 CB         -4.3893  -24.5080  -44.6647 C.3       13 UNK        -0.1800 
     77 C          -3.8424  -25.5190  -46.9219 C.2       13 UNK         0.5000 
     78 O          -4.5052  -26.4371  -47.4069 O.2       13 UNK        -0.5000 
     79 N          -2.5099  -25.4158  -47.0424 N.am      14 UNK        -0.5000 
     80 CA         -1.6664  -26.3547  -47.7894 C.3       14 UNK         0.1400 
     81 CB         -0.1881  -25.9986  -47.5729 C.3       14 UNK        -0.1800 
     82 C          -2.0000  -26.4032  -49.2939 C.2       14 UNK         0.5000 
     83 O          -1.9463  -27.4751  -49.8970 O.2       14 UNK        -0.5000 
     84 N          -2.3837  -25.2508  -49.8559 N.am      15 UNK        -0.5000 
     85 CA         -2.8400  -25.0778  -51.2337 C.3       15 UNK         0.1400 
     86 CB         -2.4838  -23.6544  -51.6906 C.3       15 UNK        -0.1800 
     87 C          -4.3411  -25.3819  -51.4374 C.2       15 UNK         0.5000 
     88 O          -4.8760  -25.0312  -52.4898 O.2       15 UNK        -0.5000 
     89 N          -4.9922  -26.0223  -50.4532 N.am      16 UNK        -0.5000 
     90 CA         -6.3870  -26.4765  -50.4563 C.3       16 UNK         0.1400 
     91 CB         -6.6045  -27.5657  -51.5283 C.3       16 UNK        -0.1800 
     92 C          -7.3833  -25.3071  -50.5722 C.2       16 UNK         0.5000 
     93 O          -8.1536  -25.2339  -51.5302 O.2       16 UNK        -0.5000 
     94 N          -7.3150  -24.3932  -49.5947 N.am      17 UNK        -0.5000 
     95 CA         -8.0548  -23.1273  -49.5109 C.3       17 UNK         0.1400 
     96 CB         -9.5758  -23.3650  -49.4020 C.3       17 UNK        -0.1800 
     97 C          -7.6604  -22.1629  -50.6482 C.2       17 UNK         0.5000 
     98 O          -8.5183  -21.5187  -51.2532 O.2       17 UNK        -0.5000 
     99 N          -6.3480  -22.1156  -50.9177 N.am      18 UNK        -0.5000 
    100 CA        -5.6516  -21.3351  -51.9434 C.3       18 UNK         0.1400 
    101 CB        -5.8244  -19.8225  -51.7015 C.3       18 UNK        -0.1800 
    102 C         -5.9731  -21.7304  -53.3994 C.2       18 UNK         0.5000 
    103 O         -5.5145  -21.0424  -54.3117 O.2       18 UNK        -0.5000 
    104 N         -6.7043  -22.8321  -53.6183 N.am      19 UNK        -0.5000 
    105 CA        -7.1098  -23.3246  -54.9380 C.3       19 UNK         0.1400 
    106 CB        -8.0484  -24.5268  -54.7632 C.3       19 UNK        -0.1800 
    107 C         -5.9266  -23.6963  -55.8516 C.2       19 UNK         0.5000 
    108 O         -5.9991  -23.4738  -57.0605 O.2       19 UNK        -0.5000 
    109 N         -4.8525  -24.2262  -55.2541 N.am      20 UNK        -0.5000 
    110 CA        -3.6037  -24.5742  -55.9328 C.3       20 UNK         0.1400 
    111 CB        -3.0076  -25.8159  -55.2490 C.3       20 UNK        -0.1800 
    112 C         -2.5840  -23.4145  -55.9552 C.2       20 UNK         0.5000 
    113 O         -1.4676  -23.6171  -56.4357 O.2       20 UNK        -0.5000 
    114 N         -2.9546  -22.2401  -55.4269 N.am      21 UNK        -0.5000 
    115 CA        -2.0982  -21.0644  -55.3078 C.3       21 UNK         0.1400 
    116 CB        -1.6560  -20.9036  -53.8381 C.3       21 UNK        -0.1800 
    117 C         -2.8278  -19.8389  -55.8831 C.2       21 UNK         0.5000 
    118 O         -2.9271  -19.7182  -57.1051 O.2       21 UNK        -0.5000 
    119 N         -3.2928  -18.9441  -55.0033 N.am      22 UNK        -0.5000 
    120 CA        -3.9157  -17.6522  -55.3344 C.3       22 UNK         0.1400 
    121 C         -5.2899  -17.7369  -56.0614 C.2       22 UNK         0.5000 
    122 N         -6.0175  -18.8435  -55.9891 N.am      22 UNK        -0.7600 
    123 O         -5.7013  -16.7757  -56.7056 O.2       22 UNK        -0.5000 
    124 C124       -4.0279  -16.7325  -54.0898 C.3       23 UNK        -0.0398 
    125 S125       -2.4444  -16.4905  -53.2092 S.3       23 UNK        -0.2404 
    126 C126       -2.7130  -17.4966  -51.7165 C.3       23 UNK        -0.0205 
    127 H127       -1.5545   -8.7096  -43.9141 H         1 UNK         0.0600 
    128 H128       -2.9761   -9.4788  -44.6280 H         1 UNK         0.0600 
    129 H129       -2.0166  -10.3413  -43.4224 H         1 UNK         0.0600 
    130 H130       -0.6740  -11.8733  -44.3091 H         1 UNK         0.3000 
    131 H131       -0.0551  -11.9721  -47.1243 H         1 UNK         0.0600 
    132 H132       -0.4169  -13.9630  -45.4173 H         1 UNK         0.0800 
    133 H133        1.2536  -13.7439  -44.9964 H         1 UNK         0.0800 
    134 H134       -0.9440  -15.9092  -46.7789 H         1 UNK         0.0800 
    135 H135       -1.3240  -14.5865  -47.8624 H         1 UNK         0.0800 
    136 H136       -2.4274  -15.7946  -49.6130 H         1 UNK         0.1150 
    137 H137       -0.4125  -18.9708  -51.6734 H         1 UNK         0.1150 
    138 H138        1.4015  -17.1478  -48.2553 H         1 UNK         0.1150 
    139 H139        2.1422  -19.1261  -51.1471 H         1 UNK         0.0800 
    140 H140        2.6742  -18.6952  -49.5427 H         1 UNK         0.0800 
    141 H141        0.3958  -19.5747  -47.7072 H         1 UNK         0.0800 
    142 H142        1.8569  -20.3799  -47.2050 H         1 UNK         0.0800 
    143 H143        0.6822  -22.5805  -47.3239 H         1 UNK         0.0600 
    144 H144        0.0272  -20.5405  -45.4059 H         1 UNK         0.3000 
    145 H145       -1.3877  -22.8439  -43.0197 H         1 UNK         0.0600 
    146 H146        0.3763  -21.7512  -41.6785 H         1 UNK         0.0600 
    147 H147        1.1179  -22.8397  -42.8411 H         1 UNK         0.0600 
    148 H148        1.1359  -21.1031  -43.1303 H         1 UNK         0.0600 
    149 H149       -1.1172  -20.0645  -42.7801 H         1 UNK         0.3000 
    150 H150       -4.2274  -19.0369  -44.1628 H         1 UNK         0.0600 
    151 H151       -4.8141  -19.9614  -41.9592 H         1 UNK         0.0600 
    152 H152       -4.5408  -18.2307  -41.8314 H         1 UNK         0.0600 
    153 H153       -3.3197  -19.3653  -41.2568 H         1 UNK         0.0600 
    154 H154       -2.7263  -17.4849  -44.4466 H         1 UNK         0.3000 
    155 H155       -1.0063  -16.2618  -44.4749 H         1 UNK         0.0600 
    156 H156       -0.1057  -14.5028  -42.9804 H         1 UNK         0.0600 
    157 H157       -0.1769  -15.6002  -41.6042 H         1 UNK         0.0600 
    158 H158       -1.6578  -15.0609  -42.3824 H         1 UNK         0.0600 
    159 H159        1.5184  -16.3416  -43.3477 H         1 UNK         0.3000 
    160 H160        2.8181  -19.3266  -44.7650 H         1 UNK         0.0600 
    161 H161        3.0304  -16.5772  -46.0736 H         1 UNK         0.0600 
    162 H162        2.8260  -18.1384  -46.8601 H         1 UNK         0.0600 
    163 H163        4.3442  -17.7590  -46.0741 H         1 UNK         0.0600 
    164 H164        3.3235  -16.8109  -43.2325 H         1 UNK         0.3000 
    165 H165        5.4256  -18.5844  -41.0423 H         1 UNK         0.0600 
    166 H166        6.4934  -16.5478  -43.0666 H         1 UNK         0.0600 
    167 H167        7.1699  -16.8357  -41.4631 H         1 UNK         0.0600 
    168 H168        7.2134  -18.1029  -42.6793 H         1 UNK         0.0600 
    169 H169        4.8126  -15.7818  -41.3775 H         1 UNK         0.3000 
    170 H170        1.6225  -15.7765  -40.0827 H         1 UNK         0.0600 
    171 H171        2.6156  -16.2938  -37.8463 H         1 UNK         0.0600 
    172 H172        3.9560  -15.2046  -38.1819 H         1 UNK         0.0600 
    173 H173        2.3145  -14.5749  -38.0313 H         1 UNK         0.0600 
    174 H174        3.3898  -13.6220  -40.0237 H         1 UNK         0.3000 
    175 H175        2.3659  -12.2020  -42.6081 H         1 UNK         0.0600 
    176 H176        4.3411  -10.8840  -41.7859 H         1 UNK         0.0600 
    177 H177        3.4898  -11.6806  -40.4806 H         1 UNK         0.0600 
    178 H178        5.0171  -12.3404  -41.0672 H         1 UNK         0.0600 
    179 H179        3.5757  -12.2337  -44.4383 H         1 UNK         0.3000 
    180 H180        6.6683  -12.8472  -45.4013 H         1 UNK         0.0600 
    181 H181        4.9516  -15.3179  -45.9477 H         1 UNK         0.0600 
    182 H182        6.6008  -15.3222  -45.3397 H         1 UNK         0.0600 
    183 H183        6.2727  -14.7530  -46.9678 H         1 UNK         0.0600 
    184 H184        4.0135  -13.1512  -46.6909 H         1 UNK         0.3000 
    185 H185        3.6474   -9.6801  -47.2315 H         1 UNK         0.0600 
    186 H186        3.3810  -10.3364  -49.6044 H         1 UNK         0.0600 
    187 H187        5.0822  -10.3483  -49.1702 H         1 UNK         0.0600 
    188 H188        4.2051  -11.8676  -49.3066 H         1 UNK         0.0600 
    189 H189        2.0328  -11.8253  -48.0897 H         1 UNK         0.3000 
    190 H190       -2.1297  -20.4295  -46.8480 H         1 UNK         0.3000 
    191 H191       -3.5141  -21.1150  -49.2458 H         1 UNK         0.0600 
    192 H192       -4.0660  -19.0902  -47.9404 H         1 UNK         0.0600 
    193 H193       -5.4841  -20.1149  -48.0980 H         1 UNK         0.0600 
    194 H194       -4.6013  -20.0741  -46.5778 H         1 UNK         0.0600 
    195 H195       -3.6854  -22.4676  -45.9115 H         1 UNK         0.3000 
    196 H196       -5.6292  -24.4575  -46.4110 H         1 UNK         0.0600 
    197 H197       -4.7204  -25.4865  -44.3148 H         1 UNK         0.0600 
    198 H198       -4.9771  -23.7574  -44.1361 H         1 UNK         0.0600 
    199 H199       -3.3477  -24.3857  -44.3659 H         1 UNK         0.0600 
    200 H200       -2.0347  -24.6407  -46.5903 H         1 UNK         0.3000 
    201 H201       -1.8396  -27.3524  -47.3810 H         1 UNK         0.0600 
    202 H202        0.0757  -26.0355  -46.5159 H         1 UNK         0.0600 
    203 H203        0.0424  -24.9982  -47.9402 H         1 UNK         0.0600 
    204 H204        0.4638  -26.6993  -48.0960 H         1 UNK         0.0600 
    205 H205       -2.3349  -24.4048  -49.2968 H         1 UNK         0.3000 
    206 H206       -2.2942  -25.7757  -51.8708 H         1 UNK         0.0600 
    207 H207       -1.4059  -23.4944  -51.6618 H         1 UNK         0.0600 
    208 H208       -2.8106  -23.4644  -52.7129 H         1 UNK         0.0600 
    209 H209       -2.9431  -22.9065  -51.0461 H         1 UNK         0.0600 
    210 H210       -4.4809  -26.2164  -49.6010 H         1 UNK         0.3000 
    211 H211       -6.5622  -26.9379  -49.4832 H         1 UNK         0.0600 
    212 H212       -6.4708  -27.1788  -52.5391 H         1 UNK         0.0600 
    213 H213       -7.6140  -27.9736  -51.4678 H         1 UNK         0.0600 
    214 H214       -5.9102  -28.3949  -51.3930 H         1 UNK         0.0600 
    215 H215       -6.5694  -24.4943  -48.9173 H         1 UNK         0.3000 
    216 H216       -7.7329  -22.6490  -48.5846 H         1 UNK         0.0600 
    217 H217       -9.8097  -24.0549  -48.5912 H         1 UNK         0.0600 
    218 H218       -9.9935  -23.7738  -50.3223 H         1 UNK         0.0600 
    219 H219      -10.1002  -22.4316  -49.1950 H         1 UNK         0.0600 
    220 H220       -5.7483  -22.6871  -50.3272 H         1 UNK         0.3000 
    221 H221       -4.5938  -21.5562  -51.8142 H         1 UNK         0.0600 
    222 H222       -6.8567  -19.5029  -51.8448 H         1 UNK         0.0600 
    223 H223       -5.5229  -19.5464  -50.6912 H         1 UNK         0.0600 
    224 H224       -5.2108  -19.2442  -52.3909 H         1 UNK         0.0600 
    225 H225       -7.0006  -23.3815  -52.8227 H         1 UNK         0.3000 
    226 H226       -7.6667  -22.5245  -55.4297 H         1 UNK         0.0600 
    227 H227       -8.9267  -24.2599  -54.1750 H         1 UNK         0.0600 
    228 H228       -8.4009  -24.8931  -55.7282 H         1 UNK         0.0600 
    229 H229       -7.5473  -25.3546  -54.2594 H         1 UNK         0.0600 
    230 H230       -4.8921  -24.4058  -54.2521 H         1 UNK         0.3000 
    231 H231       -3.8158  -24.8364  -56.9711 H         1 UNK         0.0600 
    232 H232       -3.7308  -26.6306  -55.2066 H         1 UNK         0.0600 
    233 H233       -2.6886  -25.5973  -54.2309 H         1 UNK         0.0600 
    234 H234       -2.1366  -26.1838  -55.7925 H         1 UNK         0.0600 
    235 H235       -3.9133  -22.1187  -55.1210 H         1 UNK         0.3000 
    236 H236       -1.1967  -21.1835  -55.9121 H         1 UNK         0.0600 
    237 H237       -1.0314  -21.7421  -53.5302 H         1 UNK         0.0600 
    238 H238       -1.0598  -20.0004  -53.7053 H         1 UNK         0.0600 
    239 H239       -2.5038  -20.8561  -53.1544 H         1 UNK         0.0600 
    240 H240       -3.1742  -19.1351  -54.0222 H         1 UNK         0.3000 
    241 H241       -3.2406  -17.1602  -56.0372 H         1 UNK         0.0600 
    242 H242       -5.7098  -19.6379  -55.4309 H         1 UNK         0.3800 
    243 H243       -6.9013  -18.8864  -56.4695 H         1 UNK         0.3800 
    244 H244       -4.3816  -15.7441  -54.3889 H         1 UNK         0.0800 
    245 H245       -4.7780  -17.1159  -53.3969 H         1 UNK         0.0800 
    246 H246       -3.6320  -17.1777  -51.2218 H         1 UNK         0.0800 
    247 H247       -2.8588  -18.5401  -51.9956 H         1 UNK         0.0800 
@<TRIPOS>BOND
     1    1    2 1    
     2    1  127 1    
     3    1  128 1    
     4    1  129 1    
     5    2    3 2    
     6    2    4 am   BACKBONE|DICT|INTERRES
     7    4    5 1    
     8    4  130 1    
     9    5    6 1    
    10    5   65 1    
    11    5  131 1    
    12    6    7 1    
    13    6  132 1    
    14    6  133 1    
    15    7    8 1    
    16    8    9 1    
    17    8  134 1    
    18    8  135 1    
    19    9   10 ar   
    20    9   14 ar   
    21   10   11 ar   
    22   10  136 1    
    23   11   12 ar   
    24   11  126 1    
    25   12   13 ar   
    26   12  137 1    
    27   13   14 ar   
    28   13   15 1    
    29   14  138 1    
    30   15   16 1    
    31   15  139 1    
    32   15  140 1    
    33   16   17 1    
    34   17   18 1    
    35   17  141 1    
    36   17  142 1    
    37   18   19 1    
    38   18   67 1    
    39   18  143 1    
    40   19   20 am   BACKBONE|DICT|INTERRES
    41   19  144 1    
    42   20   21 2    
    43   20   22 1    
    44   22   23 1    
    45   22   24 1    
    46   22  145 1    
    47   23  146 1    
    48   23  147 1    
    49   23  148 1    
    50   24   25 am   BACKBONE|DICT|INTERRES
    51   24  149 1    
    52   25   26 2    
    53   25   27 1    
    54   27   28 1    
    55   27   29 1    
    56   27  150 1    
    57   28  151 1    
    58   28  152 1    
    59   28  153 1    
    60   29   30 am   BACKBONE|DICT|INTERRES
    61   29  154 1    
    62   30   31 2    
    63   30   32 1    
    64   32   33 1    
    65   32   34 1    
    66   32  155 1    
    67   33  156 1    
    68   33  157 1    
    69   33  158 1    
    70   34   35 am   BACKBONE|DICT|INTERRES
    71   34  159 1    
    72   35   36 2    
    73   35   37 1    
    74   37   38 1    
    75   37   39 1    
    76   37  160 1    
    77   38  161 1    
    78   38  162 1    
    79   38  163 1    
    80   39   40 am   BACKBONE|DICT|INTERRES
    81   39  164 1    
    82   40   41 2    
    83   40   42 1    
    84   42   43 1    
    85   42   44 1    
    86   42  165 1    
    87   43  166 1    
    88   43  167 1    
    89   43  168 1    
    90   44   45 am   BACKBONE|DICT|INTERRES
    91   44  169 1    
    92   45   46 2    
    93   45   47 1    
    94   47   48 1    
    95   47   49 1    
    96   47  170 1    
    97   48  171 1    
    98   48  172 1    
    99   48  173 1    
   100   49   50 am   BACKBONE|DICT|INTERRES
   101   49  174 1    
   102   50   51 2    
   103   50   52 1    
   104   52   53 1    
   105   52   54 1    
   106   52  175 1    
   107   53  176 1    
   108   53  177 1    
   109   53  178 1    
   110   54   55 am   BACKBONE|DICT|INTERRES
   111   54  179 1    
   112   55   56 2    
   113   55   57 1    
   114   57   58 1    
   115   57   59 1    
   116   57  180 1    
   117   58  181 1    
   118   58  182 1    
   119   58  183 1    
   120   59   60 am   BACKBONE|DICT|INTERRES
   121   59  184 1    
   122   60   61 2    
   123   60   62 1    
   124   62   63 1    
   125   62   64 1    
   126   62  185 1    
   127   63  186 1    
   128   63  187 1    
   129   63  188 1    
   130   64   65 am   BACKBONE|DICT|INTERRES
   131   64  189 1    
   132   65   66 2    
   133   67   68 2    
   134   67   69 am   BACKBONE|DICT|INTERRES
   135   69   70 1    
   136   69  190 1    
   137   70   71 1    
   138   70   72 1    
   139   70  191 1    
   140   71  192 1    
   141   71  193 1    
   142   71  194 1    
   143   72   73 2    
   144   72   74 am   BACKBONE|DICT|INTERRES
   145   74   75 1    
   146   74  195 1    
   147   75   76 1    
   148   75   77 1    
   149   75  196 1    
   150   76  197 1    
   151   76  198 1    
   152   76  199 1    
   153   77   78 2    
   154   77   79 am   BACKBONE|DICT|INTERRES
   155   79   80 1    
   156   79  200 1    
   157   80   81 1    
   158   80   82 1    
   159   80  201 1    
   160   81  202 1    
   161   81  203 1    
   162   81  204 1    
   163   82   83 2    
   164   82   84 am   BACKBONE|DICT|INTERRES
   165   84   85 1    
   166   84  205 1    
   167   85   86 1    
   168   85   87 1    
   169   85  206 1    
   170   86  207 1    
   171   86  208 1    
   172   86  209 1    
   173   87   88 2    
   174   87   89 am   BACKBONE|DICT|INTERRES
   175   89   90 1    
   176   89  210 1    
   177   90   91 1    
   178   90   92 1    
   179   90  211 1    
   180   91  212 1    
   181   91  213 1    
   182   91  214 1    
   183   92   93 2    
   184   92   94 am   BACKBONE|DICT|INTERRES
   185   94   95 1    
   186   94  215 1    
   187   95   96 1    
   188   95   97 1    
   189   95  216 1    
   190   96  217 1    
   191   96  218 1    
   192   96  219 1    
   193   97   98 2    
   194   97   99 am   BACKBONE|DICT|INTERRES
   195   99  100 1    
   196   99  220 1    
   197  100  101 1    
   198  100  102 1    
   199  100  221 1    
   200  101  222 1    
   201  101  223 1    
   202  101  224 1    
   203  102  103 2    
   204  102  104 am   BACKBONE|DICT|INTERRES
   205  104  105 1    
   206  104  225 1    
   207  105  106 1    
   208  105  107 1    
   209  105  226 1    
   210  106  227 1    
   211  106  228 1    
   212  106  229 1    
   213  107  108 2    
   214  107  109 am   BACKBONE|DICT|INTERRES
   215  109  110 1    
   216  109  230 1    
   217  110  111 1    
   218  110  112 1    
   219  110  231 1    
   220  111  232 1    
   221  111  233 1    
   222  111  234 1    
   223  112  113 2    
   224  112  114 am   BACKBONE|DICT|INTERRES
   225  114  115 1    
   226  114  235 1    
   227  115  116 1    
   228  115  117 1    
   229  115  236 1    
   230  116  237 1    
   231  116  238 1    
   232  116  239 1    
   233  117  118 2    
   234  117  119 am   BACKBONE|DICT|INTERRES
   235  119  120 1    
   236  119  240 1    
   237  120  121 1    
   238  120  124 1    
   239  120  241 1    
   240  121  122 am   BACKBONE|DICT|INTERRES
   241  121  123 2    
   242  122  242 1    
   243  122  243 1    
   244  124  125 1    
   245  124  244 1    
   246  124  245 1    
   247  125  126 1    
   248  126  246 1    
   249  126  247 1    
@<TRIPOS>SUBSTRUCTURE
     1 UNK         1 GROUP             0       ****    0 ROOT    
