@<TRIPOS>MOLECULE
3R540
247   249    1
SMALL
USER_CHARGES


@<TRIPOS>ATOM
      1 CA          2.6571  -16.3211  -51.2319 C.3       0 UNK        -0.1800 
      2 C           2.6238  -14.9253  -50.6253 C.2       0 UNK         0.5000 
      3 O           3.5561  -14.1482  -50.8301 O.2       0 UNK        -0.5000 
      4 N           1.5526  -14.6176  -49.8819 N.am      1 UNK        -0.5000 
      5 CA          1.2745  -13.3383  -49.2127 C.3       1 UNK         0.1400 
      6 C6          1.0454  -12.1505  -50.1915 C.3       23 UNK        -0.0398 
      7 S7         -0.1619  -12.4025  -51.5464 S.3       23 UNK        -0.2404 
      8 C8         -1.6241  -13.1650  -50.7576 C.3       23 UNK        -0.0205 
      9 C9         -1.5142  -14.6814  -50.6401 C.ar      23 UNK        -0.0193 
     10 C10        -1.1712  -15.4556  -51.7548 C.ar      23 UNK        -0.1150 
     11 C11        -1.0163  -16.8388  -51.6414 C.ar      23 UNK        -0.0193 
     12 C12        -1.2176  -17.4488  -50.4023 C.ar      23 UNK        -0.1150 
     13 C13        -1.6044  -16.6976  -49.2868 C.ar      23 UNK        -0.0193 
     14 C14        -1.7481  -15.3126  -49.4132 C.ar      23 UNK        -0.1150 
     15 C15        -1.8208  -17.3754  -47.9389 C.3       23 UNK        -0.0205 
     16 S16        -2.8938  -18.8462  -48.0784 S.3       23 UNK        -0.2404 
     17 C17        -2.6346  -19.7373  -46.5041 C.3       23 UNK        -0.0398 
     18 CA         -1.1782  -20.1908  -46.1819 C.3       11 UNK         0.1400 
     19 N          -1.0217  -20.5038  -44.7634 N.am      11 UNK        -0.5000 
     20 C          -1.5990  -21.5043  -44.0855 C.2       10 UNK         0.5000 
     21 O          -2.3492  -22.3430  -44.5869 O.2       10 UNK        -0.5000 
     22 CA         -1.3216  -21.5313  -42.5715 C.3       10 UNK         0.1400 
     23 CB          0.1044  -22.0247  -42.2810 C.3       10 UNK        -0.1800 
     24 N          -1.5217  -20.2162  -41.9582 N.am      10 UNK        -0.5000 
     25 C          -2.7110  -19.6035  -41.8574 C.2       9 UNK         0.5000 
     26 O          -3.7783  -20.1191  -42.1922 O.2       9 UNK        -0.5000 
     27 CA         -2.7124  -18.1684  -41.3023 C.3       9 UNK         0.1400 
     28 CB         -2.6523  -18.1805  -39.7672 C.3       9 UNK        -0.1800 
     29 N          -1.6193  -17.3548  -41.8356 N.am      9 UNK        -0.5000 
     30 C          -1.5227  -16.9473  -43.1099 C.2       8 UNK         0.5000 
     31 O          -2.3757  -17.1726  -43.9676 O.2       8 UNK        -0.5000 
     32 CA         -0.2492  -16.1741  -43.5017 C.3       8 UNK         0.1400 
     33 CB         -0.3862  -14.6854  -43.1531 C.3       8 UNK        -0.1800 
     34 N           0.9567  -16.7115  -42.8727 N.am      8 UNK        -0.5000 
     35 C           1.4602  -17.9302  -43.1113 C.2       7 UNK         0.5000 
     36 O           0.9880  -18.7189  -43.9284 O.2       7 UNK        -0.5000 
     37 CA          2.6663  -18.3593  -42.2612 C.3       7 UNK         0.1400 
     38 CB          3.9717  -17.7920  -42.8347 C.3       7 UNK        -0.1800 
     39 N           2.5215  -17.9506  -40.8649 N.am      7 UNK        -0.5000 
     40 C           1.6279  -18.4752  -40.0149 C.2       6 UNK         0.5000 
     41 O           0.8467  -19.3790  -40.3131 O.2       6 UNK        -0.5000 
     42 CA          1.5732  -17.8521  -38.6085 C.3       6 UNK         0.1400 
     43 CB          2.6758  -18.4350  -37.7120 C.3       6 UNK        -0.1800 
     44 N           1.6890  -16.3926  -38.6375 N.am      6 UNK        -0.5000 
     45 C           0.7668  -15.5759  -39.1658 C.2       5 UNK         0.5000 
     46 O          -0.2838  -15.9681  -39.6699 O.2       5 UNK        -0.5000 
     47 CA          1.0889  -14.0718  -39.1703 C.3       5 UNK         0.1400 
     48 CB          0.6948  -13.4307  -37.8314 C.3       5 UNK        -0.1800 
     49 N           2.4927  -13.7695  -39.4609 N.am      5 UNK        -0.5000 
     50 C           3.1219  -14.0876  -40.5992 C.2       4 UNK         0.5000 
     51 O           2.6171  -14.7590  -41.5019 O.2       4 UNK        -0.5000 
     52 CA          4.5677  -13.5894  -40.7479 C.3       4 UNK         0.1400 
     53 CB          5.5628  -14.7556  -40.6470 C.3       4 UNK        -0.1800 
     54 N           4.7408  -12.9121  -42.0306 N.am      4 UNK        -0.5000 
     55 C           4.2846  -11.6818  -42.3044 C.2       3 UNK         0.5000 
     56 O           3.7333  -10.9575  -41.4743 O.2       3 UNK        -0.5000 
     57 CA          4.4842  -11.1665  -43.7419 C.3       3 UNK         0.1400 
     58 CB          5.7928  -10.3681  -43.8487 C.3       3 UNK        -0.1800 
     59 N           4.4981  -12.2419  -44.7359 N.am      3 UNK        -0.5000 
     60 C           3.4006  -12.8547  -45.1970 C.2       2 UNK         0.5000 
     61 O           2.2546  -12.5820  -44.8332 O.2       2 UNK        -0.5000 
     62 CA          3.6347  -13.9774  -46.2267 C.3       2 UNK         0.1400 
     63 CB          3.6733  -15.3419  -45.5220 C.3       2 UNK        -0.1800 
     64 N           2.6209  -14.0190  -47.2825 N.am      2 UNK        -0.5000 
     65 C           2.3437  -13.0246  -48.1394 C.2       1 UNK         0.5000 
     66 O           2.9162  -11.9324  -48.1284 O.2       1 UNK        -0.5000 
     67 C          -0.6018  -21.2992  -47.1003 C.2       11 UNK         0.5000 
     68 O           0.1629  -22.1553  -46.6452 O.2       11 UNK        -0.5000 
     69 N          -0.9311  -21.2417  -48.3959 N.am      12 UNK        -0.5000 
     70 CA         -0.5148  -22.1877  -49.4270 C.3       12 UNK         0.1400 
     71 CB         -0.6724  -21.5241  -50.8072 C.3       12 UNK        -0.1800 
     72 C          -1.3221  -23.4910  -49.3096 C.2       12 UNK         0.5000 
     73 O          -2.2617  -23.7080  -50.0777 O.2       12 UNK        -0.5000 
     74 N          -0.9700  -24.3198  -48.3190 N.am      13 UNK        -0.5000 
     75 CA         -1.6246  -25.5885  -47.9827 C.3       13 UNK         0.1400 
     76 CB         -0.9417  -26.1958  -46.7492 C.3       13 UNK        -0.1800 
     77 C          -1.6532  -26.6010  -49.1440 C.2       13 UNK         0.5000 
     78 O          -2.6389  -27.3222  -49.2967 O.2       13 UNK        -0.5000 
     79 N          -0.6074  -26.5829  -49.9828 N.am      14 UNK        -0.5000 
     80 CA         -0.5012  -27.3624  -51.2205 C.3       14 UNK         0.1400 
     81 CB          0.9305  -27.2366  -51.7631 C.3       14 UNK        -0.1800 
     82 C          -1.5238  -26.9510  -52.3018 C.2       14 UNK         0.5000 
     83 O          -1.8356  -27.7590  -53.1766 O.2       14 UNK        -0.5000 
     84 N          -2.0403  -25.7189  -52.2074 N.am      15 UNK        -0.5000 
     85 CA         -3.0991  -25.1615  -53.0460 C.3       15 UNK         0.1400 
     86 CB         -2.6461  -23.7810  -53.5525 C.3       15 UNK        -0.1800 
     87 C          -4.4299  -25.0741  -52.2713 C.2       15 UNK         0.5000 
     88 O          -5.2803  -24.2564  -52.6256 O.2       15 UNK        -0.5000 
     89 N          -4.5800  -25.8931  -51.2172 N.am      16 UNK        -0.5000 
     90 CA         -5.7402  -25.9929  -50.3259 C.3       16 UNK         0.1400 
     91 CB         -6.9563  -26.5672  -51.0822 C.3       16 UNK        -0.1800 
     92 C          -6.0393  -24.6708  -49.5892 C.2       16 UNK         0.5000 
     93 O          -7.1870  -24.2284  -49.5470 O.2       16 UNK        -0.5000 
     94 N          -4.9781  -24.0535  -49.0488 N.am      17 UNK        -0.5000 
     95 CA         -4.9502  -22.7367  -48.4000 C.3       17 UNK         0.1400 
     96 CB         -5.8136  -22.7107  -47.1220 C.3       17 UNK        -0.1800 
     97 C          -5.2858  -21.6152  -49.4020 C.2       17 UNK         0.5000 
     98 O          -6.1130  -20.7478  -49.1195 O.2       17 UNK        -0.5000 
     99 N          -4.6409  -21.6969  -50.5756 N.am      18 UNK        -0.5000 
    100 CA        -4.7690  -20.8114  -51.7389 C.3       18 UNK         0.1400 
    101 CB        -4.3184  -19.3769  -51.4007 C.3       18 UNK        -0.1800 
    102 C         -6.1451  -20.8389  -52.4389 C.2       18 UNK         0.5000 
    103 O         -6.3876  -20.0043  -53.3122 O.2       18 UNK        -0.5000 
    104 N         -7.0053  -21.8127  -52.1061 N.am      19 UNK        -0.5000 
    105 CA        -8.3044  -22.0299  -52.7490 C.3       19 UNK         0.1400 
    106 CB        -9.1099  -23.0647  -51.9527 C.3       19 UNK        -0.1800 
    107 C         -8.1788  -22.4541  -54.2250 C.2       19 UNK         0.5000 
    108 O         -9.0406  -22.1031  -55.0309 O.2       19 UNK        -0.5000 
    109 N         -7.0804  -23.1415  -54.5672 N.am      20 UNK        -0.5000 
    110 CA        -6.6871  -23.4944  -55.9330 C.3       20 UNK         0.1400 
    111 CB        -5.9423  -24.8407  -55.9055 C.3       20 UNK        -0.1800 
    112 C         -5.8565  -22.3777  -56.6082 C.2       20 UNK         0.5000 
    113 O         -4.9662  -22.6755  -57.4068 O.2       20 UNK        -0.5000 
    114 N         -6.1400  -21.1119  -56.2617 N.am      21 UNK        -0.5000 
    115 CA        -5.5580  -19.8760  -56.8023 C.3       21 UNK         0.1400 
    116 CB        -6.0478  -19.6484  -58.2474 C.3       21 UNK        -0.1800 
    117 C         -4.0213  -19.8075  -56.6729 C.2       21 UNK         0.5000 
    118 O         -3.3441  -19.3232  -57.5816 O.2       21 UNK        -0.5000 
    119 N         -3.5068  -20.3242  -55.5490 N.am      22 UNK        -0.5000 
    120 CA        -2.0736  -20.4798  -55.2342 C.3       22 UNK         0.1400 
    121 C         -1.3311  -21.5382  -56.1107 C.2       22 UNK         0.5000 
    122 N         -2.0154  -22.3697  -56.8894 N.am      22 UNK        -0.7600 
    123 O         -0.1084  -21.6372  -56.0581 O.2       22 UNK        -0.5000 
    124 C124       -1.3030  -19.1282  -55.1632 C.3       23 UNK        -0.0398 
    125 S125       -2.0249  -17.9654  -53.9540 S.3       23 UNK        -0.2404 
    126 C126       -0.6114  -17.6706  -52.8485 C.3       23 UNK        -0.0205 
    127 H127        1.8707  -16.9579  -50.8263 H         1 UNK         0.0600 
    128 H128        3.6154  -16.7983  -51.0275 H         1 UNK         0.0600 
    129 H129        2.5264  -16.2628  -52.3124 H         1 UNK         0.0600 
    130 H130        0.8145  -15.3030  -49.8006 H         1 UNK         0.3000 
    131 H131        0.3485  -13.4812  -48.6560 H         1 UNK         0.0600 
    132 H132        1.9891  -11.8693  -50.6618 H         1 UNK         0.0800 
    133 H133        0.7220  -11.2713  -49.6318 H         1 UNK         0.0800 
    134 H134       -2.5014  -12.9355  -51.3636 H         1 UNK         0.0800 
    135 H135       -1.7944  -12.7006  -49.7852 H         1 UNK         0.0800 
    136 H136       -1.0046  -14.9785  -52.7104 H         1 UNK         0.1150 
    137 H137       -1.0847  -18.5163  -50.3084 H         1 UNK         0.1150 
    138 H138       -2.0270  -14.7228  -48.5511 H         1 UNK         0.1150 
    139 H139       -0.8379  -17.6382  -47.5546 H         1 UNK         0.0800 
    140 H140       -2.2645  -16.6864  -47.2182 H         1 UNK         0.0800 
    141 H141       -3.3057  -20.5970  -46.4902 H         1 UNK         0.0800 
    142 H142       -2.9946  -19.0794  -45.7123 H         1 UNK         0.0800 
    143 H143       -0.5116  -19.3430  -46.3185 H         1 UNK         0.0600 
    144 H144       -0.3742  -19.8937  -44.2693 H         1 UNK         0.3000 
    145 H145       -2.0231  -22.2315  -42.1133 H         1 UNK         0.0600 
    146 H146        0.2761  -22.1210  -41.2087 H         1 UNK         0.0600 
    147 H147        0.2777  -23.0039  -42.7290 H         1 UNK         0.0600 
    148 H148        0.8571  -21.3429  -42.6785 H         1 UNK         0.0600 
    149 H149       -0.6953  -19.7467  -41.6029 H         1 UNK         0.3000 
    150 H150       -3.6537  -17.7002  -41.5977 H         1 UNK         0.0600 
    151 H151       -3.4569  -18.7863  -39.3485 H         1 UNK         0.0600 
    152 H152       -2.7596  -17.1745  -39.3616 H         1 UNK         0.0600 
    153 H153       -1.7090  -18.5892  -39.4036 H         1 UNK         0.0600 
    154 H154       -0.9128  -17.0552  -41.1705 H         1 UNK         0.3000 
    155 H155       -0.1268  -16.2597  -44.5835 H         1 UNK         0.0600 
    156 H156       -0.5155  -14.5332  -42.0815 H         1 UNK         0.0600 
    157 H157       -1.2474  -14.2437  -43.6556 H         1 UNK         0.0600 
    158 H158        0.4958  -14.1260  -43.4642 H         1 UNK         0.0600 
    159 H159        1.4435  -16.0997  -42.2228 H         1 UNK         0.3000 
    160 H160        2.7273  -19.4493  -42.2930 H         1 UNK         0.0600 
    161 H161        4.8358  -18.1294  -42.2622 H         1 UNK         0.0600 
    162 H162        3.9691  -16.7029  -42.8303 H         1 UNK         0.0600 
    163 H163        4.1171  -18.1150  -43.8663 H         1 UNK         0.0600 
    164 H164        3.0853  -17.1727  -40.5572 H         1 UNK         0.3000 
    165 H165        0.6064  -18.1076  -38.1694 H         1 UNK         0.0600 
    166 H166        2.5944  -18.0582  -36.6923 H         1 UNK         0.0600 
    167 H167        2.6032  -19.5223  -37.6623 H         1 UNK         0.0600 
    168 H168        3.6716  -18.1888  -38.0828 H         1 UNK         0.0600 
    169 H169        2.5267  -15.9879  -38.2463 H         1 UNK         0.3000 
    170 H170        0.4858  -13.6117  -39.9558 H         1 UNK         0.0600 
    171 H171       -0.3532  -13.6251  -37.5991 H         1 UNK         0.0600 
    172 H172        1.2918  -13.8203  -37.0058 H         1 UNK         0.0600 
    173 H173        0.8241  -12.3486  -37.8587 H         1 UNK         0.0600 
    174 H174        2.9830  -13.2200  -38.7700 H         1 UNK         0.3000 
    175 H175        4.7894  -12.8830  -39.9449 H         1 UNK         0.0600 
    176 H176        5.4317  -15.4734  -41.4561 H         1 UNK         0.0600 
    177 H177        6.5916  -14.3969  -40.6847 H         1 UNK         0.0600 
    178 H178        5.4417  -15.2939  -39.7061 H         1 UNK         0.0600 
    179 H179        5.1431  -13.4542  -42.7795 H         1 UNK         0.3000 
    180 H180        3.6569  -10.4903  -43.9689 H         1 UNK         0.0600 
    181 H181        6.6641  -10.9909  -43.6422 H         1 UNK         0.0600 
    182 H182        5.8046   -9.5412  -43.1373 H         1 UNK         0.0600 
    183 H183        5.9134   -9.9399  -44.8440 H         1 UNK         0.0600 
    184 H184        5.4033  -12.5164  -45.0901 H         1 UNK         0.3000 
    185 H185        4.5988  -13.8110  -46.7117 H         1 UNK         0.0600 
    186 H186        2.7318  -15.5591  -45.0154 H         1 UNK         0.0600 
    187 H187        4.4638  -15.3669  -44.7714 H         1 UNK         0.0600 
    188 H188        3.8716  -16.1498  -46.2266 H         1 UNK         0.0600 
    189 H189        2.1045  -14.8809  -47.3699 H         1 UNK         0.3000 
    190 H190       -1.5710  -20.5136  -48.6871 H         1 UNK         0.3000 
    191 H191        0.5412  -22.4296  -49.2899 H         1 UNK         0.0600 
    192 H192       -0.3900  -22.2114  -51.6056 H         1 UNK         0.0600 
    193 H193       -0.0303  -20.6481  -50.8959 H         1 UNK         0.0600 
    194 H194       -1.6987  -21.2080  -50.9931 H         1 UNK         0.0600 
    195 H195       -0.2450  -24.0042  -47.6847 H         1 UNK         0.3000 
    196 H196       -2.6595  -25.3634  -47.7184 H         1 UNK         0.0600 
    197 H197       -1.4221  -27.1303  -46.4559 H         1 UNK         0.0600 
    198 H198       -0.9994  -25.5199  -45.8954 H         1 UNK         0.0600 
    199 H199        0.1109  -26.4110  -46.9367 H         1 UNK         0.0600 
    200 H200        0.1557  -25.9545  -49.7780 H         1 UNK         0.3000 
    201 H201       -0.6863  -28.4105  -50.9763 H         1 UNK         0.0600 
    202 H202        1.1781  -26.2032  -52.0088 H         1 UNK         0.0600 
    203 H203        1.0586  -27.8294  -52.6698 H         1 UNK         0.0600 
    204 H204        1.6609  -27.5947  -51.0373 H         1 UNK         0.0600 
    205 H205       -1.7662  -25.1343  -51.4261 H         1 UNK         0.3000 
    206 H206       -3.2757  -25.8012  -53.9124 H         1 UNK         0.0600 
    207 H207       -1.7058  -23.8563  -54.0984 H         1 UNK         0.0600 
    208 H208       -3.3791  -23.3449  -54.2317 H         1 UNK         0.0600 
    209 H209       -2.4992  -23.0806  -52.7312 H         1 UNK         0.0600 
    210 H210       -3.8071  -26.5021  -50.9791 H         1 UNK         0.3000 
    211 H211       -5.4712  -26.7116  -49.5505 H         1 UNK         0.0600 
    212 H212       -6.7277  -27.5470  -51.5012 H         1 UNK         0.0600 
    213 H213       -7.2688  -25.9221  -51.9025 H         1 UNK         0.0600 
    214 H214       -7.8115  -26.6921  -50.4170 H         1 UNK         0.0600 
    215 H215       -4.0670  -24.4509  -49.2389 H         1 UNK         0.3000 
    216 H216       -3.9187  -22.5669  -48.0895 H         1 UNK         0.0600 
    217 H217       -5.6828  -21.7701  -46.5858 H         1 UNK         0.0600 
    218 H218       -5.5315  -23.5133  -46.4407 H         1 UNK         0.0600 
    219 H219       -6.8764  -22.8130  -47.3420 H         1 UNK         0.0600 
    220 H220       -3.9995  -22.4726  -50.6906 H         1 UNK         0.3000 
    221 H221       -4.0681  -21.1989  -52.4781 H         1 UNK         0.0600 
    222 H222       -4.9491  -18.9157  -50.6411 H         1 UNK         0.0600 
    223 H223       -3.2925  -19.3656  -51.0381 H         1 UNK         0.0600 
    224 H224       -4.3515  -18.7320  -52.2786 H         1 UNK         0.0600 
    225 H225       -6.7221  -22.4919  -51.4128 H         1 UNK         0.3000 
    226 H226       -8.8503  -21.0845  -52.7233 H         1 UNK         0.0600 
    227 H227      -10.1024  -23.2031  -52.3830 H         1 UNK         0.0600 
    228 H228       -8.6170  -24.0360  -51.9460 H         1 UNK         0.0600 
    229 H229       -9.2441  -22.7496  -50.9177 H         1 UNK         0.0600 
    230 H230       -6.4310  -23.4104  -53.8303 H         1 UNK         0.3000 
    231 H231       -7.5851  -23.6299  -56.5389 H         1 UNK         0.0600 
    232 H232       -6.5219  -25.6039  -55.3857 H         1 UNK         0.0600 
    233 H233       -4.9776  -24.7550  -55.4078 H         1 UNK         0.0600 
    234 H234       -5.7572  -25.2066  -56.9160 H         1 UNK         0.0600 
    235 H235       -6.8532  -20.9737  -55.5582 H         1 UNK         0.3000 
    236 H236       -5.9475  -19.0620  -56.1890 H         1 UNK         0.0600 
    237 H237       -7.1361  -19.6741  -58.3031 H         1 UNK         0.0600 
    238 H238       -5.7288  -18.6750  -58.6219 H         1 UNK         0.0600 
    239 H239       -5.6591  -20.4059  -58.9288 H         1 UNK         0.0600 
    240 H240       -4.1548  -20.6947  -54.8715 H         1 UNK         0.3000 
    241 H241       -2.0498  -20.9044  -54.2303 H         1 UNK         0.0600 
    242 H242       -3.0244  -22.3141  -56.9746 H         1 UNK         0.3800 
    243 H243       -1.5129  -23.0501  -57.4362 H         1 UNK         0.3800 
    244 H244       -0.2591  -19.3013  -54.8978 H         1 UNK         0.0800 
    245 H245       -1.2797  -18.6420  -56.1389 H         1 UNK         0.0800 
    246 H246       -0.1971  -18.6271  -52.5260 H         1 UNK         0.0800 
    247 H247        0.1793  -17.1588  -53.3991 H         1 UNK         0.0800 
@<TRIPOS>BOND
     1    1    2 1    
     2    1  127 1    
     3    1  128 1    
     4    1  129 1    
     5    2    3 2    
     6    2    4 am   BACKBONE|DICT|INTERRES
     7    4    5 1    
     8    4  130 1    
     9    5    6 1    
    10    5   65 1    
    11    5  131 1    
    12    6    7 1    
    13    6  132 1    
    14    6  133 1    
    15    7    8 1    
    16    8    9 1    
    17    8  134 1    
    18    8  135 1    
    19    9   10 ar   
    20    9   14 ar   
    21   10   11 ar   
    22   10  136 1    
    23   11   12 ar   
    24   11  126 1    
    25   12   13 ar   
    26   12  137 1    
    27   13   14 ar   
    28   13   15 1    
    29   14  138 1    
    30   15   16 1    
    31   15  139 1    
    32   15  140 1    
    33   16   17 1    
    34   17   18 1    
    35   17  141 1    
    36   17  142 1    
    37   18   19 1    
    38   18   67 1    
    39   18  143 1    
    40   19   20 am   BACKBONE|DICT|INTERRES
    41   19  144 1    
    42   20   21 2    
    43   20   22 1    
    44   22   23 1    
    45   22   24 1    
    46   22  145 1    
    47   23  146 1    
    48   23  147 1    
    49   23  148 1    
    50   24   25 am   BACKBONE|DICT|INTERRES
    51   24  149 1    
    52   25   26 2    
    53   25   27 1    
    54   27   28 1    
    55   27   29 1    
    56   27  150 1    
    57   28  151 1    
    58   28  152 1    
    59   28  153 1    
    60   29   30 am   BACKBONE|DICT|INTERRES
    61   29  154 1    
    62   30   31 2    
    63   30   32 1    
    64   32   33 1    
    65   32   34 1    
    66   32  155 1    
    67   33  156 1    
    68   33  157 1    
    69   33  158 1    
    70   34   35 am   BACKBONE|DICT|INTERRES
    71   34  159 1    
    72   35   36 2    
    73   35   37 1    
    74   37   38 1    
    75   37   39 1    
    76   37  160 1    
    77   38  161 1    
    78   38  162 1    
    79   38  163 1    
    80   39   40 am   BACKBONE|DICT|INTERRES
    81   39  164 1    
    82   40   41 2    
    83   40   42 1    
    84   42   43 1    
    85   42   44 1    
    86   42  165 1    
    87   43  166 1    
    88   43  167 1    
    89   43  168 1    
    90   44   45 am   BACKBONE|DICT|INTERRES
    91   44  169 1    
    92   45   46 2    
    93   45   47 1    
    94   47   48 1    
    95   47   49 1    
    96   47  170 1    
    97   48  171 1    
    98   48  172 1    
    99   48  173 1    
   100   49   50 am   BACKBONE|DICT|INTERRES
   101   49  174 1    
   102   50   51 2    
   103   50   52 1    
   104   52   53 1    
   105   52   54 1    
   106   52  175 1    
   107   53  176 1    
   108   53  177 1    
   109   53  178 1    
   110   54   55 am   BACKBONE|DICT|INTERRES
   111   54  179 1    
   112   55   56 2    
   113   55   57 1    
   114   57   58 1    
   115   57   59 1    
   116   57  180 1    
   117   58  181 1    
   118   58  182 1    
   119   58  183 1    
   120   59   60 am   BACKBONE|DICT|INTERRES
   121   59  184 1    
   122   60   61 2    
   123   60   62 1    
   124   62   63 1    
   125   62   64 1    
   126   62  185 1    
   127   63  186 1    
   128   63  187 1    
   129   63  188 1    
   130   64   65 am   BACKBONE|DICT|INTERRES
   131   64  189 1    
   132   65   66 2    
   133   67   68 2    
   134   67   69 am   BACKBONE|DICT|INTERRES
   135   69   70 1    
   136   69  190 1    
   137   70   71 1    
   138   70   72 1    
   139   70  191 1    
   140   71  192 1    
   141   71  193 1    
   142   71  194 1    
   143   72   73 2    
   144   72   74 am   BACKBONE|DICT|INTERRES
   145   74   75 1    
   146   74  195 1    
   147   75   76 1    
   148   75   77 1    
   149   75  196 1    
   150   76  197 1    
   151   76  198 1    
   152   76  199 1    
   153   77   78 2    
   154   77   79 am   BACKBONE|DICT|INTERRES
   155   79   80 1    
   156   79  200 1    
   157   80   81 1    
   158   80   82 1    
   159   80  201 1    
   160   81  202 1    
   161   81  203 1    
   162   81  204 1    
   163   82   83 2    
   164   82   84 am   BACKBONE|DICT|INTERRES
   165   84   85 1    
   166   84  205 1    
   167   85   86 1    
   168   85   87 1    
   169   85  206 1    
   170   86  207 1    
   171   86  208 1    
   172   86  209 1    
   173   87   88 2    
   174   87   89 am   BACKBONE|DICT|INTERRES
   175   89   90 1    
   176   89  210 1    
   177   90   91 1    
   178   90   92 1    
   179   90  211 1    
   180   91  212 1    
   181   91  213 1    
   182   91  214 1    
   183   92   93 2    
   184   92   94 am   BACKBONE|DICT|INTERRES
   185   94   95 1    
   186   94  215 1    
   187   95   96 1    
   188   95   97 1    
   189   95  216 1    
   190   96  217 1    
   191   96  218 1    
   192   96  219 1    
   193   97   98 2    
   194   97   99 am   BACKBONE|DICT|INTERRES
   195   99  100 1    
   196   99  220 1    
   197  100  101 1    
   198  100  102 1    
   199  100  221 1    
   200  101  222 1    
   201  101  223 1    
   202  101  224 1    
   203  102  103 2    
   204  102  104 am   BACKBONE|DICT|INTERRES
   205  104  105 1    
   206  104  225 1    
   207  105  106 1    
   208  105  107 1    
   209  105  226 1    
   210  106  227 1    
   211  106  228 1    
   212  106  229 1    
   213  107  108 2    
   214  107  109 am   BACKBONE|DICT|INTERRES
   215  109  110 1    
   216  109  230 1    
   217  110  111 1    
   218  110  112 1    
   219  110  231 1    
   220  111  232 1    
   221  111  233 1    
   222  111  234 1    
   223  112  113 2    
   224  112  114 am   BACKBONE|DICT|INTERRES
   225  114  115 1    
   226  114  235 1    
   227  115  116 1    
   228  115  117 1    
   229  115  236 1    
   230  116  237 1    
   231  116  238 1    
   232  116  239 1    
   233  117  118 2    
   234  117  119 am   BACKBONE|DICT|INTERRES
   235  119  120 1    
   236  119  240 1    
   237  120  121 1    
   238  120  124 1    
   239  120  241 1    
   240  121  122 am   BACKBONE|DICT|INTERRES
   241  121  123 2    
   242  122  242 1    
   243  122  243 1    
   244  124  125 1    
   245  124  244 1    
   246  124  245 1    
   247  125  126 1    
   248  126  246 1    
   249  126  247 1    
@<TRIPOS>SUBSTRUCTURE
     1 UNK         1 GROUP             0       ****    0 ROOT    
