@<TRIPOS>MOLECULE
3R540
247   249    1
SMALL
USER_CHARGES


@<TRIPOS>ATOM
      1 CA          2.8597  -10.5296  -50.0338 C.3       0 UNK        -0.1800 
      2 C           2.9451  -11.1825  -48.6621 C.2       0 UNK         0.5000 
      3 O           3.1862  -10.4966  -47.6682 O.2       0 UNK        -0.5000 
      4 N           2.7282  -12.5035  -48.5963 N.am      1 UNK        -0.5000 
      5 CA          2.7873  -13.3097  -47.3683 C.3       1 UNK         0.1400 
      6 C6          2.8358  -14.8289  -47.6578 C.3       23 UNK        -0.0398 
      7 S7          1.3911  -15.4549  -48.5823 S.3       23 UNK        -0.2404 
      8 C8          2.2026  -16.3501  -49.9358 C.3       23 UNK        -0.0205 
      9 C9          1.1965  -17.1957  -50.6949 C.ar      23 UNK        -0.0193 
     10 C10         0.5982  -16.7138  -51.8603 C.ar      23 UNK        -0.1150 
     11 C11        -0.3239  -17.4977  -52.5591 C.ar      23 UNK        -0.0193 
     12 C12        -0.6381  -18.7768  -52.0869 C.ar      23 UNK        -0.1150 
     13 C13        -0.0442  -19.2739  -50.9207 C.ar      23 UNK        -0.0193 
     14 C14         0.8645  -18.4677  -50.2258 C.ar      23 UNK        -0.1150 
     15 C15        -0.4071  -20.6701  -50.4199 C.3       23 UNK        -0.0205 
     16 S16         1.0363  -21.6394  -49.8548 S.3       23 UNK        -0.2404 
     17 C17         1.0311  -21.2808  -48.0589 C.3       23 UNK        -0.0398 
     18 CA          0.6169  -22.4865  -47.1794 C.3       11 UNK         0.1400 
     19 N           0.7006  -22.1679  -45.7515 N.am      11 UNK        -0.5000 
     20 C           0.5310  -23.0548  -44.7596 C.2       10 UNK         0.5000 
     21 O           0.3500  -24.2587  -44.9381 O.2       10 UNK        -0.5000 
     22 CA          0.5023  -22.4974  -43.3269 C.3       10 UNK         0.1400 
     23 CB          1.9273  -22.2452  -42.8129 C.3       10 UNK        -0.1800 
     24 N          -0.2981  -21.2766  -43.2134 N.am      10 UNK        -0.5000 
     25 C          -1.6144  -21.2078  -43.4635 C.2       9 UNK         0.5000 
     26 O          -2.2998  -22.1783  -43.7808 O.2       9 UNK        -0.5000 
     27 CA         -2.2733  -19.8198  -43.3921 C.3       9 UNK         0.1400 
     28 CB         -2.5525  -19.4208  -41.9357 C.3       9 UNK        -0.1800 
     29 N          -1.4770  -18.7810  -44.0421 N.am      9 UNK        -0.5000 
     30 C          -1.1607  -18.7538  -45.3449 C.2       8 UNK         0.5000 
     31 O          -1.5301  -19.5972  -46.1625 O.2       8 UNK        -0.5000 
     32 CA         -0.2205  -17.6202  -45.7907 C.3       8 UNK         0.1400 
     33 CB         -0.9801  -16.2883  -45.9110 C.3       8 UNK        -0.1800 
     34 N           0.9054  -17.4655  -44.8690 N.am      8 UNK        -0.5000 
     35 C           1.8553  -18.3906  -44.6693 C.2       7 UNK         0.5000 
     36 O           1.9135  -19.4583  -45.2816 O.2       7 UNK        -0.5000 
     37 CA          2.8865  -18.0845  -43.5690 C.3       7 UNK         0.1400 
     38 CB          3.9867  -17.1550  -44.1038 C.3       7 UNK        -0.1800 
     39 N           2.2704  -17.4822  -42.3851 N.am      7 UNK        -0.5000 
     40 C           1.4560  -18.1326  -41.5399 C.2       6 UNK         0.5000 
     41 O           1.1730  -19.3238  -41.6529 O.2       6 UNK        -0.5000 
     42 CA          0.8049  -17.3112  -40.4067 C.3       6 UNK         0.1400 
     43 CB          1.7180  -17.2784  -39.1726 C.3       6 UNK        -0.1800 
     44 N           0.4810  -15.9402  -40.8028 N.am      6 UNK        -0.5000 
     45 C          -0.3235  -15.6126  -41.8216 C.2       5 UNK         0.5000 
     46 O          -0.9941  -16.4374  -42.4419 O.2       5 UNK        -0.5000 
     47 CA         -0.3600  -14.1381  -42.2688 C.3       5 UNK         0.1400 
     48 CB         -1.6597  -13.4740  -41.7905 C.3       5 UNK        -0.1800 
     49 N           0.7754  -13.2873  -41.8854 N.am      5 UNK        -0.5000 
     50 C           2.0842  -13.5354  -42.0531 C.2       4 UNK         0.5000 
     51 O           2.5509  -14.6294  -42.3734 O.2       4 UNK        -0.5000 
     52 CA          3.0045  -12.3154  -41.9095 C.3       4 UNK         0.1400 
     53 CB          4.4990  -12.6614  -42.0403 C.3       4 UNK        -0.1800 
     54 N           2.6291  -11.3798  -42.9630 N.am      4 UNK        -0.5000 
     55 C           2.4750  -10.0574  -42.8276 C.2       3 UNK         0.5000 
     56 O           2.7140   -9.4473  -41.7848 O.2       3 UNK        -0.5000 
     57 CA          1.9539   -9.2793  -44.0562 C.3       3 UNK         0.1400 
     58 CB          3.1116   -8.5600  -44.7645 C.3       3 UNK        -0.1800 
     59 N           1.2554  -10.1230  -45.0301 N.am      3 UNK        -0.5000 
     60 C           0.0720  -10.7209  -44.8199 C.2       2 UNK         0.5000 
     61 O          -0.6077  -10.5403  -43.8097 O.2       2 UNK        -0.5000 
     62 CA         -0.4229  -11.7159  -45.8928 C.3       2 UNK         0.1400 
     63 CB         -1.4988  -11.0667  -46.7755 C.3       2 UNK        -0.1800 
     64 N           0.6404  -12.2434  -46.7527 N.am      2 UNK        -0.5000 
     65 C           1.6927  -12.9624  -46.3351 C.2       1 UNK         0.5000 
     66 O           1.8435  -13.3122  -45.1673 O.2       1 UNK        -0.5000 
     67 C          -0.7775  -23.0356  -47.5485 C.2       11 UNK         0.5000 
     68 O          -0.8644  -24.1078  -48.1484 O.2       11 UNK        -0.5000 
     69 N          -1.8361  -22.3163  -47.1474 N.am      12 UNK        -0.5000 
     70 CA         -3.2275  -22.6965  -47.3895 C.3       12 UNK         0.1400 
     71 CB         -4.1618  -21.5715  -46.9227 C.3       12 UNK        -0.1800 
     72 C          -3.6130  -24.0397  -46.7438 C.2       12 UNK         0.5000 
     73 O          -4.3208  -24.8270  -47.3693 O.2       12 UNK        -0.5000 
     74 N          -3.1161  -24.2961  -45.5264 N.am      13 UNK        -0.5000 
     75 CA         -3.2852  -25.5601  -44.8122 C.3       13 UNK         0.1400 
     76 CB         -2.8315  -25.3948  -43.3539 C.3       13 UNK        -0.1800 
     77 C          -2.5408  -26.7264  -45.4868 C.2       13 UNK         0.5000 
     78 O          -3.1182  -27.8042  -45.6312 O.2       13 UNK        -0.5000 
     79 N          -1.2865  -26.4915  -45.8988 N.am      14 UNK        -0.5000 
     80 CA         -0.4297  -27.4786  -46.5592 C.3       14 UNK         0.1400 
     81 CB          1.0096  -26.9466  -46.6356 C.3       14 UNK        -0.1800 
     82 C          -0.9362  -27.8758  -47.9567 C.2       14 UNK         0.5000 
     83 O          -0.9524  -29.0638  -48.2819 O.2       14 UNK        -0.5000 
     84 N          -1.3538  -26.8808  -48.7499 N.am      15 UNK        -0.5000 
     85 CA         -1.9210  -27.0751  -50.0858 C.3       15 UNK         0.1400 
     86 CB         -1.7899  -25.7640  -50.8742 C.3       15 UNK        -0.1800 
     87 C          -3.3882  -27.5484  -50.0611 C.2       15 UNK         0.5000 
     88 O          -3.8697  -28.0600  -51.0724 O.2       15 UNK        -0.5000 
     89 N          -4.0686  -27.3529  -48.9215 N.am      16 UNK        -0.5000 
     90 CA         -5.4888  -27.6158  -48.6558 C.3       16 UNK         0.1400 
     91 CB         -5.8083  -29.1204  -48.7751 C.3       16 UNK        -0.1800 
     92 C          -6.4443  -26.7278  -49.4855 C.2       16 UNK         0.5000 
     93 O          -7.6091  -27.0842  -49.6731 O.2       16 UNK        -0.5000 
     94 N          -5.9381  -25.5819  -49.9521 N.am      17 UNK        -0.5000 
     95 CA         -6.5974  -24.5815  -50.7818 C.3       17 UNK         0.1400 
     96 CB         -6.9179  -25.1573  -52.1761 C.3       17 UNK        -0.1800 
     97 C          -5.6483  -23.3822  -50.9140 C.2       17 UNK         0.5000 
     98 O          -4.4446  -23.5218  -50.6827 O.2       17 UNK        -0.5000 
     99 N          -6.1885  -22.2296  -51.3241 N.am      18 UNK        -0.5000 
    100 CA        -5.4217  -21.0313  -51.6650 C.3       18 UNK         0.1400 
    101 CB        -6.3549  -19.8104  -51.5999 C.3       18 UNK        -0.1800 
    102 C         -4.7712  -21.2034  -53.0522 C.2       18 UNK         0.5000 
    103 O         -5.3254  -20.7376  -54.0507 O.2       18 UNK        -0.5000 
    104 N         -3.6436  -21.9287  -53.0792 N.am      19 UNK        -0.5000 
    105 CA        -2.8972  -22.3684  -54.2630 C.3       19 UNK         0.1400 
    106 CB        -1.5692  -22.9937  -53.8102 C.3       19 UNK        -0.1800 
    107 C         -2.6319  -21.2571  -55.2957 C.2       19 UNK         0.5000 
    108 O         -2.3284  -20.1274  -54.9132 O.2       19 UNK        -0.5000 
    109 N         -2.7632  -21.6090  -56.5825 N.am      20 UNK        -0.5000 
    110 CA        -2.6904  -20.7165  -57.7481 C.3       20 UNK         0.1400 
    111 CB        -1.2874  -20.0863  -57.8860 C.3       20 UNK        -0.1800 
    112 C         -3.8292  -19.6707  -57.7881 C.2       20 UNK         0.5000 
    113 O         -3.6592  -18.6037  -58.3804 O.2       20 UNK        -0.5000 
    114 N         -4.9734  -20.0134  -57.1730 N.am      21 UNK        -0.5000 
    115 CA        -6.1953  -19.2139  -57.0378 C.3       21 UNK         0.1400 
    116 CB        -6.8761  -19.0169  -58.4089 C.3       21 UNK        -0.1800 
    117 C         -5.9500  -17.8923  -56.2813 C.2       21 UNK         0.5000 
    118 O         -6.3264  -16.8202  -56.7596 O.2       21 UNK        -0.5000 
    119 N         -5.3060  -17.9998  -55.1120 N.am      22 UNK        -0.5000 
    120 CA        -4.9534  -16.8616  -54.2449 C.3       22 UNK         0.1400 
    121 C         -6.1447  -16.2429  -53.4516 C.2       22 UNK         0.5000 
    122 N         -7.3283  -16.8445  -53.4461 N.am      22 UNK        -0.7600 
    123 O         -5.9955  -15.1922  -52.8343 O.2       22 UNK        -0.5000 
    124 C124       -3.7476  -17.1906  -53.3152 C.3       23 UNK        -0.0398 
    125 S125       -2.4277  -15.9351  -53.4419 S.3       23 UNK        -0.2404 
    126 C126       -0.9671  -16.9520  -53.8251 C.3       23 UNK        -0.0205 
    127 H127        3.8082  -10.0528  -50.2811 H         1 UNK         0.0600 
    128 H128        2.0818   -9.7662  -50.0378 H         1 UNK         0.0600 
    129 H129        2.6295  -11.2550  -50.8146 H         1 UNK         0.0600 
    130 H130        2.5075  -13.0144  -49.4395 H         1 UNK         0.3000 
    131 H131        3.7317  -13.0571  -46.8810 H         1 UNK         0.0600 
    132 H132        3.7473  -15.0539  -48.2129 H         1 UNK         0.0800 
    133 H133        2.9170  -15.3953  -46.7282 H         1 UNK         0.0800 
    134 H134        2.6914  -15.6401  -50.6048 H         1 UNK         0.0800 
    135 H135        2.9879  -16.9922  -49.5335 H         1 UNK         0.0800 
    136 H136        0.8446  -15.7249  -52.2210 H         1 UNK         0.1150 
    137 H137       -1.3481  -19.3851  -52.6286 H         1 UNK         0.1150 
    138 H138        1.3269  -18.8254  -49.3183 H         1 UNK         0.1150 
    139 H139       -1.1471  -20.5863  -49.6228 H         1 UNK         0.0800 
    140 H140       -0.8907  -21.2355  -51.2165 H         1 UNK         0.0800 
    141 H141        0.3908  -20.4230  -47.8514 H         1 UNK         0.0800 
    142 H142        2.0390  -20.9649  -47.7864 H         1 UNK         0.0800 
    143 H143        1.3344  -23.2887  -47.3653 H         1 UNK         0.0600 
    144 H144        0.8773  -21.1974  -45.5123 H         1 UNK         0.3000 
    145 H145        0.0427  -23.2544  -42.6881 H         1 UNK         0.0600 
    146 H146        1.9211  -21.9613  -41.7605 H         1 UNK         0.0600 
    147 H147        2.5401  -23.1431  -42.9020 H         1 UNK         0.0600 
    148 H148        2.4234  -21.4512  -43.3715 H         1 UNK         0.0600 
    149 H149        0.1896  -20.4444  -42.8948 H         1 UNK         0.3000 
    150 H150       -3.2289  -19.8783  -43.9169 H         1 UNK         0.0600 
    151 H151       -3.1816  -20.1624  -41.4419 H         1 UNK         0.0600 
    152 H152       -3.0721  -18.4640  -41.8815 H         1 UNK         0.0600 
    153 H153       -1.6320  -19.3341  -41.3586 H         1 UNK         0.0600 
    154 H154       -1.1596  -18.0170  -43.4503 H         1 UNK         0.3000 
    155 H155        0.1820  -17.8758  -46.7734 H         1 UNK         0.0600 
    156 H156       -1.5035  -16.0285  -44.9912 H         1 UNK         0.0600 
    157 H157       -0.3081  -15.4649  -46.1506 H         1 UNK         0.0600 
    158 H158       -1.7255  -16.3417  -46.7051 H         1 UNK         0.0600 
    159 H159        0.9183  -16.6331  -44.2987 H         1 UNK         0.3000 
    160 H160        3.3506  -19.0272  -43.2720 H         1 UNK         0.0600 
    161 H161        3.5864  -16.1850  -44.4016 H         1 UNK         0.0600 
    162 H162        4.4773  -17.5905  -44.9752 H         1 UNK         0.0600 
    163 H163        4.7545  -16.9804  -43.3500 H         1 UNK         0.0600 
    164 H164        2.4214  -16.4836  -42.2545 H         1 UNK         0.3000 
    165 H165       -0.1276  -17.8067  -40.1303 H         1 UNK         0.0600 
    166 H166        1.2351  -16.7706  -38.3375 H         1 UNK         0.0600 
    167 H167        1.9618  -18.2885  -38.8408 H         1 UNK         0.0600 
    168 H168        2.6576  -16.7650  -39.3813 H         1 UNK         0.0600 
    169 H169        1.0145  -15.2029  -40.3669 H         1 UNK         0.3000 
    170 H170       -0.3735  -14.1527  -43.3603 H         1 UNK         0.0600 
    171 H171       -2.5327  -14.0574  -42.0870 H         1 UNK         0.0600 
    172 H172       -1.6828  -13.3765  -40.7045 H         1 UNK         0.0600 
    173 H173       -1.7786  -12.4794  -42.2201 H         1 UNK         0.0600 
    174 H174        0.5243  -12.3432  -41.6289 H         1 UNK         0.3000 
    175 H175        2.8268  -11.8826  -40.9229 H         1 UNK         0.0600 
    176 H176        4.7267  -13.0987  -43.0135 H         1 UNK         0.0600 
    177 H177        5.1196  -11.7735  -41.9194 H         1 UNK         0.0600 
    178 H178        4.8021  -13.3784  -41.2765 H         1 UNK         0.0600 
    179 H179        2.3661  -11.8178  -43.8404 H         1 UNK         0.3000 
    180 H180        1.2518   -8.5255  -43.6942 H         1 UNK         0.0600 
    181 H181        3.8462   -9.2674  -45.1517 H         1 UNK         0.0600 
    182 H182        3.6314   -7.8869  -44.0815 H         1 UNK         0.0600 
    183 H183        2.7517   -7.9602  -45.6007 H         1 UNK         0.0600 
    184 H184        1.7513  -10.3177  -45.8916 H         1 UNK         0.3000 
    185 H185       -0.8733  -12.5606  -45.3677 H         1 UNK         0.0600 
    186 H186       -2.3243  -10.6878  -46.1714 H         1 UNK         0.0600 
    187 H187       -1.0976  -10.2285  -47.3467 H         1 UNK         0.0600 
    188 H188       -1.9174  -11.7853  -47.4804 H         1 UNK         0.0600 
    189 H189        0.5961  -11.9977  -47.7306 H         1 UNK         0.3000 
    190 H190       -1.6841  -21.4343  -46.6644 H         1 UNK         0.3000 
    191 H191       -3.3452  -22.8060  -48.4678 H         1 UNK         0.0600 
    192 H192       -4.0658  -21.3879  -45.8522 H         1 UNK         0.0600 
    193 H193       -5.2043  -21.8218  -47.1235 H         1 UNK         0.0600 
    194 H194       -3.9449  -20.6385  -47.4432 H         1 UNK         0.0600 
    195 H195       -2.5973  -23.5662  -45.0448 H         1 UNK         0.3000 
    196 H196       -4.3498  -25.8033  -44.8082 H         1 UNK         0.0600 
    197 H197       -2.9551  -26.3246  -42.7974 H         1 UNK         0.0600 
    198 H198       -3.4178  -24.6301  -42.8442 H         1 UNK         0.0600 
    199 H199       -1.7813  -25.1084  -43.2883 H         1 UNK         0.0600 
    200 H200       -0.8680  -25.5841  -45.7133 H         1 UNK         0.3000 
    201 H201       -0.4224  -28.3795  -45.9423 H         1 UNK         0.0600 
    202 H202        1.4139  -26.7627  -45.6401 H         1 UNK         0.0600 
    203 H203        1.0644  -26.0125  -47.1960 H         1 UNK         0.0600 
    204 H204        1.6679  -27.6647  -47.1260 H         1 UNK         0.0600 
    205 H205       -1.2649  -25.9189  -48.4271 H         1 UNK         0.3000 
    206 H206       -1.3413  -27.8401  -50.6065 H         1 UNK         0.0600 
    207 H207       -0.7442  -25.4849  -51.0045 H         1 UNK         0.0600 
    208 H208       -2.2314  -25.8559  -51.8672 H         1 UNK         0.0600 
    209 H209       -2.2904  -24.9410  -50.3647 H         1 UNK         0.0600 
    210 H210       -3.5829  -26.8807  -48.1702 H         1 UNK         0.3000 
    211 H211       -5.6495  -27.3317  -47.6150 H         1 UNK         0.0600 
    212 H212       -5.7527  -29.4676  -49.8070 H         1 UNK         0.0600 
    213 H213       -6.8142  -29.3359  -48.4132 H         1 UNK         0.0600 
    214 H214       -5.1165  -29.7175  -48.1808 H         1 UNK         0.0600 
    215 H215       -4.9873  -25.3350  -49.6996 H         1 UNK         0.3000 
    216 H216       -7.5144  -24.2571  -50.2866 H         1 UNK         0.0600 
    217 H217       -6.0192  -25.5319  -52.6683 H         1 UNK         0.0600 
    218 H218       -7.3561  -24.3990  -52.8261 H         1 UNK         0.0600 
    219 H219       -7.6331  -25.9774  -52.1193 H         1 UNK         0.0600 
    220 H220       -7.1774  -22.1966  -51.5259 H         1 UNK         0.3000 
    221 H221       -4.6286  -20.8846  -50.9281 H         1 UNK         0.0600 
    222 H222       -6.7704  -19.6861  -50.5998 H         1 UNK         0.0600 
    223 H223       -7.1876  -19.8946  -52.2993 H         1 UNK         0.0600 
    224 H224       -5.8142  -18.8958  -51.8398 H         1 UNK         0.0600 
    225 H225       -3.3388  -22.3249  -52.1994 H         1 UNK         0.3000 
    226 H226       -3.4993  -23.1459  -54.7367 H         1 UNK         0.0600 
    227 H227       -1.7314  -23.7952  -53.0907 H         1 UNK         0.0600 
    228 H228       -1.0304  -23.4216  -54.6565 H         1 UNK         0.0600 
    229 H229       -0.9144  -22.2541  -53.3486 H         1 UNK         0.0600 
    230 H230       -2.9987  -22.5690  -56.7940 H         1 UNK         0.3000 
    231 H231       -2.8447  -21.3527  -58.6207 H         1 UNK         0.0600 
    232 H232       -1.0914  -19.3520  -57.1043 H         1 UNK         0.0600 
    233 H233       -1.1820  -19.5753  -58.8436 H         1 UNK         0.0600 
    234 H234       -0.5069  -20.8455  -57.8377 H         1 UNK         0.0600 
    235 H235       -4.9840  -20.8928  -56.6758 H         1 UNK         0.3000 
    236 H236       -6.8759  -19.7978  -56.4162 H         1 UNK         0.0600 
    237 H237       -7.8401  -18.5192  -58.2970 H         1 UNK         0.0600 
    238 H238       -6.2710  -18.4080  -59.0811 H         1 UNK         0.0600 
    239 H239       -7.0607  -19.9734  -58.8979 H         1 UNK         0.0600 
    240 H240       -5.0691  -18.9286  -54.7758 H         1 UNK         0.3000 
    241 H241       -4.6444  -16.0664  -54.9263 H         1 UNK         0.0600 
    242 H242       -8.0921  -16.4307  -52.9349 H         1 UNK         0.3800 
    243 H243       -7.4706  -17.7016  -53.9545 H         1 UNK         0.3800 
    244 H244       -3.3298  -18.1661  -53.5590 H         1 UNK         0.0800 
    245 H245       -4.0421  -17.2688  -52.2672 H         1 UNK         0.0800 
    246 H246       -1.2307  -17.7587  -54.5100 H         1 UNK         0.0800 
    247 H247       -0.2448  -16.3336  -54.3598 H         1 UNK         0.0800 
@<TRIPOS>BOND
     1    1    2 1    
     2    1  127 1    
     3    1  128 1    
     4    1  129 1    
     5    2    3 2    
     6    2    4 am   BACKBONE|DICT|INTERRES
     7    4    5 1    
     8    4  130 1    
     9    5    6 1    
    10    5   65 1    
    11    5  131 1    
    12    6    7 1    
    13    6  132 1    
    14    6  133 1    
    15    7    8 1    
    16    8    9 1    
    17    8  134 1    
    18    8  135 1    
    19    9   10 ar   
    20    9   14 ar   
    21   10   11 ar   
    22   10  136 1    
    23   11   12 ar   
    24   11  126 1    
    25   12   13 ar   
    26   12  137 1    
    27   13   14 ar   
    28   13   15 1    
    29   14  138 1    
    30   15   16 1    
    31   15  139 1    
    32   15  140 1    
    33   16   17 1    
    34   17   18 1    
    35   17  141 1    
    36   17  142 1    
    37   18   19 1    
    38   18   67 1    
    39   18  143 1    
    40   19   20 am   BACKBONE|DICT|INTERRES
    41   19  144 1    
    42   20   21 2    
    43   20   22 1    
    44   22   23 1    
    45   22   24 1    
    46   22  145 1    
    47   23  146 1    
    48   23  147 1    
    49   23  148 1    
    50   24   25 am   BACKBONE|DICT|INTERRES
    51   24  149 1    
    52   25   26 2    
    53   25   27 1    
    54   27   28 1    
    55   27   29 1    
    56   27  150 1    
    57   28  151 1    
    58   28  152 1    
    59   28  153 1    
    60   29   30 am   BACKBONE|DICT|INTERRES
    61   29  154 1    
    62   30   31 2    
    63   30   32 1    
    64   32   33 1    
    65   32   34 1    
    66   32  155 1    
    67   33  156 1    
    68   33  157 1    
    69   33  158 1    
    70   34   35 am   BACKBONE|DICT|INTERRES
    71   34  159 1    
    72   35   36 2    
    73   35   37 1    
    74   37   38 1    
    75   37   39 1    
    76   37  160 1    
    77   38  161 1    
    78   38  162 1    
    79   38  163 1    
    80   39   40 am   BACKBONE|DICT|INTERRES
    81   39  164 1    
    82   40   41 2    
    83   40   42 1    
    84   42   43 1    
    85   42   44 1    
    86   42  165 1    
    87   43  166 1    
    88   43  167 1    
    89   43  168 1    
    90   44   45 am   BACKBONE|DICT|INTERRES
    91   44  169 1    
    92   45   46 2    
    93   45   47 1    
    94   47   48 1    
    95   47   49 1    
    96   47  170 1    
    97   48  171 1    
    98   48  172 1    
    99   48  173 1    
   100   49   50 am   BACKBONE|DICT|INTERRES
   101   49  174 1    
   102   50   51 2    
   103   50   52 1    
   104   52   53 1    
   105   52   54 1    
   106   52  175 1    
   107   53  176 1    
   108   53  177 1    
   109   53  178 1    
   110   54   55 am   BACKBONE|DICT|INTERRES
   111   54  179 1    
   112   55   56 2    
   113   55   57 1    
   114   57   58 1    
   115   57   59 1    
   116   57  180 1    
   117   58  181 1    
   118   58  182 1    
   119   58  183 1    
   120   59   60 am   BACKBONE|DICT|INTERRES
   121   59  184 1    
   122   60   61 2    
   123   60   62 1    
   124   62   63 1    
   125   62   64 1    
   126   62  185 1    
   127   63  186 1    
   128   63  187 1    
   129   63  188 1    
   130   64   65 am   BACKBONE|DICT|INTERRES
   131   64  189 1    
   132   65   66 2    
   133   67   68 2    
   134   67   69 am   BACKBONE|DICT|INTERRES
   135   69   70 1    
   136   69  190 1    
   137   70   71 1    
   138   70   72 1    
   139   70  191 1    
   140   71  192 1    
   141   71  193 1    
   142   71  194 1    
   143   72   73 2    
   144   72   74 am   BACKBONE|DICT|INTERRES
   145   74   75 1    
   146   74  195 1    
   147   75   76 1    
   148   75   77 1    
   149   75  196 1    
   150   76  197 1    
   151   76  198 1    
   152   76  199 1    
   153   77   78 2    
   154   77   79 am   BACKBONE|DICT|INTERRES
   155   79   80 1    
   156   79  200 1    
   157   80   81 1    
   158   80   82 1    
   159   80  201 1    
   160   81  202 1    
   161   81  203 1    
   162   81  204 1    
   163   82   83 2    
   164   82   84 am   BACKBONE|DICT|INTERRES
   165   84   85 1    
   166   84  205 1    
   167   85   86 1    
   168   85   87 1    
   169   85  206 1    
   170   86  207 1    
   171   86  208 1    
   172   86  209 1    
   173   87   88 2    
   174   87   89 am   BACKBONE|DICT|INTERRES
   175   89   90 1    
   176   89  210 1    
   177   90   91 1    
   178   90   92 1    
   179   90  211 1    
   180   91  212 1    
   181   91  213 1    
   182   91  214 1    
   183   92   93 2    
   184   92   94 am   BACKBONE|DICT|INTERRES
   185   94   95 1    
   186   94  215 1    
   187   95   96 1    
   188   95   97 1    
   189   95  216 1    
   190   96  217 1    
   191   96  218 1    
   192   96  219 1    
   193   97   98 2    
   194   97   99 am   BACKBONE|DICT|INTERRES
   195   99  100 1    
   196   99  220 1    
   197  100  101 1    
   198  100  102 1    
   199  100  221 1    
   200  101  222 1    
   201  101  223 1    
   202  101  224 1    
   203  102  103 2    
   204  102  104 am   BACKBONE|DICT|INTERRES
   205  104  105 1    
   206  104  225 1    
   207  105  106 1    
   208  105  107 1    
   209  105  226 1    
   210  106  227 1    
   211  106  228 1    
   212  106  229 1    
   213  107  108 2    
   214  107  109 am   BACKBONE|DICT|INTERRES
   215  109  110 1    
   216  109  230 1    
   217  110  111 1    
   218  110  112 1    
   219  110  231 1    
   220  111  232 1    
   221  111  233 1    
   222  111  234 1    
   223  112  113 2    
   224  112  114 am   BACKBONE|DICT|INTERRES
   225  114  115 1    
   226  114  235 1    
   227  115  116 1    
   228  115  117 1    
   229  115  236 1    
   230  116  237 1    
   231  116  238 1    
   232  116  239 1    
   233  117  118 2    
   234  117  119 am   BACKBONE|DICT|INTERRES
   235  119  120 1    
   236  119  240 1    
   237  120  121 1    
   238  120  124 1    
   239  120  241 1    
   240  121  122 am   BACKBONE|DICT|INTERRES
   241  121  123 2    
   242  122  242 1    
   243  122  243 1    
   244  124  125 1    
   245  124  244 1    
   246  124  245 1    
   247  125  126 1    
   248  126  246 1    
   249  126  247 1    
@<TRIPOS>SUBSTRUCTURE
     1 UNK         1 GROUP             0       ****    0 ROOT    
