@<TRIPOS>MOLECULE
3R540
247   249    1
SMALL
USER_CHARGES


@<TRIPOS>ATOM
      1 CA          3.8547  -10.5415  -48.3151 C.3       0 UNK        -0.1800 
      2 C           3.0034  -11.3021  -47.3101 C.2       0 UNK         0.5000 
      3 O           3.3486  -11.3474  -46.1292 O.2       0 UNK        -0.5000 
      4 N           1.8845  -11.8812  -47.7676 N.am      1 UNK        -0.5000 
      5 CA          0.9528  -12.7076  -46.9837 C.3       1 UNK         0.1400 
      6 C6         -0.1946  -13.2689  -47.8621 C.3       23 UNK        -0.0398 
      7 S7          0.3880  -14.3863  -49.1848 S.3       23 UNK        -0.2404 
      8 C8         -0.7250  -15.8064  -48.9394 C.3       23 UNK        -0.0205 
      9 C9         -0.4674  -16.9230  -49.9371 C.ar      23 UNK        -0.0193 
     10 C10        -1.3494  -17.1370  -51.0000 C.ar      23 UNK        -0.1150 
     11 C11        -1.1324  -18.1814  -51.9036 C.ar      23 UNK        -0.0193 
     12 C12        -0.0218  -19.0137  -51.7395 C.ar      23 UNK        -0.1150 
     13 C13         0.8625  -18.8146  -50.6750 C.ar      23 UNK        -0.0193 
     14 C14         0.6355  -17.7669  -49.7776 C.ar      23 UNK        -0.1150 
     15 C15         2.0639  -19.7310  -50.5006 C.3       23 UNK        -0.0205 
     16 S16         1.5865  -21.3659  -49.8591 S.3       23 UNK        -0.2404 
     17 C17         1.1519  -20.9659  -48.1328 C.3       23 UNK        -0.0398 
     18 CA          0.4585  -22.1457  -47.4113 C.3       11 UNK         0.1400 
     19 N           0.5696  -22.0433  -45.9555 N.am      11 UNK        -0.5000 
     20 C           0.2523  -23.0203  -45.0951 C.2       10 UNK         0.5000 
     21 O          -0.1537  -24.1300  -45.4404 O.2       10 UNK        -0.5000 
     22 CA          0.3661  -22.6890  -43.5960 C.3       10 UNK         0.1400 
     23 CB          1.8291  -22.7372  -43.1310 C.3       10 UNK        -0.1800 
     24 N          -0.2164  -21.3893  -43.2599 N.am      10 UNK        -0.5000 
     25 C          -1.5140  -21.0835  -43.4055 C.2       9 UNK         0.5000 
     26 O          -2.3640  -21.8759  -43.8116 O.2       9 UNK        -0.5000 
     27 CA         -1.9246  -19.6348  -43.0897 C.3       9 UNK         0.1400 
     28 CB         -2.0421  -19.4164  -41.5740 C.3       9 UNK        -0.1800 
     29 N          -1.0045  -18.6507  -43.6592 N.am      9 UNK        -0.5000 
     30 C          -0.7658  -18.5029  -44.9703 C.2       8 UNK         0.5000 
     31 O          -1.3142  -19.1631  -45.8509 O.2       8 UNK        -0.5000 
     32 CA          0.3079  -17.4789  -45.3638 C.3       8 UNK         0.1400 
     33 CB         -0.2275  -16.0501  -45.2034 C.3       8 UNK        -0.1800 
     34 N           1.5374  -17.6318  -44.5904 N.am      8 UNK        -0.5000 
     35 C           2.2900  -18.7398  -44.5468 C.2       7 UNK         0.5000 
     36 O           2.0621  -19.7517  -45.2069 O.2       7 UNK        -0.5000 
     37 CA          3.4656  -18.7347  -43.5580 C.3       7 UNK         0.1400 
     38 CB          4.6889  -18.0362  -44.1680 C.3       7 UNK        -0.1800 
     39 N           3.1044  -18.0936  -42.2940 N.am      7 UNK        -0.5000 
     40 C           2.2417  -18.6097  -41.4069 C.2       6 UNK         0.5000 
     41 O           1.6858  -19.7003  -41.5450 O.2       6 UNK        -0.5000 
     42 CA          1.9185  -17.7366  -40.1810 C.3       6 UNK         0.1400 
     43 CB          3.0268  -17.8491  -39.1235 C.3       6 UNK        -0.1800 
     44 N           1.7223  -16.3292  -40.5353 N.am      6 UNK        -0.5000 
     45 C           0.6854  -15.8750  -41.2527 C.2       5 UNK         0.5000 
     46 O          -0.2236  -16.5957  -41.6652 O.2       5 UNK        -0.5000 
     47 CA          0.6768  -14.3725  -41.5945 C.3       5 UNK         0.1400 
     48 CB          0.0249  -13.5626  -40.4646 C.3       5 UNK        -0.1800 
     49 N           1.9975  -13.8098  -41.8881 N.am      5 UNK        -0.5000 
     50 C           2.8170  -14.2145  -42.8673 C.2       4 UNK         0.5000 
     51 O           2.5999  -15.2013  -43.5709 O.2       4 UNK        -0.5000 
     52 CA          4.0759  -13.3572  -43.1008 C.3       4 UNK         0.1400 
     53 CB          4.9390  -13.8702  -44.2670 C.3       4 UNK        -0.1800 
     54 N           3.7156  -11.9673  -43.3709 N.am      4 UNK        -0.5000 
     55 C           3.4900  -11.0276  -42.4449 C.2       3 UNK         0.5000 
     56 O           3.5328  -11.2415  -41.2327 O.2       3 UNK        -0.5000 
     57 CA          3.1189   -9.6317  -42.9651 C.3       3 UNK         0.1400 
     58 CB          4.3285   -8.9471  -43.6223 C.3       3 UNK        -0.1800 
     59 N           2.0263   -9.7211  -43.9309 N.am      3 UNK        -0.5000 
     60 C           0.7271   -9.6321  -43.6159 C.2       2 UNK         0.5000 
     61 O           0.3119   -9.4208  -42.4759 O.2       2 UNK        -0.5000 
     62 CA         -0.2857   -9.7987  -44.7660 C.3       2 UNK         0.1400 
     63 CB         -0.6697   -8.4287  -45.3456 C.3       2 UNK        -0.1800 
     64 N           0.2062  -10.6517  -45.8487 N.am      2 UNK        -0.5000 
     65 C           0.3572  -11.9804  -45.7567 C.2       1 UNK         0.5000 
     66 O           0.0528  -12.6302  -44.7571 O.2       1 UNK        -0.5000 
     67 C          -1.0058  -22.3206  -47.8622 C.2       11 UNK         0.5000 
     68 O          -1.2819  -23.1964  -48.6805 O.2       11 UNK        -0.5000 
     69 N          -1.9267  -21.5329  -47.2866 N.am      12 UNK        -0.5000 
     70 CA         -3.3631  -21.6228  -47.5485 C.3       12 UNK         0.1400 
     71 CB         -4.0992  -20.4599  -46.8696 C.3       12 UNK        -0.1800 
     72 C          -3.9675  -22.9724  -47.1257 C.2       12 UNK         0.5000 
     73 O          -4.8064  -23.5059  -47.8531 O.2       12 UNK        -0.5000 
     74 N          -3.5128  -23.5143  -45.9874 N.am      13 UNK        -0.5000 
     75 CA         -3.8746  -24.8464  -45.5059 C.3       13 UNK         0.1400 
     76 CB         -3.3799  -25.0351  -44.0641 C.3       13 UNK        -0.1800 
     77 C          -3.3435  -25.9607  -46.4250 C.2       13 UNK         0.5000 
     78 O          -4.1082  -26.8537  -46.7895 O.2       13 UNK        -0.5000 
     79 N          -2.0655  -25.8662  -46.8216 N.am      14 UNK        -0.5000 
     80 CA         -1.4031  -26.7969  -47.7418 C.3       14 UNK         0.1400 
     81 CB          0.0958  -26.4684  -47.8123 C.3       14 UNK        -0.1800 
     82 C          -2.0250  -26.8055  -49.1521 C.2       14 UNK         0.5000 
     83 O          -2.1321  -27.8679  -49.7652 O.2       14 UNK        -0.5000 
     84 N          -2.4580  -25.6284  -49.6210 N.am      15 UNK        -0.5000 
     85 CA         -3.1826  -25.4260  -50.8766 C.3       15 UNK         0.1400 
     86 CB         -3.1256  -23.9333  -51.2342 C.3       15 UNK        -0.1800 
     87 C          -4.6450  -25.9227  -50.8437 C.2       15 UNK         0.5000 
     88 O          -5.2643  -26.0047  -51.9039 O.2       15 UNK        -0.5000 
     89 N          -5.1558  -26.2562  -49.6478 N.am      16 UNK        -0.5000 
     90 CA         -6.5196  -26.6896  -49.3364 C.3       16 UNK         0.1400 
     91 CB         -6.9042  -27.9751  -50.1000 C.3       16 UNK        -0.1800 
     92 C          -7.5284  -25.5390  -49.5107 C.2       16 UNK         0.5000 
     93 O          -8.3797  -25.5804  -50.4005 O.2       16 UNK        -0.5000 
     94 N          -7.3960  -24.5389  -48.6283 N.am      17 UNK        -0.5000 
     95 CA         -8.1735  -23.2994  -48.5376 C.3       17 UNK         0.1400 
     96 CB         -9.6887  -23.5668  -48.4056 C.3       17 UNK        -0.1800 
     97 C          -7.8066  -22.3102  -49.6590 C.2       17 UNK         0.5000 
     98 O          -8.6877  -21.7753  -50.3352 O.2       17 UNK        -0.5000 
     99 N          -6.4943  -22.0769  -49.8029 N.am      18 UNK        -0.5000 
    100 CA        -5.8545  -21.1776  -50.7681 C.3       18 UNK         0.1400 
    101 CB        -6.2237  -19.7051  -50.4791 C.3       18 UNK        -0.1800 
    102 C         -6.0809  -21.6164  -52.2315 C.2       18 UNK         0.5000 
    103 O         -6.1858  -22.8157  -52.4906 O.2       18 UNK        -0.5000 
    104 N         -6.0942  -20.6507  -53.1632 N.am      19 UNK        -0.5000 
    105 CA        -6.0592  -20.8394  -54.6178 C.3       19 UNK         0.1400 
    106 CB        -7.3469  -21.5205  -55.1346 C.3       19 UNK        -0.1800 
    107 C         -4.7451  -21.5334  -55.0338 C.2       19 UNK         0.5000 
    108 O         -3.6806  -21.0311  -54.6672 O.2       19 UNK        -0.5000 
    109 N         -4.8257  -22.6488  -55.7754 N.am      20 UNK        -0.5000 
    110 CA        -3.7099  -23.4747  -56.2523 C.3       20 UNK         0.1400 
    111 CB        -3.0555  -24.2291  -55.0725 C.3       20 UNK        -0.1800 
    112 C         -2.7166  -22.6438  -57.0897 C.2       20 UNK         0.5000 
    113 O         -3.0488  -22.2713  -58.2162 O.2       20 UNK        -0.5000 
    114 N         -1.5539  -22.3120  -56.5109 N.am      21 UNK        -0.5000 
    115 CA        -0.5371  -21.4229  -57.0798 C.3       21 UNK         0.1400 
    116 CB         0.6659  -21.3708  -56.1252 C.3       21 UNK        -0.1800 
    117 C         -1.0483  -19.9967  -57.3742 C.2       21 UNK         0.5000 
    118 O         -0.5403  -19.3532  -58.2935 O.2       21 UNK        -0.5000 
    119 N         -2.0532  -19.5447  -56.6136 N.am      22 UNK        -0.5000 
    120 CA        -2.7749  -18.2825  -56.8355 C.3       22 UNK         0.1400 
    121 C         -3.9634  -18.4090  -57.8364 C.2       22 UNK         0.5000 
    122 N         -4.2522  -19.5727  -58.4087 N.am      22 UNK        -0.7600 
    123 O         -4.6391  -17.4216  -58.1122 O.2       22 UNK        -0.5000 
    124 C124       -3.2348  -17.6413  -55.5009 C.3       23 UNK        -0.0398 
    125 S125       -1.8422  -17.2297  -54.3952 S.3       23 UNK        -0.2404 
    126 C126       -2.1085  -18.4165  -53.0442 C.3       23 UNK        -0.0205 
    127 H127        3.9444   -9.4974  -48.0152 H         1 UNK         0.0600 
    128 H128        3.4260  -10.5735  -49.3171 H         1 UNK         0.0600 
    129 H129        4.8551  -10.9720  -48.3584 H         1 UNK         0.0600 
    130 H130        1.6668  -11.8103  -48.7516 H         1 UNK         0.3000 
    131 H131        1.5348  -13.5460  -46.5966 H         1 UNK         0.0600 
    132 H132       -0.9151  -13.8069  -47.2432 H         1 UNK         0.0800 
    133 H133       -0.7530  -12.4542  -48.3266 H         1 UNK         0.0800 
    134 H134       -0.5930  -16.2022  -47.9360 H         1 UNK         0.0800 
    135 H135       -1.7605  -15.4684  -49.0049 H         1 UNK         0.0800 
    136 H136       -2.2083  -16.4927  -51.1262 H         1 UNK         0.1150 
    137 H137        0.1513  -19.8245  -52.4334 H         1 UNK         0.1150 
    138 H138        1.3152  -17.6067  -48.9524 H         1 UNK         0.1150 
    139 H139        2.5568  -19.8618  -51.4650 H         1 UNK         0.0800 
    140 H140        2.8052  -19.2816  -49.8379 H         1 UNK         0.0800 
    141 H141        0.5371  -20.0656  -48.0894 H         1 UNK         0.0800 
    142 H142        2.0870  -20.7194  -47.6293 H         1 UNK         0.0800 
    143 H143        0.9892  -23.0597  -47.6873 H         1 UNK         0.0600 
    144 H144        0.9339  -21.1657  -45.5908 H         1 UNK         0.3000 
    145 H145       -0.1881  -23.4525  -43.0462 H         1 UNK         0.0600 
    146 H146        1.9055  -22.5779  -42.0553 H         1 UNK         0.0600 
    147 H147        2.2763  -23.7077  -43.3494 H         1 UNK         0.0600 
    148 H148        2.4356  -21.9774  -43.6241 H         1 UNK         0.0600 
    149 H149        0.4160  -20.6858  -42.8937 H         1 UNK         0.3000 
    150 H150       -2.9072  -19.4652  -43.5346 H         1 UNK         0.0600 
    151 H151       -2.7274  -20.1373  -41.1266 H         1 UNK         0.0600 
    152 H152       -2.4246  -18.4207  -41.3490 H         1 UNK         0.0600 
    153 H153       -1.0784  -19.5234  -41.0749 H         1 UNK         0.0600 
    154 H154       -0.5332  -18.0366  -43.0017 H         1 UNK         0.3000 
    155 H155        0.5572  -17.6431  -46.4136 H         1 UNK         0.0600 
    156 H156       -0.4264  -15.8067  -44.1621 H         1 UNK         0.0600 
    157 H157       -1.1634  -15.9101  -45.7445 H         1 UNK         0.0600 
    158 H158        0.4894  -15.3241  -45.5806 H         1 UNK         0.0600 
    159 H159        1.8410  -16.8199  -44.0574 H         1 UNK         0.3000 
    160 H160        3.7357  -19.7719  -43.3485 H         1 UNK         0.0600 
    161 H161        4.4644  -17.0086  -44.4521 H         1 UNK         0.0600 
    162 H162        5.0225  -18.5561  -45.0669 H         1 UNK         0.0600 
    163 H163        5.5267  -18.0201  -43.4709 H         1 UNK         0.0600 
    164 H164        3.4677  -17.1658  -42.1350 H         1 UNK         0.3000 
    165 H165        0.9909  -18.1108  -39.7421 H         1 UNK         0.0600 
    166 H166        2.7671  -17.2962  -38.2206 H         1 UNK         0.0600 
    167 H167        3.1836  -18.8888  -38.8327 H         1 UNK         0.0600 
    168 H168        3.9786  -17.4638  -39.4912 H         1 UNK         0.0600 
    169 H169        2.4279  -15.6728  -40.2353 H         1 UNK         0.3000 
    170 H170        0.0670  -14.2449  -42.4901 H         1 UNK         0.0600 
    171 H171       -0.9724  -13.9415  -40.2370 H         1 UNK         0.0600 
    172 H172        0.6120  -13.6071  -39.5465 H         1 UNK         0.0600 
    173 H173       -0.0830  -12.5142  -40.7444 H         1 UNK         0.0600 
    174 H174        2.2651  -12.9815  -41.3699 H         1 UNK         0.3000 
    175 H175        4.6805  -13.4060  -42.1929 H         1 UNK         0.0600 
    176 H176        4.3747  -13.9109  -45.1999 H         1 UNK         0.0600 
    177 H177        5.8042  -13.2273  -44.4293 H         1 UNK         0.0600 
    178 H178        5.3171  -14.8712  -44.0615 H         1 UNK         0.0600 
    179 H179        3.6098  -11.7210  -44.3531 H         1 UNK         0.3000 
    180 H180        2.8143   -9.0217  -42.1118 H         1 UNK         0.0600 
    181 H181        4.6820   -9.4933  -44.4976 H         1 UNK         0.0600 
    182 H182        5.1619   -8.8731  -42.9225 H         1 UNK         0.0600 
    183 H183        4.0802   -7.9344  -43.9399 H         1 UNK         0.0600 
    184 H184        2.2820   -9.9703  -44.8780 H         1 UNK         0.3000 
    185 H185       -1.1856  -10.2567  -44.3496 H         1 UNK         0.0600 
    186 H186       -1.0662   -7.7734  -44.5689 H         1 UNK         0.0600 
    187 H187        0.1885   -7.9256  -45.7929 H         1 UNK         0.0600 
    188 H188       -1.4398   -8.5257  -46.1111 H         1 UNK         0.0600 
    189 H189        0.4805  -10.1928  -46.7051 H         1 UNK         0.3000 
    190 H190       -1.6295  -20.8049  -46.6400 H         1 UNK         0.3000 
    191 H191       -3.5017  -21.5244  -48.6258 H         1 UNK         0.0600 
    192 H192       -3.7454  -19.4991  -47.2441 H         1 UNK         0.0600 
    193 H193       -5.1717  -20.5087  -47.0626 H         1 UNK         0.0600 
    194 H194       -3.9567  -20.4710  -45.7885 H         1 UNK         0.0600 
    195 H195       -2.8666  -22.9822  -45.4128 H         1 UNK         0.3000 
    196 H196       -4.9645  -24.9144  -45.4976 H         1 UNK         0.0600 
    197 H197       -3.6494  -26.0213  -43.6843 H         1 UNK         0.0600 
    198 H198       -3.8250  -24.2968  -43.3969 H         1 UNK         0.0600 
    199 H199       -2.2966  -24.9390  -43.9908 H         1 UNK         0.0600 
    200 H200       -1.4916  -25.1140  -46.4498 H         1 UNK         0.3000 
    201 H201       -1.5110  -27.8019  -47.3288 H         1 UNK         0.0600 
    202 H202        0.5614  -26.5389  -46.8292 H         1 UNK         0.0600 
    203 H203        0.2691  -25.4614  -48.1926 H         1 UNK         0.0600 
    204 H204        0.6183  -27.1633  -48.4708 H         1 UNK         0.0600 
    205 H205       -2.2439  -24.7893  -49.0875 H         1 UNK         0.3000 
    206 H206       -2.6697  -25.9835  -51.6629 H         1 UNK         0.0600 
    207 H207       -2.0977  -23.5970  -51.3703 H         1 UNK         0.0600 
    208 H208       -3.6599  -23.7287  -52.1616 H         1 UNK         0.0600 
    209 H209       -3.5774  -23.3239  -50.4527 H         1 UNK         0.0600 
    210 H210       -4.5487  -26.1605  -48.8434 H         1 UNK         0.3000 
    211 H211       -6.5184  -26.9438  -48.2753 H         1 UNK         0.0600 
    212 H212       -6.9848  -27.8116  -51.1746 H         1 UNK         0.0600 
    213 H213       -7.8695  -28.3504  -49.7586 H         1 UNK         0.0600 
    214 H214       -6.1712  -28.7647  -49.9346 H         1 UNK         0.0600 
    215 H215       -6.5860  -24.5652  -48.0190 H         1 UNK         0.3000 
    216 H216       -7.8568  -22.8232  -47.6084 H         1 UNK         0.0600 
    217 H217      -10.2238  -22.6452  -48.1743 H         1 UNK         0.0600 
    218 H218       -9.8968  -24.2730  -47.6019 H         1 UNK         0.0600 
    219 H219      -10.1183  -23.9655  -49.3246 H         1 UNK         0.0600 
    220 H220       -5.8643  -22.6194  -49.2200 H         1 UNK         0.3000 
    221 H221       -4.7821  -21.2745  -50.6012 H         1 UNK         0.0600 
    222 H222       -7.2613  -19.4874  -50.7348 H         1 UNK         0.0600 
    223 H223       -6.0860  -19.4682  -49.4239 H         1 UNK         0.0600 
    224 H224       -5.5903  -19.0175  -51.0402 H         1 UNK         0.0600 
    225 H225       -5.9881  -19.6967  -52.8505 H         1 UNK         0.3000 
    226 H226       -6.0226  -19.8411  -55.0560 H         1 UNK         0.0600 
    227 H227       -8.2315  -20.9737  -54.8079 H         1 UNK         0.0600 
    228 H228       -7.3696  -21.5399  -56.2248 H         1 UNK         0.0600 
    229 H229       -7.4476  -22.5470  -54.7813 H         1 UNK         0.0600 
    230 H230       -5.7458  -22.9702  -56.0400 H         1 UNK         0.3000 
    231 H231       -4.1350  -24.2199  -56.9262 H         1 UNK         0.0600 
    232 H232       -2.6305  -23.5527  -54.3307 H         1 UNK         0.0600 
    233 H233       -2.2569  -24.8853  -55.4207 H         1 UNK         0.0600 
    234 H234       -3.7860  -24.8560  -54.5604 H         1 UNK         0.0600 
    235 H235       -1.3917  -22.6289  -55.5663 H         1 UNK         0.3000 
    236 H236       -0.2094  -21.8569  -58.0265 H         1 UNK         0.0600 
    237 H237        1.0900  -22.3627  -55.9685 H         1 UNK         0.0600 
    238 H238        1.4585  -20.7398  -56.5294 H         1 UNK         0.0600 
    239 H239        0.3882  -20.9650  -55.1514 H         1 UNK         0.0600 
    240 H240       -2.4314  -20.1472  -55.8887 H         1 UNK         0.3000 
    241 H241       -2.0872  -17.5751  -57.3025 H         1 UNK         0.0600 
    242 H242       -3.6966  -20.4047  -58.2423 H         1 UNK         0.3800 
    243 H243       -5.0196  -19.6171  -59.0602 H         1 UNK         0.3800 
    244 H244       -3.7715  -16.7100  -55.6899 H         1 UNK         0.0800 
    245 H245       -3.9409  -18.2940  -54.9867 H         1 UNK         0.0800 
    246 H246       -2.0021  -19.4308  -53.4307 H         1 UNK         0.0800 
    247 H247       -3.1302  -18.3302  -52.6718 H         1 UNK         0.0800 
@<TRIPOS>BOND
     1    1    2 1    
     2    1  127 1    
     3    1  128 1    
     4    1  129 1    
     5    2    3 2    
     6    2    4 am   BACKBONE|DICT|INTERRES
     7    4    5 1    
     8    4  130 1    
     9    5    6 1    
    10    5   65 1    
    11    5  131 1    
    12    6    7 1    
    13    6  132 1    
    14    6  133 1    
    15    7    8 1    
    16    8    9 1    
    17    8  134 1    
    18    8  135 1    
    19    9   10 ar   
    20    9   14 ar   
    21   10   11 ar   
    22   10  136 1    
    23   11   12 ar   
    24   11  126 1    
    25   12   13 ar   
    26   12  137 1    
    27   13   14 ar   
    28   13   15 1    
    29   14  138 1    
    30   15   16 1    
    31   15  139 1    
    32   15  140 1    
    33   16   17 1    
    34   17   18 1    
    35   17  141 1    
    36   17  142 1    
    37   18   19 1    
    38   18   67 1    
    39   18  143 1    
    40   19   20 am   BACKBONE|DICT|INTERRES
    41   19  144 1    
    42   20   21 2    
    43   20   22 1    
    44   22   23 1    
    45   22   24 1    
    46   22  145 1    
    47   23  146 1    
    48   23  147 1    
    49   23  148 1    
    50   24   25 am   BACKBONE|DICT|INTERRES
    51   24  149 1    
    52   25   26 2    
    53   25   27 1    
    54   27   28 1    
    55   27   29 1    
    56   27  150 1    
    57   28  151 1    
    58   28  152 1    
    59   28  153 1    
    60   29   30 am   BACKBONE|DICT|INTERRES
    61   29  154 1    
    62   30   31 2    
    63   30   32 1    
    64   32   33 1    
    65   32   34 1    
    66   32  155 1    
    67   33  156 1    
    68   33  157 1    
    69   33  158 1    
    70   34   35 am   BACKBONE|DICT|INTERRES
    71   34  159 1    
    72   35   36 2    
    73   35   37 1    
    74   37   38 1    
    75   37   39 1    
    76   37  160 1    
    77   38  161 1    
    78   38  162 1    
    79   38  163 1    
    80   39   40 am   BACKBONE|DICT|INTERRES
    81   39  164 1    
    82   40   41 2    
    83   40   42 1    
    84   42   43 1    
    85   42   44 1    
    86   42  165 1    
    87   43  166 1    
    88   43  167 1    
    89   43  168 1    
    90   44   45 am   BACKBONE|DICT|INTERRES
    91   44  169 1    
    92   45   46 2    
    93   45   47 1    
    94   47   48 1    
    95   47   49 1    
    96   47  170 1    
    97   48  171 1    
    98   48  172 1    
    99   48  173 1    
   100   49   50 am   BACKBONE|DICT|INTERRES
   101   49  174 1    
   102   50   51 2    
   103   50   52 1    
   104   52   53 1    
   105   52   54 1    
   106   52  175 1    
   107   53  176 1    
   108   53  177 1    
   109   53  178 1    
   110   54   55 am   BACKBONE|DICT|INTERRES
   111   54  179 1    
   112   55   56 2    
   113   55   57 1    
   114   57   58 1    
   115   57   59 1    
   116   57  180 1    
   117   58  181 1    
   118   58  182 1    
   119   58  183 1    
   120   59   60 am   BACKBONE|DICT|INTERRES
   121   59  184 1    
   122   60   61 2    
   123   60   62 1    
   124   62   63 1    
   125   62   64 1    
   126   62  185 1    
   127   63  186 1    
   128   63  187 1    
   129   63  188 1    
   130   64   65 am   BACKBONE|DICT|INTERRES
   131   64  189 1    
   132   65   66 2    
   133   67   68 2    
   134   67   69 am   BACKBONE|DICT|INTERRES
   135   69   70 1    
   136   69  190 1    
   137   70   71 1    
   138   70   72 1    
   139   70  191 1    
   140   71  192 1    
   141   71  193 1    
   142   71  194 1    
   143   72   73 2    
   144   72   74 am   BACKBONE|DICT|INTERRES
   145   74   75 1    
   146   74  195 1    
   147   75   76 1    
   148   75   77 1    
   149   75  196 1    
   150   76  197 1    
   151   76  198 1    
   152   76  199 1    
   153   77   78 2    
   154   77   79 am   BACKBONE|DICT|INTERRES
   155   79   80 1    
   156   79  200 1    
   157   80   81 1    
   158   80   82 1    
   159   80  201 1    
   160   81  202 1    
   161   81  203 1    
   162   81  204 1    
   163   82   83 2    
   164   82   84 am   BACKBONE|DICT|INTERRES
   165   84   85 1    
   166   84  205 1    
   167   85   86 1    
   168   85   87 1    
   169   85  206 1    
   170   86  207 1    
   171   86  208 1    
   172   86  209 1    
   173   87   88 2    
   174   87   89 am   BACKBONE|DICT|INTERRES
   175   89   90 1    
   176   89  210 1    
   177   90   91 1    
   178   90   92 1    
   179   90  211 1    
   180   91  212 1    
   181   91  213 1    
   182   91  214 1    
   183   92   93 2    
   184   92   94 am   BACKBONE|DICT|INTERRES
   185   94   95 1    
   186   94  215 1    
   187   95   96 1    
   188   95   97 1    
   189   95  216 1    
   190   96  217 1    
   191   96  218 1    
   192   96  219 1    
   193   97   98 2    
   194   97   99 am   BACKBONE|DICT|INTERRES
   195   99  100 1    
   196   99  220 1    
   197  100  101 1    
   198  100  102 1    
   199  100  221 1    
   200  101  222 1    
   201  101  223 1    
   202  101  224 1    
   203  102  103 2    
   204  102  104 am   BACKBONE|DICT|INTERRES
   205  104  105 1    
   206  104  225 1    
   207  105  106 1    
   208  105  107 1    
   209  105  226 1    
   210  106  227 1    
   211  106  228 1    
   212  106  229 1    
   213  107  108 2    
   214  107  109 am   BACKBONE|DICT|INTERRES
   215  109  110 1    
   216  109  230 1    
   217  110  111 1    
   218  110  112 1    
   219  110  231 1    
   220  111  232 1    
   221  111  233 1    
   222  111  234 1    
   223  112  113 2    
   224  112  114 am   BACKBONE|DICT|INTERRES
   225  114  115 1    
   226  114  235 1    
   227  115  116 1    
   228  115  117 1    
   229  115  236 1    
   230  116  237 1    
   231  116  238 1    
   232  116  239 1    
   233  117  118 2    
   234  117  119 am   BACKBONE|DICT|INTERRES
   235  119  120 1    
   236  119  240 1    
   237  120  121 1    
   238  120  124 1    
   239  120  241 1    
   240  121  122 am   BACKBONE|DICT|INTERRES
   241  121  123 2    
   242  122  242 1    
   243  122  243 1    
   244  124  125 1    
   245  124  244 1    
   246  124  245 1    
   247  125  126 1    
   248  126  246 1    
   249  126  247 1    
@<TRIPOS>SUBSTRUCTURE
     1 UNK         1 GROUP             0       ****    0 ROOT    
