@<TRIPOS>MOLECULE
3R540
247   249    1
SMALL
USER_CHARGES


@<TRIPOS>ATOM
      1 CA          4.1625  -13.1332  -41.1976 C.3       0 UNK        -0.1800 
      2 C           3.2797  -13.3341  -42.4209 C.2       0 UNK         0.5000 
      3 O           2.1710  -12.8024  -42.4681 O.2       0 UNK        -0.5000 
      4 N           3.7674  -14.1014  -43.4055 N.am      1 UNK        -0.5000 
      5 CA          3.0627  -14.4058  -44.6580 C.3       1 UNK         0.1400 
      6 C6          3.7033  -15.6127  -45.3878 C.3       23 UNK        -0.0398 
      7 S7          2.4872  -16.6055  -46.3117 S.3       23 UNK        -0.2404 
      8 C8          2.8428  -16.1284  -48.0279 C.3       23 UNK        -0.0205 
      9 C9          2.1356  -17.0509  -49.0086 C.ar      23 UNK        -0.0193 
     10 C10         1.0452  -16.6001  -49.7588 C.ar      23 UNK        -0.1150 
     11 C11         0.4119  -17.4381  -50.6842 C.ar      23 UNK        -0.0193 
     12 C12         0.8880  -18.7496  -50.8393 C.ar      23 UNK        -0.1150 
     13 C13         1.9708  -19.2164  -50.0888 C.ar      23 UNK        -0.0193 
     14 C14         2.5903  -18.3607  -49.1764 C.ar      23 UNK        -0.1150 
     15 C15         2.4947  -20.6338  -50.2848 C.3       23 UNK        -0.0205 
     16 S16         1.2594  -21.9099  -49.8837 S.3       23 UNK        -0.2404 
     17 C17         0.9318  -21.5680  -48.1271 C.3       23 UNK        -0.0398 
     18 CA          0.2561  -22.7411  -47.3747 C.3       11 UNK         0.1400 
     19 N           0.3652  -22.5384  -45.9302 N.am      11 UNK        -0.5000 
     20 C           0.1550  -23.4585  -44.9809 C.2       10 UNK         0.5000 
     21 O          -0.2103  -24.6072  -45.2269 O.2       10 UNK        -0.5000 
     22 CA          0.3378  -23.0004  -43.5164 C.3       10 UNK         0.1400 
     23 CB          0.8552  -24.1281  -42.6001 C.3       10 UNK        -0.1800 
     24 N           1.1569  -21.7874  -43.3922 N.am      10 UNK        -0.5000 
     25 C           2.4534  -21.6373  -43.7098 C.2       9 UNK         0.5000 
     26 O           3.1897  -22.5666  -44.0416 O.2       9 UNK        -0.5000 
     27 CA          3.0149  -20.2016  -43.7133 C.3       9 UNK         0.1400 
     28 CB          3.4823  -19.8156  -45.1265 C.3       9 UNK        -0.1800 
     29 N           2.0336  -19.2125  -43.2608 N.am      9 UNK        -0.5000 
     30 C           1.8783  -18.8173  -41.9903 C.2       8 UNK         0.5000 
     31 O           2.5930  -19.1965  -41.0623 O.2       8 UNK        -0.5000 
     32 CA          0.7074  -17.8582  -41.7031 C.3       8 UNK         0.1400 
     33 CB          1.1697  -16.4011  -41.8263 C.3       8 UNK        -0.1800 
     34 N          -0.4437  -18.0801  -42.5837 N.am      8 UNK        -0.5000 
     35 C          -1.2331  -19.1641  -42.5276 C.2       7 UNK         0.5000 
     36 O          -1.0573  -20.0901  -41.7364 O.2       7 UNK        -0.5000 
     37 CA         -2.3879  -19.2660  -43.5430 C.3       7 UNK         0.1400 
     38 CB         -3.6933  -18.7349  -42.9341 C.3       7 UNK        -0.1800 
     39 N          -2.1322  -18.5698  -44.8027 N.am      7 UNK        -0.5000 
     40 C          -1.1532  -18.8724  -45.6634 C.2       6 UNK         0.5000 
     41 O          -0.3711  -19.8108  -45.5022 O.2       6 UNK        -0.5000 
     42 CA         -1.0307  -17.9877  -46.9152 C.3       6 UNK         0.1400 
     43 CB         -1.8899  -18.5802  -48.0431 C.3       6 UNK        -0.1800 
     44 N          -1.4121  -16.5812  -46.7496 N.am      6 UNK        -0.5000 
     45 C          -1.0669  -15.7121  -45.7895 C.2       5 UNK         0.5000 
     46 O          -0.4428  -16.0197  -44.7723 O.2       5 UNK        -0.5000 
     47 CA         -1.5364  -14.2554  -46.0109 C.3       5 UNK         0.1400 
     48 CB         -1.1116  -13.3073  -44.8753 C.3       5 UNK        -0.1800 
     49 N          -1.1195  -13.6972  -47.3077 N.am      5 UNK        -0.5000 
     50 C          -1.7023  -13.9808  -48.4815 C.2       4 UNK         0.5000 
     51 O          -2.5862  -14.8296  -48.5813 O.2       4 UNK        -0.5000 
     52 CA         -1.2545  -13.2593  -49.7713 C.3       4 UNK         0.1400 
     53 CB         -2.3210  -12.2421  -50.2212 C.3       4 UNK        -0.1800 
     54 N           0.0834  -12.6531  -49.7751 N.am      4 UNK        -0.5000 
     55 C           0.5244  -11.6033  -49.0734 C.2       3 UNK         0.5000 
     56 O          -0.1306  -11.0226  -48.2042 O.2       3 UNK        -0.5000 
     57 CA          1.9381  -11.1087  -49.4124 C.3       3 UNK         0.1400 
     58 CB          1.8894   -9.9038  -50.3647 C.3       3 UNK        -0.1800 
     59 N           2.5578  -10.7146  -48.1588 N.am      3 UNK        -0.5000 
     60 C           3.7509  -11.1271  -47.7238 C.2       2 UNK         0.5000 
     61 O           4.5997  -11.6649  -48.4370 O.2       2 UNK        -0.5000 
     62 CA          4.0172  -10.9787  -46.2110 C.3       2 UNK         0.1400 
     63 CB          3.1020   -9.9487  -45.5116 C.3       2 UNK        -0.1800 
     64 N           3.9287  -12.2660  -45.5106 N.am      2 UNK        -0.5000 
     65 C           2.9416  -13.1777  -45.5841 C.2       1 UNK         0.5000 
     66 O           1.9578  -13.0790  -46.3174 O.2       1 UNK        -0.5000 
     67 C          -1.2144  -22.9573  -47.7955 C.2       11 UNK         0.5000 
     68 O          -1.4878  -23.7651  -48.6853 O.2       11 UNK        -0.5000 
     69 N          -2.1405  -22.2734  -47.1060 N.am      12 UNK        -0.5000 
     70 CA         -3.5842  -22.4642  -47.2522 C.3       12 UNK         0.1400 
     71 CB         -4.3297  -21.2839  -46.6111 C.3       12 UNK        -0.1800 
     72 C          -4.0606  -23.7968  -46.6467 C.2       12 UNK         0.5000 
     73 O          -4.9120  -24.4591  -47.2378 O.2       12 UNK        -0.5000 
     74 N          -3.4872  -24.1757  -45.4949 N.am      13 UNK        -0.5000 
     75 CA         -3.8025  -25.4117  -44.7728 C.3       13 UNK         0.1400 
     76 CB         -3.2162  -25.3405  -43.3546 C.3       13 UNK        -0.1800 
     77 C          -3.3069  -26.6681  -45.5113 C.2       13 UNK         0.5000 
     78 O          -4.0222  -27.6689  -45.5627 O.2       13 UNK        -0.5000 
     79 N          -2.1100  -26.5749  -46.1062 N.am      14 UNK        -0.5000 
     80 CA         -1.5186  -27.5953  -46.9742 C.3       14 UNK         0.1400 
     81 CB         -0.0195  -27.2923  -47.1303 C.3       14 UNK        -0.1800 
     82 C          -2.1869  -27.6793  -48.3622 C.2       14 UNK         0.5000 
     83 O          -1.9482  -28.6466  -49.0853 O.2       14 UNK        -0.5000 
     84 N          -2.9747  -26.6523  -48.7174 N.am      15 UNK        -0.5000 
     85 CA         -3.6474  -26.4207  -50.0010 C.3       15 UNK         0.1400 
     86 CB         -4.6471  -27.5484  -50.3279 C.3       15 UNK        -0.1800 
     87 C          -2.6779  -26.1300  -51.1661 C.2       15 UNK         0.5000 
     88 O          -3.0978  -26.1259  -52.3238 O.2       15 UNK        -0.5000 
     89 N          -1.4121  -25.8314  -50.8443 N.am      16 UNK        -0.5000 
     90 CA         -0.3617  -25.4315  -51.7813 C.3       16 UNK         0.1400 
     91 CB          0.9909  -25.4749  -51.0552 C.3       16 UNK        -0.1800 
     92 C          -0.6191  -24.0454  -52.4038 C.2       16 UNK         0.5000 
     93 O          -0.1672  -23.7849  -53.5191 O.2       16 UNK        -0.5000 
     94 N          -1.3842  -23.2054  -51.6924 N.am      17 UNK        -0.5000 
     95 CA         -1.8935  -21.9156  -52.1591 C.3       17 UNK         0.1400 
     96 CB         -2.4624  -21.1568  -50.9497 C.3       17 UNK        -0.1800 
     97 C          -2.9654  -22.0423  -53.2634 C.2       17 UNK         0.5000 
     98 O          -3.2626  -21.0499  -53.9262 O.2       17 UNK        -0.5000 
     99 N          -3.5508  -23.2422  -53.4177 N.am      18 UNK        -0.5000 
    100 CA        -4.6066  -23.6485  -54.3587 C.3       18 UNK         0.1400 
    101 CB        -4.1761  -23.4120  -55.8198 C.3       18 UNK        -0.1800 
    102 C         -6.0022  -23.0506  -54.0771 C.2       18 UNK         0.5000 
    103 O         -6.9900  -23.5524  -54.6156 O.2       18 UNK        -0.5000 
    104 N         -6.0749  -22.0257  -53.2257 N.am      19 UNK        -0.5000 
    105 CA        -7.2739  -21.3443  -52.7630 C.3       19 UNK         0.1400 
    106 CB        -7.7859  -20.3821  -53.8500 C.3       19 UNK        -0.1800 
    107 C         -6.9145  -20.5864  -51.4782 C.2       19 UNK         0.5000 
    108 O         -5.7309  -20.3404  -51.2207 O.2       19 UNK        -0.5000 
    109 N         -7.9387  -20.2138  -50.7004 N.am      20 UNK        -0.5000 
    110 CA        -7.8101  -19.4117  -49.4830 C.3       20 UNK         0.1400 
    111 CB        -9.1897  -19.2559  -48.8256 C.3       20 UNK        -0.1800 
    112 C         -7.1866  -18.0388  -49.7914 C.2       20 UNK         0.5000 
    113 O         -7.7112  -17.3110  -50.6379 O.2       20 UNK        -0.5000 
    114 N         -6.0469  -17.7500  -49.1482 N.am      21 UNK        -0.5000 
    115 CA        -5.2039  -16.5631  -49.3477 C.3       21 UNK         0.1400 
    116 CB        -5.9186  -15.3035  -48.8131 C.3       21 UNK        -0.1800 
    117 C         -4.7011  -16.3939  -50.8022 C.2       21 UNK         0.5000 
    118 O         -4.4849  -15.2669  -51.2506 O.2       21 UNK        -0.5000 
    119 N         -4.5619  -17.5168  -51.5238 N.am      22 UNK        -0.5000 
    120 CA        -4.2923  -17.5887  -52.9709 C.3       22 UNK         0.1400 
    121 C         -5.4454  -17.0343  -53.8678 C.2       22 UNK         0.5000 
    122 N         -6.6581  -16.8373  -53.3608 N.am      22 UNK        -0.7600 
    123 O         -5.2547  -16.8076  -55.0596 O.2       22 UNK        -0.5000 
    124 C124       -2.8940  -17.0310  -53.3715 C.3       23 UNK        -0.0398 
    125 S125       -1.5244  -18.0217  -52.6880 S.3       23 UNK        -0.2404 
    126 C126       -0.7720  -16.8763  -51.4818 C.3       23 UNK        -0.0205 
    127 H127        5.1129  -13.6590  -41.2913 H         1 UNK         0.0600 
    128 H128        4.3726  -12.0730  -41.0568 H         1 UNK         0.0600 
    129 H129        3.6561  -13.5031  -40.3060 H         1 UNK         0.0600 
    130 H130        4.6852  -14.5104  -43.3014 H         1 UNK         0.3000 
    131 H131        2.0415  -14.6749  -44.3832 H         1 UNK         0.0600 
    132 H132        4.1412  -16.2957  -44.6585 H         1 UNK         0.0800 
    133 H133        4.5295  -15.3091  -46.0333 H         1 UNK         0.0800 
    134 H134        3.9175  -16.1750  -48.2090 H         1 UNK         0.0800 
    135 H135        2.5429  -15.0909  -48.1834 H         1 UNK         0.0800 
    136 H136        0.6925  -15.5885  -49.6242 H         1 UNK         0.1150 
    137 H137        0.4278  -19.4283  -51.5412 H         1 UNK         0.1150 
    138 H138        3.4328  -18.7091  -48.5953 H         1 UNK         0.1150 
    139 H139        2.7969  -20.7555  -51.3257 H         1 UNK         0.0800 
    140 H140        3.3895  -20.8062  -49.6848 H         1 UNK         0.0800 
    141 H141        1.8932  -21.3479  -47.6606 H         1 UNK         0.0800 
    142 H142        0.3481  -20.6521  -48.0462 H         1 UNK         0.0800 
    143 H143        0.7997  -23.6579  -47.6132 H         1 UNK         0.0600 
    144 H144        0.5493  -21.5868  -45.6315 H         1 UNK         0.3000 
    145 H145       -0.6570  -22.7247  -43.1639 H         1 UNK         0.0600 
    146 H146        0.9833  -23.7762  -41.5765 H         1 UNK         0.0600 
    147 H147        0.1536  -24.9620  -42.5693 H         1 UNK         0.0600 
    148 H148        1.8111  -24.5253  -42.9418 H         1 UNK         0.0600 
    149 H149        0.6538  -20.9579  -43.1077 H         1 UNK         0.3000 
    150 H150        3.8856  -20.1924  -43.0546 H         1 UNK         0.0600 
    151 H151        4.1792  -20.5503  -45.5318 H         1 UNK         0.0600 
    152 H152        4.0030  -18.8589  -45.1151 H         1 UNK         0.0600 
    153 H153        2.6454  -19.7371  -45.8217 H         1 UNK         0.0600 
    154 H154        1.3949  -18.8577  -43.9601 H         1 UNK         0.3000 
    155 H155        0.3840  -18.0255  -40.6735 H         1 UNK         0.0600 
    156 H156        0.3597  -15.7039  -41.6115 H         1 UNK         0.0600 
    157 H157        1.5337  -16.1932  -42.8306 H         1 UNK         0.0600 
    158 H158        1.9821  -16.1853  -41.1313 H         1 UNK         0.0600 
    159 H159       -0.6130  -17.3754  -43.2965 H         1 UNK         0.3000 
    160 H160       -2.5245  -20.3250  -43.7708 H         1 UNK         0.0600 
    161 H161       -3.6282  -17.6691  -42.7113 H         1 UNK         0.0600 
    162 H162       -3.9294  -19.2517  -42.0029 H         1 UNK         0.0600 
    163 H163       -4.5346  -18.8870  -43.6106 H         1 UNK         0.0600 
    164 H164       -2.7149  -17.7719  -45.0076 H         1 UNK         0.3000 
    165 H165        0.0140  -18.0128  -47.2257 H         1 UNK         0.0600 
    166 H166       -2.9524  -18.4778  -47.8271 H         1 UNK         0.0600 
    167 H167       -1.7012  -18.0814  -48.9907 H         1 UNK         0.0600 
    168 H168       -1.6886  -19.6395  -48.1927 H         1 UNK         0.0600 
    169 H169       -1.9300  -16.1756  -47.5251 H         1 UNK         0.3000 
    170 H170       -2.6281  -14.2825  -45.9970 H         1 UNK         0.0600 
    171 H171       -1.4566  -12.2896  -45.0579 H         1 UNK         0.0600 
    172 H172       -1.5364  -13.6284  -43.9236 H         1 UNK         0.0600 
    173 H173       -0.0313  -13.2773  -44.7481 H         1 UNK         0.0600 
    174 H174       -0.3771  -13.0079  -47.2868 H         1 UNK         0.3000 
    175 H175       -1.2166  -14.0324  -50.5393 H         1 UNK         0.0600 
    176 H176       -2.0591  -11.7916  -51.1784 H         1 UNK         0.0600 
    177 H177       -3.2908  -12.7262  -50.3466 H         1 UNK         0.0600 
    178 H178       -2.4513  -11.4397  -49.4949 H         1 UNK         0.0600 
    179 H179        0.7222  -13.0596  -50.4440 H         1 UNK         0.3000 
    180 H180        2.4973  -11.9211  -49.8817 H         1 UNK         0.0600 
    181 H181        2.8924   -9.5416  -50.5908 H         1 UNK         0.0600 
    182 H182        1.4182  -10.1732  -51.3107 H         1 UNK         0.0600 
    183 H183        1.3225   -9.0754  -49.9379 H         1 UNK         0.0600 
    184 H184        1.8992  -10.3610  -47.4764 H         1 UNK         0.3000 
    185 H185        5.0465  -10.6314  -46.1113 H         1 UNK         0.0600 
    186 H186        3.4145   -9.7932  -44.4789 H         1 UNK         0.0600 
    187 H187        3.1455   -8.9789  -46.0089 H         1 UNK         0.0600 
    188 H188        2.0597  -10.2697  -45.4903 H         1 UNK         0.0600 
    189 H189        4.6946  -12.4670  -44.8842 H         1 UNK         0.3000 
    190 H190       -1.8267  -21.6319  -46.3921 H         1 UNK         0.3000 
    191 H191       -3.8275  -22.4804  -48.3161 H         1 UNK         0.0600 
    192 H192       -5.4096  -21.4143  -46.6927 H         1 UNK         0.0600 
    193 H193       -4.0832  -20.3471  -47.1063 H         1 UNK         0.0600 
    194 H194       -4.0914  -21.1786  -45.5524 H         1 UNK         0.0600 
    195 H195       -2.7738  -23.5883  -45.0940 H         1 UNK         0.3000 
    196 H196       -4.8888  -25.4846  -44.6858 H         1 UNK         0.0600 
    197 H197       -3.4765  -26.2313  -42.7815 H         1 UNK         0.0600 
    198 H198       -3.6030  -24.4795  -42.8092 H         1 UNK         0.0600 
    199 H199       -2.1291  -25.2688  -43.3696 H         1 UNK         0.0600 
    200 H200       -1.5440  -25.7468  -45.9375 H         1 UNK         0.3000 
    201 H201       -1.6278  -28.5694  -46.4932 H         1 UNK         0.0600 
    202 H202        0.4836  -27.2849  -46.1631 H         1 UNK         0.0600 
    203 H203        0.1471  -26.3219  -47.6001 H         1 UNK         0.0600 
    204 H204        0.4731  -28.0455  -47.7465 H         1 UNK         0.0600 
    205 H205       -3.0917  -25.9117  -48.0395 H         1 UNK         0.3000 
    206 H206       -4.2249  -25.5051  -49.8657 H         1 UNK         0.0600 
    207 H207       -5.3201  -27.7327  -49.4905 H         1 UNK         0.0600 
    208 H208       -5.2650  -27.2852  -51.1871 H         1 UNK         0.0600 
    209 H209       -4.1421  -28.4844  -50.5671 H         1 UNK         0.0600 
    210 H210       -1.1856  -25.7663  -49.8617 H         1 UNK         0.3000 
    211 H211       -0.3375  -26.1571  -52.5969 H         1 UNK         0.0600 
    212 H212        0.9896  -24.8446  -50.1659 H         1 UNK         0.0600 
    213 H213        1.7977  -25.1308  -51.7035 H         1 UNK         0.0600 
    214 H214        1.2349  -26.4901  -50.7417 H         1 UNK         0.0600 
    215 H215       -1.6410  -23.4831  -50.7516 H         1 UNK         0.3000 
    216 H216       -1.0602  -21.3416  -52.5693 H         1 UNK         0.0600 
    217 H217       -2.8717  -20.1903  -51.2430 H         1 UNK         0.0600 
    218 H218       -1.6894  -20.9675  -50.2061 H         1 UNK         0.0600 
    219 H219       -3.2669  -21.7142  -50.4706 H         1 UNK         0.0600 
    220 H220       -3.2253  -23.9925  -52.8209 H         1 UNK         0.3000 
    221 H221       -4.7123  -24.7259  -54.2233 H         1 UNK         0.0600 
    222 H222       -4.1089  -22.3506  -56.0592 H         1 UNK         0.0600 
    223 H223       -3.2061  -23.8657  -56.0235 H         1 UNK         0.0600 
    224 H224       -4.8933  -23.8541  -56.5122 H         1 UNK         0.0600 
    225 H225       -5.2195  -21.6605  -52.8240 H         1 UNK         0.3000 
    226 H226       -8.0413  -22.0844  -52.5277 H         1 UNK         0.0600 
    227 H227       -8.6471  -19.8113  -53.5011 H         1 UNK         0.0600 
    228 H228       -7.0159  -19.6687  -54.1449 H         1 UNK         0.0600 
    229 H229       -8.0975  -20.9228  -54.7436 H         1 UNK         0.0600 
    230 H230       -8.8801  -20.4266  -50.9962 H         1 UNK         0.3000 
    231 H231       -7.1613  -19.9544  -48.7920 H         1 UNK         0.0600 
    232 H232       -9.1196  -18.6719  -47.9070 H         1 UNK         0.0600 
    233 H233       -9.6137  -20.2251  -48.5624 H         1 UNK         0.0600 
    234 H234       -9.8952  -18.7478  -49.4844 H         1 UNK         0.0600 
    235 H235       -5.6852  -18.4308  -48.4961 H         1 UNK         0.3000 
    236 H236       -4.3156  -16.7232  -48.7384 H         1 UNK         0.0600 
    237 H237       -6.8002  -15.0563  -49.4050 H         1 UNK         0.0600 
    238 H238       -6.2344  -15.4389  -47.7789 H         1 UNK         0.0600 
    239 H239       -5.2582  -14.4361  -48.8367 H         1 UNK         0.0600 
    240 H240       -4.8015  -18.4028  -51.0945 H         1 UNK         0.3000 
    241 H241       -4.2858  -18.6547  -53.1985 H         1 UNK         0.0600 
    242 H242       -7.3867  -16.4866  -53.9612 H         1 UNK         0.3800 
    243 H243       -6.8630  -17.0111  -52.3818 H         1 UNK         0.3800 
    244 H244       -2.7868  -15.9846  -53.0851 H         1 UNK         0.0800 
    245 H245       -2.7685  -17.0550  -54.4548 H         1 UNK         0.0800 
    246 H246       -0.4378  -15.9878  -52.0190 H         1 UNK         0.0800 
    247 H247       -1.5458  -16.5496  -50.7863 H         1 UNK         0.0800 
@<TRIPOS>BOND
     1    1    2 1    
     2    1  127 1    
     3    1  128 1    
     4    1  129 1    
     5    2    3 2    
     6    2    4 am   BACKBONE|DICT|INTERRES
     7    4    5 1    
     8    4  130 1    
     9    5    6 1    
    10    5   65 1    
    11    5  131 1    
    12    6    7 1    
    13    6  132 1    
    14    6  133 1    
    15    7    8 1    
    16    8    9 1    
    17    8  134 1    
    18    8  135 1    
    19    9   10 ar   
    20    9   14 ar   
    21   10   11 ar   
    22   10  136 1    
    23   11   12 ar   
    24   11  126 1    
    25   12   13 ar   
    26   12  137 1    
    27   13   14 ar   
    28   13   15 1    
    29   14  138 1    
    30   15   16 1    
    31   15  139 1    
    32   15  140 1    
    33   16   17 1    
    34   17   18 1    
    35   17  141 1    
    36   17  142 1    
    37   18   19 1    
    38   18   67 1    
    39   18  143 1    
    40   19   20 am   BACKBONE|DICT|INTERRES
    41   19  144 1    
    42   20   21 2    
    43   20   22 1    
    44   22   23 1    
    45   22   24 1    
    46   22  145 1    
    47   23  146 1    
    48   23  147 1    
    49   23  148 1    
    50   24   25 am   BACKBONE|DICT|INTERRES
    51   24  149 1    
    52   25   26 2    
    53   25   27 1    
    54   27   28 1    
    55   27   29 1    
    56   27  150 1    
    57   28  151 1    
    58   28  152 1    
    59   28  153 1    
    60   29   30 am   BACKBONE|DICT|INTERRES
    61   29  154 1    
    62   30   31 2    
    63   30   32 1    
    64   32   33 1    
    65   32   34 1    
    66   32  155 1    
    67   33  156 1    
    68   33  157 1    
    69   33  158 1    
    70   34   35 am   BACKBONE|DICT|INTERRES
    71   34  159 1    
    72   35   36 2    
    73   35   37 1    
    74   37   38 1    
    75   37   39 1    
    76   37  160 1    
    77   38  161 1    
    78   38  162 1    
    79   38  163 1    
    80   39   40 am   BACKBONE|DICT|INTERRES
    81   39  164 1    
    82   40   41 2    
    83   40   42 1    
    84   42   43 1    
    85   42   44 1    
    86   42  165 1    
    87   43  166 1    
    88   43  167 1    
    89   43  168 1    
    90   44   45 am   BACKBONE|DICT|INTERRES
    91   44  169 1    
    92   45   46 2    
    93   45   47 1    
    94   47   48 1    
    95   47   49 1    
    96   47  170 1    
    97   48  171 1    
    98   48  172 1    
    99   48  173 1    
   100   49   50 am   BACKBONE|DICT|INTERRES
   101   49  174 1    
   102   50   51 2    
   103   50   52 1    
   104   52   53 1    
   105   52   54 1    
   106   52  175 1    
   107   53  176 1    
   108   53  177 1    
   109   53  178 1    
   110   54   55 am   BACKBONE|DICT|INTERRES
   111   54  179 1    
   112   55   56 2    
   113   55   57 1    
   114   57   58 1    
   115   57   59 1    
   116   57  180 1    
   117   58  181 1    
   118   58  182 1    
   119   58  183 1    
   120   59   60 am   BACKBONE|DICT|INTERRES
   121   59  184 1    
   122   60   61 2    
   123   60   62 1    
   124   62   63 1    
   125   62   64 1    
   126   62  185 1    
   127   63  186 1    
   128   63  187 1    
   129   63  188 1    
   130   64   65 am   BACKBONE|DICT|INTERRES
   131   64  189 1    
   132   65   66 2    
   133   67   68 2    
   134   67   69 am   BACKBONE|DICT|INTERRES
   135   69   70 1    
   136   69  190 1    
   137   70   71 1    
   138   70   72 1    
   139   70  191 1    
   140   71  192 1    
   141   71  193 1    
   142   71  194 1    
   143   72   73 2    
   144   72   74 am   BACKBONE|DICT|INTERRES
   145   74   75 1    
   146   74  195 1    
   147   75   76 1    
   148   75   77 1    
   149   75  196 1    
   150   76  197 1    
   151   76  198 1    
   152   76  199 1    
   153   77   78 2    
   154   77   79 am   BACKBONE|DICT|INTERRES
   155   79   80 1    
   156   79  200 1    
   157   80   81 1    
   158   80   82 1    
   159   80  201 1    
   160   81  202 1    
   161   81  203 1    
   162   81  204 1    
   163   82   83 2    
   164   82   84 am   BACKBONE|DICT|INTERRES
   165   84   85 1    
   166   84  205 1    
   167   85   86 1    
   168   85   87 1    
   169   85  206 1    
   170   86  207 1    
   171   86  208 1    
   172   86  209 1    
   173   87   88 2    
   174   87   89 am   BACKBONE|DICT|INTERRES
   175   89   90 1    
   176   89  210 1    
   177   90   91 1    
   178   90   92 1    
   179   90  211 1    
   180   91  212 1    
   181   91  213 1    
   182   91  214 1    
   183   92   93 2    
   184   92   94 am   BACKBONE|DICT|INTERRES
   185   94   95 1    
   186   94  215 1    
   187   95   96 1    
   188   95   97 1    
   189   95  216 1    
   190   96  217 1    
   191   96  218 1    
   192   96  219 1    
   193   97   98 2    
   194   97   99 am   BACKBONE|DICT|INTERRES
   195   99  100 1    
   196   99  220 1    
   197  100  101 1    
   198  100  102 1    
   199  100  221 1    
   200  101  222 1    
   201  101  223 1    
   202  101  224 1    
   203  102  103 2    
   204  102  104 am   BACKBONE|DICT|INTERRES
   205  104  105 1    
   206  104  225 1    
   207  105  106 1    
   208  105  107 1    
   209  105  226 1    
   210  106  227 1    
   211  106  228 1    
   212  106  229 1    
   213  107  108 2    
   214  107  109 am   BACKBONE|DICT|INTERRES
   215  109  110 1    
   216  109  230 1    
   217  110  111 1    
   218  110  112 1    
   219  110  231 1    
   220  111  232 1    
   221  111  233 1    
   222  111  234 1    
   223  112  113 2    
   224  112  114 am   BACKBONE|DICT|INTERRES
   225  114  115 1    
   226  114  235 1    
   227  115  116 1    
   228  115  117 1    
   229  115  236 1    
   230  116  237 1    
   231  116  238 1    
   232  116  239 1    
   233  117  118 2    
   234  117  119 am   BACKBONE|DICT|INTERRES
   235  119  120 1    
   236  119  240 1    
   237  120  121 1    
   238  120  124 1    
   239  120  241 1    
   240  121  122 am   BACKBONE|DICT|INTERRES
   241  121  123 2    
   242  122  242 1    
   243  122  243 1    
   244  124  125 1    
   245  124  244 1    
   246  124  245 1    
   247  125  126 1    
   248  126  246 1    
   249  126  247 1    
@<TRIPOS>SUBSTRUCTURE
     1 UNK         1 GROUP             0       ****    0 ROOT    
