@<TRIPOS>MOLECULE
3R540
247   249    1
SMALL
USER_CHARGES


@<TRIPOS>ATOM
      1 CA         -2.5187  -17.0038  -47.7993 C.3       0 UNK        -0.1800 
      2 C          -1.6594  -15.7940  -47.4657 C.2       0 UNK         0.5000 
      3 O          -0.5698  -15.9486  -46.9169 O.2       0 UNK        -0.5000 
      4 N          -2.1544  -14.5916  -47.7861 N.am      1 UNK        -0.5000 
      5 CA         -1.5203  -13.2983  -47.4978 C.3       1 UNK         0.1400 
      6 C6         -0.1832  -13.0870  -48.2688 C.3       23 UNK        -0.0398 
      7 S7         -0.4414  -13.0958  -50.0775 S.3       23 UNK        -0.2404 
      8 C8          0.9458  -14.1133  -50.6862 C.3       23 UNK        -0.0205 
      9 C9          0.6825  -15.6156  -50.6407 C.ar      23 UNK        -0.0193 
     10 C10        -0.4677  -16.1584  -51.2279 C.ar      23 UNK        -0.1150 
     11 C11        -0.6744  -17.5411  -51.2432 C.ar      23 UNK        -0.0193 
     12 C12         0.2796  -18.3834  -50.6702 C.ar      23 UNK        -0.1150 
     13 C13         1.4334  -17.8590  -50.0838 C.ar      23 UNK        -0.0193 
     14 C14         1.6294  -16.4746  -50.0704 C.ar      23 UNK        -0.1150 
     15 C15         2.4530  -18.8024  -49.4583 C.3       23 UNK        -0.0205 
     16 S16         2.4596  -18.7522  -47.6338 S.3       23 UNK        -0.2404 
     17 C17         0.6914  -18.9103  -47.2121 C.3       23 UNK        -0.0398 
     18 CA          0.2341  -20.3558  -46.9259 C.3       11 UNK         0.1400 
     19 N           0.6795  -20.8142  -45.6038 N.am      11 UNK        -0.5000 
     20 C           0.4801  -22.0323  -45.0809 C.2       10 UNK         0.5000 
     21 O          -0.0959  -22.9443  -45.6749 O.2       10 UNK        -0.5000 
     22 CA          0.9535  -22.2459  -43.6306 C.3       10 UNK         0.1400 
     23 CB          2.4735  -22.4594  -43.5644 C.3       10 UNK        -0.1800 
     24 N           0.5698  -21.1287  -42.7650 N.am      10 UNK        -0.5000 
     25 C          -0.6845  -20.8934  -42.3535 C.2       9 UNK         0.5000 
     26 O          -1.6255  -21.6528  -42.5813 O.2       9 UNK        -0.5000 
     27 CA         -0.9468  -19.5791  -41.5896 C.3       9 UNK         0.1400 
     28 CB         -0.7241  -19.7639  -40.0815 C.3       9 UNK        -0.1800 
     29 N          -0.1348  -18.4619  -42.0755 N.am      9 UNK        -0.5000 
     30 C          -0.2429  -17.9265  -43.3001 C.2       8 UNK         0.5000 
     31 O          -1.0804  -18.2846  -44.1274 O.2       8 UNK        -0.5000 
     32 CA          0.7926  -16.8509  -43.6776 C.3       8 UNK         0.1400 
     33 CB          0.3222  -15.4607  -43.2305 C.3       8 UNK        -0.1800 
     34 N           2.1240  -17.1388  -43.1374 N.am      8 UNK        -0.5000 
     35 C           2.8621  -18.2050  -43.4816 C.2       7 UNK         0.5000 
     36 O           2.5019  -19.0411  -44.3071 O.2       7 UNK        -0.5000 
     37 CA          4.1830  -18.4260  -42.7225 C.3       7 UNK         0.1400 
     38 CB          5.2960  -17.5255  -43.2686 C.3       7 UNK        -0.1800 
     39 N           4.0271  -18.2132  -41.2840 N.am      7 UNK        -0.5000 
     40 C           3.2818  -19.0015  -40.4954 C.2       6 UNK         0.5000 
     41 O           2.7326  -20.0303  -40.8899 O.2       6 UNK        -0.5000 
     42 CA          3.0747  -18.5506  -39.0366 C.3       6 UNK         0.1400 
     43 CB          4.1126  -19.2102  -38.1170 C.3       6 UNK        -0.1800 
     44 N           3.1311  -17.0990  -38.8588 N.am      6 UNK        -0.5000 
     45 C           2.3104  -16.2103  -39.4355 C.2       5 UNK         0.5000 
     46 O           1.3675  -16.5300  -40.1593 O.2       5 UNK        -0.5000 
     47 CA          2.5975  -14.7177  -39.1671 C.3       5 UNK         0.1400 
     48 CB          3.1070  -14.4624  -37.7327 C.3       5 UNK        -0.1800 
     49 N           3.5064  -14.0864  -40.1352 N.am      5 UNK        -0.5000 
     50 C           4.7206  -14.4993  -40.5333 C.2       4 UNK         0.5000 
     51 O           5.2069  -15.5944  -40.2446 O.2       4 UNK        -0.5000 
     52 CA          5.5460  -13.4896  -41.3646 C.3       4 UNK         0.1400 
     53 CB          6.7784  -14.1172  -42.0490 C.3       4 UNK        -0.1800 
     54 N           4.7837  -12.6968  -42.3374 N.am      4 UNK        -0.5000 
     55 C           3.9867  -13.1532  -43.3128 C.2       3 UNK         0.5000 
     56 O           3.6573  -14.3314  -43.4492 O.2       3 UNK        -0.5000 
     57 CA          3.5151  -12.1134  -44.3436 C.3       3 UNK         0.1400 
     58 CB          4.2287  -12.3272  -45.6880 C.3       3 UNK        -0.1800 
     59 N           2.0724  -12.1842  -44.5569 N.am      3 UNK        -0.5000 
     60 C           1.1578  -11.7074  -43.7020 C.2       2 UNK         0.5000 
     61 O           1.4522  -11.1629  -42.6366 O.2       2 UNK        -0.5000 
     62 CA         -0.3244  -11.8431  -44.1023 C.3       2 UNK         0.1400 
     63 CB         -1.1175  -10.5518  -43.8249 C.3       2 UNK        -0.1800 
     64 N          -0.4898  -12.2195  -45.5116 N.am      2 UNK        -0.5000 
     65 C          -1.4441  -13.0417  -45.9682 C.2       1 UNK         0.5000 
     66 O          -2.2877  -13.5562  -45.2284 O.2       1 UNK        -0.5000 
     67 C          -1.2934  -20.4530  -47.1267 C.2       11 UNK         0.5000 
     68 O          -1.7363  -20.6421  -48.2601 O.2       11 UNK        -0.5000 
     69 N          -2.0770  -20.3471  -46.0442 N.am      12 UNK        -0.5000 
     70 CA         -3.5358  -20.4710  -46.0538 C.3       12 UNK         0.1400 
     71 CB         -4.0859  -20.2110  -44.6451 C.3       12 UNK        -0.1800 
     72 C          -4.0400  -21.8227  -46.5955 C.2       12 UNK         0.5000 
     73 O          -5.1031  -21.8599  -47.2121 O.2       12 UNK        -0.5000 
     74 N          -3.2547  -22.8952  -46.4153 N.am      13 UNK        -0.5000 
     75 CA         -3.5339  -24.2161  -46.9823 C.3       13 UNK         0.1400 
     76 CB         -2.6212  -25.2585  -46.3203 C.3       13 UNK        -0.1800 
     77 C          -3.3763  -24.2520  -48.5154 C.2       13 UNK         0.5000 
     78 O          -4.1010  -24.9915  -49.1802 O.2       13 UNK        -0.5000 
     79 N          -2.4535  -23.4398  -49.0496 N.am      14 UNK        -0.5000 
     80 CA         -2.2284  -23.2700  -50.4846 C.3       14 UNK         0.1400 
     81 CB         -0.8015  -22.7494  -50.7144 C.3       14 UNK        -0.1800 
     82 C          -3.2811  -22.3347  -51.1067 C.2       14 UNK         0.5000 
     83 O          -3.7447  -22.5895  -52.2159 O.2       14 UNK        -0.5000 
     84 N          -3.6951  -21.2996  -50.3622 N.am      15 UNK        -0.5000 
     85 CA         -4.8003  -20.4114  -50.7340 C.3       15 UNK         0.1400 
     86 CB         -4.8550  -19.2298  -49.7562 C.3       15 UNK        -0.1800 
     87 C          -6.1600  -21.1381  -50.7814 C.2       15 UNK         0.5000 
     88 O          -6.9913  -20.8177  -51.6297 O.2       15 UNK        -0.5000 
     89 N          -6.3491  -22.1149  -49.8842 N.am      16 UNK        -0.5000 
     90 CA         -7.5315  -22.9731  -49.8041 C.3       16 UNK         0.1400 
     91 CB         -7.6228  -23.5542  -48.3838 C.3       16 UNK        -0.1800 
     92 C          -7.5570  -24.1070  -50.8504 C.2       16 UNK         0.5000 
     93 O          -8.5870  -24.7723  -50.9763 O.2       16 UNK        -0.5000 
     94 N          -6.4459  -24.3333  -51.5669 N.am      17 UNK        -0.5000 
     95 CA         -6.3357  -25.3373  -52.6271 C.3       17 UNK         0.1400 
     96 CB         -4.8528  -25.5504  -52.9717 C.3       17 UNK        -0.1800 
     97 C          -7.1355  -24.9439  -53.8845 C.2       17 UNK         0.5000 
     98 O          -7.5371  -23.7859  -54.0318 O.2       17 UNK        -0.5000 
     99 N          -7.3342  -25.9197  -54.7814 N.am      18 UNK        -0.5000 
    100 CA        -8.0534  -25.7801  -56.0501 C.3       18 UNK         0.1400 
    101 CB        -8.0064  -27.1163  -56.8076 C.3       18 UNK        -0.1800 
    102 C         -7.4966  -24.6363  -56.9193 C.2       18 UNK         0.5000 
    103 O         -6.3109  -24.6490  -57.2554 O.2       18 UNK        -0.5000 
    104 N         -8.3620  -23.6571  -57.2174 N.am      19 UNK        -0.5000 
    105 CA        -8.0846  -22.4151  -57.9499 C.3       19 UNK         0.1400 
    106 CB        -7.6953  -22.7192  -59.4126 C.3       19 UNK        -0.1800 
    107 C         -7.0755  -21.4738  -57.2501 C.2       19 UNK         0.5000 
    108 O         -6.4959  -20.6156  -57.9176 O.2       19 UNK        -0.5000 
    109 N         -6.8967  -21.6352  -55.9275 N.am      20 UNK        -0.5000 
    110 CA        -5.9547  -20.9186  -55.0604 C.3       20 UNK         0.1400 
    111 CB        -6.3741  -19.4449  -54.8832 C.3       20 UNK        -0.1800 
    112 C         -4.4997  -21.0844  -55.5381 C.2       20 UNK         0.5000 
    113 O         -3.8259  -20.1037  -55.8603 O.2       20 UNK        -0.5000 
    114 N         -4.0603  -22.3458  -55.6200 N.am      21 UNK        -0.5000 
    115 CA        -2.7224  -22.7579  -56.0381 C.3       21 UNK         0.1400 
    116 CB        -2.7579  -24.2572  -56.3846 C.3       21 UNK        -0.1800 
    117 C         -1.6541  -22.4206  -54.9759 C.2       21 UNK         0.5000 
    118 O         -1.1695  -23.3158  -54.2824 O.2       21 UNK        -0.5000 
    119 N         -1.3180  -21.1281  -54.8723 N.am      22 UNK        -0.5000 
    120 CA        -0.3384  -20.5458  -53.9379 C.3       22 UNK         0.1400 
    121 C          1.1079  -21.1190  -54.0254 C.2       22 UNK         0.5000 
    122 N          1.5260  -21.7061  -55.1402 N.am      22 UNK        -0.7600 
    123 O          1.8632  -21.0235  -53.0625 O.2       22 UNK        -0.5000 
    124 C124       -0.2839  -19.0009  -54.0580 C.3       23 UNK        -0.0398 
    125 S125       -1.8665  -18.1614  -53.6975 S.3       23 UNK        -0.2404 
    126 C126       -1.9224  -18.1394  -51.8755 C.3       23 UNK        -0.0205 
    127 H127       -3.5030  -16.7140  -48.1670 H         1 UNK         0.0600 
    128 H128       -2.6557  -17.6133  -46.9069 H         1 UNK         0.0600 
    129 H129       -2.0343  -17.6113  -48.5627 H         1 UNK         0.0600 
    130 H130       -3.0665  -14.5344  -48.2148 H         1 UNK         0.3000 
    131 H131       -2.2211  -12.5456  -47.8622 H         1 UNK         0.0600 
    132 H132        0.2629  -12.1208  -48.0321 H         1 UNK         0.0800 
    133 H133        0.5530  -13.8431  -47.9926 H         1 UNK         0.0800 
    134 H134        1.8499  -13.8552  -50.1327 H         1 UNK         0.0800 
    135 H135        1.1392  -13.8390  -51.7240 H         1 UNK         0.0800 
    136 H136       -1.1976  -15.5050  -51.6847 H         1 UNK         0.1150 
    137 H137        0.1231  -19.4527  -50.6786 H         1 UNK         0.1150 
    138 H138        2.5246  -16.0704  -49.6191 H         1 UNK         0.1150 
    139 H139        3.4490  -18.5460  -49.8214 H         1 UNK         0.0800 
    140 H140        2.2702  -19.8293  -49.7793 H         1 UNK         0.0800 
    141 H141        0.0955  -18.4497  -47.9957 H         1 UNK         0.0800 
    142 H142        0.5030  -18.2937  -46.3376 H         1 UNK         0.0800 
    143 H143        0.6844  -21.0167  -47.6692 H         1 UNK         0.0600 
    144 H144        1.2178  -20.1400  -45.0629 H         1 UNK         0.3000 
    145 H145        0.4741  -23.1519  -43.2537 H         1 UNK         0.0600 
    146 H146        2.7713  -23.3192  -44.1656 H         1 UNK         0.0600 
    147 H147        2.7995  -22.6480  -42.5413 H         1 UNK         0.0600 
    148 H148        3.0246  -21.5953  -43.9346 H         1 UNK         0.0600 
    149 H149        1.3021  -20.4815  -42.4984 H         1 UNK         0.3000 
    150 H150       -1.9948  -19.3134  -41.7439 H         1 UNK         0.0600 
    151 H151        0.2899  -20.0935  -39.8597 H         1 UNK         0.0600 
    152 H152       -1.4044  -20.5157  -39.6798 H         1 UNK         0.0600 
    153 H153       -0.9041  -18.8367  -39.5368 H         1 UNK         0.0600 
    154 H154        0.5548  -18.0747  -41.4418 H         1 UNK         0.3000 
    155 H155        0.8816  -16.8256  -44.7630 H         1 UNK         0.0600 
    156 H156        1.0213  -14.6924  -43.5533 H         1 UNK         0.0600 
    157 H157        0.2133  -15.3872  -42.1495 H         1 UNK         0.0600 
    158 H158       -0.6458  -15.2240  -43.6733 H         1 UNK         0.0600 
    159 H159        2.4799  -16.4971  -42.4433 H         1 UNK         0.3000 
    160 H160        4.4867  -19.4635  -42.8784 H         1 UNK         0.0600 
    161 H161        5.0428  -16.4752  -43.1465 H         1 UNK         0.0600 
    162 H162        5.4563  -17.7035  -44.3326 H         1 UNK         0.0600 
    163 H163        6.2416  -17.7062  -42.7573 H         1 UNK         0.0600 
    164 H164        4.4434  -17.3754  -40.8887 H         1 UNK         0.3000 
    165 H165        2.0823  -18.8825  -38.7265 H         1 UNK         0.0600 
    166 H166        4.0799  -20.2969  -38.2074 H         1 UNK         0.0600 
    167 H167        5.1264  -18.8902  -38.3614 H         1 UNK         0.0600 
    168 H168        3.9254  -18.9664  -37.0711 H         1 UNK         0.0600 
    169 H169        3.9126  -16.7422  -38.3281 H         1 UNK         0.3000 
    170 H170        1.6399  -14.2045  -39.2676 H         1 UNK         0.0600 
    171 H171        3.1206  -13.3954  -37.5103 H         1 UNK         0.0600 
    172 H172        4.1179  -14.8414  -37.5790 H         1 UNK         0.0600 
    173 H173        2.4586  -14.9357  -36.9940 H         1 UNK         0.0600 
    174 H174        3.1952  -13.1926  -40.4895 H         1 UNK         0.3000 
    175 H175        5.9249  -12.7744  -40.6332 H         1 UNK         0.0600 
    176 H176        6.4984  -14.7910  -42.8566 H         1 UNK         0.0600 
    177 H177        7.3864  -14.6820  -41.3413 H         1 UNK         0.0600 
    178 H178        7.4204  -13.3462  -42.4748 H         1 UNK         0.0600 
    179 H179        4.9569  -11.7017  -42.3010 H         1 UNK         0.3000 
    180 H180        3.7649  -11.1124  -43.9847 H         1 UNK         0.0600 
    181 H181        4.0026  -13.3060  -46.1136 H         1 UNK         0.0600 
    182 H182        5.3111  -12.2640  -45.5691 H         1 UNK         0.0600 
    183 H183        3.9372  -11.5691  -46.4152 H         1 UNK         0.0600 
    184 H184        1.7643  -12.7102  -45.3598 H         1 UNK         0.3000 
    185 H185       -0.7256  -12.6307  -43.4616 H         1 UNK         0.0600 
    186 H186       -1.0552  -10.2658  -42.7743 H         1 UNK         0.0600 
    187 H187       -0.7418   -9.7170  -44.4174 H         1 UNK         0.0600 
    188 H188       -2.1744  -10.6802  -44.0592 H         1 UNK         0.0600 
    189 H189        0.1394  -11.7731  -46.1631 H         1 UNK         0.3000 
    190 H190       -1.6461  -20.1011  -45.1609 H         1 UNK         0.3000 
    191 H191       -3.9210  -19.6921  -46.7131 H         1 UNK         0.0600 
    192 H192       -3.7563  -19.2450  -44.2619 H         1 UNK         0.0600 
    193 H193       -5.1766  -20.2045  -44.6495 H         1 UNK         0.0600 
    194 H194       -3.7678  -20.9798  -43.9415 H         1 UNK         0.0600 
    195 H195       -2.3743  -22.7835  -45.9273 H         1 UNK         0.3000 
    196 H196       -4.5688  -24.4747  -46.7483 H         1 UNK         0.0600 
    197 H197       -2.8515  -26.2619  -46.6805 H         1 UNK         0.0600 
    198 H198       -2.7473  -25.2641  -45.2376 H         1 UNK         0.0600 
    199 H199       -1.5692  -25.0673  -46.5350 H         1 UNK         0.0600 
    200 H200       -1.9432  -22.8158  -48.4389 H         1 UNK         0.3000 
    201 H201       -2.3122  -24.2446  -50.9705 H         1 UNK         0.0600 
    202 H202       -0.5405  -22.7977  -51.7702 H         1 UNK         0.0600 
    203 H203       -0.0684  -23.3525  -50.1787 H         1 UNK         0.0600 
    204 H204       -0.6833  -21.7152  -50.3932 H         1 UNK         0.0600 
    205 H205       -3.2241  -21.1174  -49.4816 H         1 UNK         0.3000 
    206 H206       -4.5935  -20.0211  -51.7330 H         1 UNK         0.0600 
    207 H207       -3.8893  -18.7333  -49.6829 H         1 UNK         0.0600 
    208 H208       -5.5820  -18.4866  -50.0855 H         1 UNK         0.0600 
    209 H209       -5.1445  -19.5485  -48.7552 H         1 UNK         0.0600 
    210 H210       -5.6487  -22.2506  -49.1637 H         1 UNK         0.3000 
    211 H211       -8.4175  -22.3582  -49.9747 H         1 UNK         0.0600 
    212 H212       -7.6899  -22.7624  -47.6375 H         1 UNK         0.0600 
    213 H213       -8.5083  -24.1805  -48.2692 H         1 UNK         0.0600 
    214 H214       -6.7529  -24.1673  -48.1458 H         1 UNK         0.0600 
    215 H215       -5.6510  -23.7228  -51.4377 H         1 UNK         0.3000 
    216 H216       -6.7388  -26.2770  -52.2440 H         1 UNK         0.0600 
    217 H217       -4.4321  -24.6894  -53.4899 H         1 UNK         0.0600 
    218 H218       -4.7218  -26.4137  -53.6248 H         1 UNK         0.0600 
    219 H219       -4.2573  -25.7293  -52.0761 H         1 UNK         0.0600 
    220 H220       -6.9457  -26.8325  -54.5953 H         1 UNK         0.3000 
    221 H221       -9.0965  -25.5656  -55.8089 H         1 UNK         0.0600 
    222 H222       -6.9819  -27.4138  -57.0354 H         1 UNK         0.0600 
    223 H223       -8.4682  -27.9162  -56.2286 H         1 UNK         0.0600 
    224 H224       -8.5459  -27.0476  -57.7532 H         1 UNK         0.0600 
    225 H225       -9.3048  -23.7374  -56.8619 H         1 UNK         0.3000 
    226 H226       -9.0277  -21.8673  -57.9733 H         1 UNK         0.0600 
    227 H227       -8.4220  -23.3795  -59.8857 H         1 UNK         0.0600 
    228 H228       -7.6567  -21.8054  -60.0066 H         1 UNK         0.0600 
    229 H229       -6.7157  -23.1931  -59.4813 H         1 UNK         0.0600 
    230 H230       -7.3947  -22.3912  -55.4669 H         1 UNK         0.3000 
    231 H231       -6.0107  -21.3961  -54.0814 H         1 UNK         0.0600 
    232 H232       -6.3362  -18.8922  -55.8222 H         1 UNK         0.0600 
    233 H233       -5.7144  -18.9379  -54.1779 H         1 UNK         0.0600 
    234 H234       -7.3874  -19.3710  -54.4886 H         1 UNK         0.0600 
    235 H235       -4.6896  -23.0884  -55.3536 H         1 UNK         0.3000 
    236 H236       -2.4639  -22.2157  -56.9500 H         1 UNK         0.0600 
    237 H237       -3.0486  -24.8652  -55.5275 H         1 UNK         0.0600 
    238 H238       -3.4640  -24.4582  -57.1907 H         1 UNK         0.0600 
    239 H239       -1.7790  -24.6044  -56.7172 H         1 UNK         0.0600 
    240 H240       -1.8607  -20.4638  -55.4141 H         1 UNK         0.3000 
    241 H241       -0.6958  -20.7814  -52.9355 H         1 UNK         0.0600 
    242 H242        0.9146  -21.7962  -55.9354 H         1 UNK         0.3800 
    243 H243        2.4625  -22.0760  -55.1837 H         1 UNK         0.3800 
    244 H244        0.4927  -18.5806  -53.4184 H         1 UNK         0.0800 
    245 H245        0.0059  -18.7249  -55.0731 H         1 UNK         0.0800 
    246 H246       -2.7949  -17.5660  -51.5605 H         1 UNK         0.0800 
    247 H247       -2.0805  -19.1567  -51.5152 H         1 UNK         0.0800 
@<TRIPOS>BOND
     1    1    2 1    
     2    1  127 1    
     3    1  128 1    
     4    1  129 1    
     5    2    3 2    
     6    2    4 am   BACKBONE|DICT|INTERRES
     7    4    5 1    
     8    4  130 1    
     9    5    6 1    
    10    5   65 1    
    11    5  131 1    
    12    6    7 1    
    13    6  132 1    
    14    6  133 1    
    15    7    8 1    
    16    8    9 1    
    17    8  134 1    
    18    8  135 1    
    19    9   10 ar   
    20    9   14 ar   
    21   10   11 ar   
    22   10  136 1    
    23   11   12 ar   
    24   11  126 1    
    25   12   13 ar   
    26   12  137 1    
    27   13   14 ar   
    28   13   15 1    
    29   14  138 1    
    30   15   16 1    
    31   15  139 1    
    32   15  140 1    
    33   16   17 1    
    34   17   18 1    
    35   17  141 1    
    36   17  142 1    
    37   18   19 1    
    38   18   67 1    
    39   18  143 1    
    40   19   20 am   BACKBONE|DICT|INTERRES
    41   19  144 1    
    42   20   21 2    
    43   20   22 1    
    44   22   23 1    
    45   22   24 1    
    46   22  145 1    
    47   23  146 1    
    48   23  147 1    
    49   23  148 1    
    50   24   25 am   BACKBONE|DICT|INTERRES
    51   24  149 1    
    52   25   26 2    
    53   25   27 1    
    54   27   28 1    
    55   27   29 1    
    56   27  150 1    
    57   28  151 1    
    58   28  152 1    
    59   28  153 1    
    60   29   30 am   BACKBONE|DICT|INTERRES
    61   29  154 1    
    62   30   31 2    
    63   30   32 1    
    64   32   33 1    
    65   32   34 1    
    66   32  155 1    
    67   33  156 1    
    68   33  157 1    
    69   33  158 1    
    70   34   35 am   BACKBONE|DICT|INTERRES
    71   34  159 1    
    72   35   36 2    
    73   35   37 1    
    74   37   38 1    
    75   37   39 1    
    76   37  160 1    
    77   38  161 1    
    78   38  162 1    
    79   38  163 1    
    80   39   40 am   BACKBONE|DICT|INTERRES
    81   39  164 1    
    82   40   41 2    
    83   40   42 1    
    84   42   43 1    
    85   42   44 1    
    86   42  165 1    
    87   43  166 1    
    88   43  167 1    
    89   43  168 1    
    90   44   45 am   BACKBONE|DICT|INTERRES
    91   44  169 1    
    92   45   46 2    
    93   45   47 1    
    94   47   48 1    
    95   47   49 1    
    96   47  170 1    
    97   48  171 1    
    98   48  172 1    
    99   48  173 1    
   100   49   50 am   BACKBONE|DICT|INTERRES
   101   49  174 1    
   102   50   51 2    
   103   50   52 1    
   104   52   53 1    
   105   52   54 1    
   106   52  175 1    
   107   53  176 1    
   108   53  177 1    
   109   53  178 1    
   110   54   55 am   BACKBONE|DICT|INTERRES
   111   54  179 1    
   112   55   56 2    
   113   55   57 1    
   114   57   58 1    
   115   57   59 1    
   116   57  180 1    
   117   58  181 1    
   118   58  182 1    
   119   58  183 1    
   120   59   60 am   BACKBONE|DICT|INTERRES
   121   59  184 1    
   122   60   61 2    
   123   60   62 1    
   124   62   63 1    
   125   62   64 1    
   126   62  185 1    
   127   63  186 1    
   128   63  187 1    
   129   63  188 1    
   130   64   65 am   BACKBONE|DICT|INTERRES
   131   64  189 1    
   132   65   66 2    
   133   67   68 2    
   134   67   69 am   BACKBONE|DICT|INTERRES
   135   69   70 1    
   136   69  190 1    
   137   70   71 1    
   138   70   72 1    
   139   70  191 1    
   140   71  192 1    
   141   71  193 1    
   142   71  194 1    
   143   72   73 2    
   144   72   74 am   BACKBONE|DICT|INTERRES
   145   74   75 1    
   146   74  195 1    
   147   75   76 1    
   148   75   77 1    
   149   75  196 1    
   150   76  197 1    
   151   76  198 1    
   152   76  199 1    
   153   77   78 2    
   154   77   79 am   BACKBONE|DICT|INTERRES
   155   79   80 1    
   156   79  200 1    
   157   80   81 1    
   158   80   82 1    
   159   80  201 1    
   160   81  202 1    
   161   81  203 1    
   162   81  204 1    
   163   82   83 2    
   164   82   84 am   BACKBONE|DICT|INTERRES
   165   84   85 1    
   166   84  205 1    
   167   85   86 1    
   168   85   87 1    
   169   85  206 1    
   170   86  207 1    
   171   86  208 1    
   172   86  209 1    
   173   87   88 2    
   174   87   89 am   BACKBONE|DICT|INTERRES
   175   89   90 1    
   176   89  210 1    
   177   90   91 1    
   178   90   92 1    
   179   90  211 1    
   180   91  212 1    
   181   91  213 1    
   182   91  214 1    
   183   92   93 2    
   184   92   94 am   BACKBONE|DICT|INTERRES
   185   94   95 1    
   186   94  215 1    
   187   95   96 1    
   188   95   97 1    
   189   95  216 1    
   190   96  217 1    
   191   96  218 1    
   192   96  219 1    
   193   97   98 2    
   194   97   99 am   BACKBONE|DICT|INTERRES
   195   99  100 1    
   196   99  220 1    
   197  100  101 1    
   198  100  102 1    
   199  100  221 1    
   200  101  222 1    
   201  101  223 1    
   202  101  224 1    
   203  102  103 2    
   204  102  104 am   BACKBONE|DICT|INTERRES
   205  104  105 1    
   206  104  225 1    
   207  105  106 1    
   208  105  107 1    
   209  105  226 1    
   210  106  227 1    
   211  106  228 1    
   212  106  229 1    
   213  107  108 2    
   214  107  109 am   BACKBONE|DICT|INTERRES
   215  109  110 1    
   216  109  230 1    
   217  110  111 1    
   218  110  112 1    
   219  110  231 1    
   220  111  232 1    
   221  111  233 1    
   222  111  234 1    
   223  112  113 2    
   224  112  114 am   BACKBONE|DICT|INTERRES
   225  114  115 1    
   226  114  235 1    
   227  115  116 1    
   228  115  117 1    
   229  115  236 1    
   230  116  237 1    
   231  116  238 1    
   232  116  239 1    
   233  117  118 2    
   234  117  119 am   BACKBONE|DICT|INTERRES
   235  119  120 1    
   236  119  240 1    
   237  120  121 1    
   238  120  124 1    
   239  120  241 1    
   240  121  122 am   BACKBONE|DICT|INTERRES
   241  121  123 2    
   242  122  242 1    
   243  122  243 1    
   244  124  125 1    
   245  124  244 1    
   246  124  245 1    
   247  125  126 1    
   248  126  246 1    
   249  126  247 1    
@<TRIPOS>SUBSTRUCTURE
     1 UNK         1 GROUP             0       ****    0 ROOT    
