@<TRIPOS>MOLECULE
3R540
247   249    1
SMALL
USER_CHARGES


@<TRIPOS>ATOM
      1 CA         -0.3064  -14.2079  -47.2676 C.3       0 UNK        -0.1800 
      2 C           0.5246  -13.2465  -48.1025 C.2       0 UNK         0.5000 
      3 O           0.5708  -12.0538  -47.8005 O.2       0 UNK        -0.5000 
      4 N           1.1881  -13.7556  -49.1482 N.am      1 UNK        -0.5000 
      5 CA          2.1100  -12.9975  -49.9994 C.3       1 UNK         0.1400 
      6 C6          2.4204  -13.7178  -51.3353 C.3       23 UNK        -0.0398 
      7 S7          0.9417  -13.8676  -52.3968 S.3       23 UNK        -0.2404 
      8 C8          0.7721  -15.6718  -52.5821 C.3       23 UNK        -0.0205 
      9 C9          0.4382  -16.3552  -51.2655 C.ar      23 UNK        -0.0193 
     10 C10        -0.8334  -16.2144  -50.7049 C.ar      23 UNK        -0.1150 
     11 C11        -1.1457  -16.8339  -49.4925 C.ar      23 UNK        -0.0193 
     12 C12        -0.1728  -17.5955  -48.8380 C.ar      23 UNK        -0.1150 
     13 C13         1.1031  -17.7490  -49.3912 C.ar      23 UNK        -0.0193 
     14 C14         1.3994  -17.1265  -50.6070 C.ar      23 UNK        -0.1150 
     15 C15         2.1754  -18.5614  -48.6773 C.3       23 UNK        -0.0205 
     16 S16         1.7970  -20.3442  -48.6468 S.3       23 UNK        -0.2404 
     17 C17         1.1569  -20.5031  -46.9496 C.3       23 UNK        -0.0398 
     18 CA          0.3030  -21.7631  -46.6817 C.3       11 UNK         0.1400 
     19 N           0.1174  -21.9516  -45.2408 N.am      11 UNK        -0.5000 
     20 C          -0.4411  -23.0173  -44.6528 C.2       10 UNK         0.5000 
     21 O          -0.8224  -24.0137  -45.2636 O.2       10 UNK        -0.5000 
     22 CA         -0.6615  -22.9257  -43.1305 C.3       10 UNK         0.1400 
     23 CB          0.6358  -23.2251  -42.3654 C.3       10 UNK        -0.1800 
     24 N          -1.1836  -21.6186  -42.7257 N.am      10 UNK        -0.5000 
     25 C          -2.3782  -21.1371  -43.0989 C.2       9 UNK         0.5000 
     26 O          -3.1959  -21.7797  -43.7568 O.2       9 UNK        -0.5000 
     27 CA         -2.6882  -19.6769  -42.7255 C.3       9 UNK         0.1400 
     28 CB         -3.2392  -19.5738  -41.2954 C.3       9 UNK        -0.1800 
     29 N          -1.5157  -18.8134  -42.8714 N.am      9 UNK        -0.5000 
     30 C          -0.9699  -18.4754  -44.0486 C.2       8 UNK         0.5000 
     31 O          -1.4238  -18.8227  -45.1376 O.2       8 UNK        -0.5000 
     32 CA          0.3293  -17.6533  -43.9995 C.3       8 UNK         0.1400 
     33 CB          0.0135  -16.1564  -43.8635 C.3       8 UNK        -0.1800 
     34 N           1.2102  -18.0831  -42.9111 N.am      8 UNK        -0.5000 
     35 C           1.8477  -19.2650  -42.8895 C.2       7 UNK         0.5000 
     36 O           1.7784  -20.0842  -43.8031 O.2       7 UNK        -0.5000 
     37 CA          2.6590  -19.6252  -41.6287 C.3       7 UNK         0.1400 
     38 CB          4.1078  -19.1362  -41.7692 C.3       7 UNK        -0.1800 
     39 N           2.0893  -19.0839  -40.3966 N.am      7 UNK        -0.5000 
     40 C           0.8560  -19.3336  -39.9345 C.2       6 UNK         0.5000 
     41 O           0.0950  -20.1572  -40.4431 O.2       6 UNK        -0.5000 
     42 CA          0.3684  -18.4697  -38.7504 C.3       6 UNK         0.1400 
     43 CB          0.4731  -19.2562  -37.4357 C.3       6 UNK        -0.1800 
     44 N           1.0789  -17.1897  -38.6044 N.am      6 UNK        -0.5000 
     45 C           1.1537  -16.2348  -39.5431 C.2       5 UNK         0.5000 
     46 O           0.6044  -16.3267  -40.6434 O.2       5 UNK        -0.5000 
     47 CA          2.0583  -15.0282  -39.2282 C.3       5 UNK         0.1400 
     48 CB          3.5250  -15.4723  -39.0844 C.3       5 UNK        -0.1800 
     49 N           1.9915  -14.0289  -40.2941 N.am      5 UNK        -0.5000 
     50 C           1.0478  -13.0851  -40.4083 C.2       4 UNK         0.5000 
     51 O           0.1653  -12.9050  -39.5674 O.2       4 UNK        -0.5000 
     52 CA          1.0941  -12.1870  -41.6613 C.3       4 UNK         0.1400 
     53 CB          1.1672  -10.6961  -41.2847 C.3       4 UNK        -0.1800 
     54 N           2.2176  -12.5151  -42.5473 N.am      4 UNK        -0.5000 
     55 C           2.1491  -12.5489  -43.8826 C.2       3 UNK         0.5000 
     56 O           1.1301  -12.2953  -44.5272 O.2       3 UNK        -0.5000 
     57 CA          3.4318  -12.9501  -44.6235 C.3       3 UNK         0.1400 
     58 CB          3.4489  -14.4599  -44.9204 C.3       3 UNK        -0.1800 
     59 N           3.5144  -12.2070  -45.8771 N.am      3 UNK        -0.5000 
     60 C           4.6486  -11.7696  -46.4386 C.2       2 UNK         0.5000 
     61 O           5.7657  -11.9749  -45.9594 O.2       2 UNK        -0.5000 
     62 CA          4.5046  -10.9618  -47.7480 C.3       2 UNK         0.1400 
     63 CB          5.8351  -10.8002  -48.5141 C.3       2 UNK        -0.1800 
     64 N           3.4519  -11.4801  -48.6286 N.am      2 UNK        -0.5000 
     65 C           3.3964  -12.6890  -49.2070 C.2       1 UNK         0.5000 
     66 O           4.2726  -13.5499  -49.1077 O.2       1 UNK        -0.5000 
     67 C          -1.0455  -21.7435  -47.4371 C.2       11 UNK         0.5000 
     68 O          -1.1689  -22.3979  -48.4721 O.2       11 UNK        -0.5000 
     69 N          -2.0505  -21.0512  -46.8795 N.am      12 UNK        -0.5000 
     70 CA         -3.4224  -21.0275  -47.3888 C.3       12 UNK         0.1400 
     71 CB         -4.2578  -20.0063  -46.6009 C.3       12 UNK        -0.1800 
     72 C          -4.0873  -22.4143  -47.3597 C.2       12 UNK         0.5000 
     73 O          -4.6602  -22.8292  -48.3671 O.2       12 UNK        -0.5000 
     74 N          -3.9574  -23.1242  -46.2292 N.am      13 UNK        -0.5000 
     75 CA         -4.4575  -24.4882  -46.0323 C.3       13 UNK         0.1400 
     76 CB         -4.2866  -24.8863  -44.5588 C.3       13 UNK        -0.1800 
     77 C          -3.7895  -25.5238  -46.9586 C.2       13 UNK         0.5000 
     78 O          -4.4544  -26.4589  -47.4051 O.2       13 UNK        -0.5000 
     79 N          -2.5021  -25.3153  -47.2641 N.am      14 UNK        -0.5000 
     80 CA         -1.7185  -26.0918  -48.2278 C.3       14 UNK         0.1400 
     81 CB         -0.2242  -25.8724  -47.9391 C.3       14 UNK        -0.1800 
     82 C          -2.0437  -25.7673  -49.7033 C.2       14 UNK         0.5000 
     83 O          -1.5050  -26.4342  -50.5873 O.2       14 UNK        -0.5000 
     84 N          -2.9080  -24.7690  -49.9398 N.am      15 UNK        -0.5000 
     85 CA         -3.3429  -24.2314  -51.2274 C.3       15 UNK         0.1400 
     86 CB         -4.0816  -25.2889  -52.0731 C.3       15 UNK        -0.1800 
     87 C          -2.1893  -23.5481  -51.9783 C.2       15 UNK         0.5000 
     88 O          -1.6485  -24.1030  -52.9356 O.2       15 UNK        -0.5000 
     89 N          -1.8464  -22.3359  -51.5261 N.am      16 UNK        -0.5000 
     90 CA         -0.8213  -21.4529  -52.0875 C.3       16 UNK         0.1400 
     91 CB         -0.8375  -20.1292  -51.3104 C.3       16 UNK        -0.1800 
     92 C          -0.9675  -21.1733  -53.5978 C.2       16 UNK         0.5000 
     93 O           0.0447  -21.0577  -54.2894 O.2       16 UNK        -0.5000 
     94 N          -2.2136  -21.0949  -54.0848 N.am      17 UNK        -0.5000 
     95 CA         -2.5497  -20.9033  -55.4978 C.3       17 UNK         0.1400 
     96 CB         -3.7385  -19.9341  -55.5888 C.3       17 UNK        -0.1800 
     97 C          -2.8420  -22.2293  -56.2332 C.2       17 UNK         0.5000 
     98 O          -3.3352  -22.1917  -57.3604 O.2       17 UNK        -0.5000 
     99 N          -2.5646  -23.3737  -55.5885 N.am      18 UNK        -0.5000 
    100 CA        -2.7839  -24.7638  -56.0207 C.3       18 UNK         0.1400 
    101 CB        -2.1138  -25.0575  -57.3778 C.3       18 UNK        -0.1800 
    102 C         -4.2576  -25.2216  -56.0013 C.2       18 UNK         0.5000 
    103 O         -4.5113  -26.4267  -56.0127 O.2       18 UNK        -0.5000 
    104 N         -5.1977  -24.2767  -55.9295 N.am      19 UNK        -0.5000 
    105 CA        -6.6328  -24.4719  -55.7843 C.3       19 UNK         0.1400 
    106 CB        -7.2596  -24.8562  -57.1364 C.3       19 UNK        -0.1800 
    107 C         -7.2234  -23.1591  -55.2533 C.2       19 UNK         0.5000 
    108 O         -6.6401  -22.0974  -55.4861 O.2       19 UNK        -0.5000 
    109 N         -8.3657  -23.2561  -54.5579 N.am      20 UNK        -0.5000 
    110 CA        -9.1138  -22.1474  -53.9463 C.3       20 UNK         0.1400 
    111 CB        -9.7357  -21.2454  -55.0336 C.3       20 UNK        -0.1800 
    112 C         -8.2834  -21.3569  -52.9102 C.2       20 UNK         0.5000 
    113 O         -8.3404  -20.1254  -52.8748 O.2       20 UNK        -0.5000 
    114 N         -7.5142  -22.0935  -52.0936 N.am      21 UNK        -0.5000 
    115 CA        -6.5782  -21.6027  -51.0788 C.3       21 UNK         0.1400 
    116 CB        -7.3376  -20.9720  -49.8892 C.3       21 UNK        -0.1800 
    117 C         -5.5038  -20.6864  -51.7023 C.2       21 UNK         0.5000 
    118 O         -4.6314  -21.1820  -52.4182 O.2       21 UNK        -0.5000 
    119 N         -5.5973  -19.3816  -51.4299 N.am      22 UNK        -0.5000 
    120 CA        -4.7378  -18.3256  -51.9861 C.3       22 UNK         0.1400 
    121 C         -5.3205  -17.6660  -53.2710 C.2       22 UNK         0.5000 
    122 N         -6.4834  -18.0683  -53.7708 N.am      22 UNK        -0.7600 
    123 O         -4.6989  -16.7704  -53.8357 O.2       22 UNK        -0.5000 
    124 C124       -4.3985  -17.2498  -50.9214 C.3       23 UNK        -0.0398 
    125 S125       -3.6739  -17.9584  -49.4042 S.3       23 UNK        -0.2404 
    126 C126       -2.5213  -16.6599  -48.8697 C.3       23 UNK        -0.0205 
    127 H127       -0.3211  -13.8865  -46.2266 H         1 UNK         0.0600 
    128 H128        0.1022  -15.2173  -47.2995 H         1 UNK         0.0600 
    129 H129       -1.3331  -14.2306  -47.6308 H         1 UNK         0.0600 
    130 H130        1.1011  -14.7388  -49.3653 H         1 UNK         0.3000 
    131 H131        1.6338  -12.0470  -50.2509 H         1 UNK         0.0600 
    132 H132        3.1662  -13.1565  -51.9010 H         1 UNK         0.0800 
    133 H133        2.8592  -14.7001  -51.1555 H         1 UNK         0.0800 
    134 H134        1.6881  -16.0794  -53.0128 H         1 UNK         0.0800 
    135 H135       -0.0208  -15.8792  -53.3021 H         1 UNK         0.0800 
    136 H136       -1.5727  -15.6101  -51.2105 H         1 UNK         0.1150 
    137 H137       -0.4175  -18.0662  -47.8976 H         1 UNK         0.1150 
    138 H138        2.3832  -17.2387  -51.0408 H         1 UNK         0.1150 
    139 H139        3.1392  -18.4309  -49.1718 H         1 UNK         0.0800 
    140 H140        2.3094  -18.1786  -47.6645 H         1 UNK         0.0800 
    141 H141        0.6056  -19.6067  -46.6714 H         1 UNK         0.0800 
    142 H142        2.0373  -20.5216  -46.3072 H         1 UNK         0.0800 
    143 H143        0.8625  -22.6290  -47.0413 H         1 UNK         0.0600 
    144 H144        0.4635  -21.2026  -44.6482 H         1 UNK         0.3000 
    145 H145       -1.4004  -23.6805  -42.8537 H         1 UNK         0.0600 
    146 H146        0.4784  -23.1790  -41.2876 H         1 UNK         0.0600 
    147 H147        1.4269  -22.5200  -42.6186 H         1 UNK         0.0600 
    148 H148        1.0022  -24.2252  -42.5997 H         1 UNK         0.0600 
    149 H149       -0.5935  -21.0466  -42.1306 H         1 UNK         0.3000 
    150 H150       -3.4598  -19.3161  -43.4088 H         1 UNK         0.0600 
    151 H151       -4.1469  -20.1689  -41.1870 H         1 UNK         0.0600 
    152 H152       -3.4942  -18.5442  -41.0443 H         1 UNK         0.0600 
    153 H153       -2.5248  -19.9328  -40.5549 H         1 UNK         0.0600 
    154 H154       -1.0552  -18.5197  -42.0223 H         1 UNK         0.3000 
    155 H155        0.8586  -17.8007  -44.9433 H         1 UNK         0.0600 
    156 H156       -0.5671  -15.8065  -44.7171 H         1 UNK         0.0600 
    157 H157        0.9226  -15.5586  -43.8182 H         1 UNK         0.0600 
    158 H158       -0.5704  -15.9439  -42.9677 H         1 UNK         0.0600 
    159 H159        1.2478  -17.4770  -42.0973 H         1 UNK         0.3000 
    160 H160        2.6699  -20.7129  -41.5391 H         1 UNK         0.0600 
    161 H161        4.1614  -18.0487  -41.8364 H         1 UNK         0.0600 
    162 H162        4.5716  -19.5440  -42.6685 H         1 UNK         0.0600 
    163 H163        4.7154  -19.4513  -40.9207 H         1 UNK         0.0600 
    164 H164        2.6450  -18.3994  -39.9069 H         1 UNK         0.3000 
    165 H165       -0.6842  -18.2433  -38.9317 H         1 UNK         0.0600 
    166 H166        0.0434  -18.6961  -36.6049 H         1 UNK         0.0600 
    167 H167       -0.0674  -20.2016  -37.5015 H         1 UNK         0.0600 
    168 H168        1.5095  -19.4871  -37.1865 H         1 UNK         0.0600 
    169 H169        1.5634  -17.0494  -37.7293 H         1 UNK         0.3000 
    170 H170        1.7278  -14.5846  -38.2867 H         1 UNK         0.0600 
    171 H171        4.1751  -14.6195  -38.8872 H         1 UNK         0.0600 
    172 H172        3.6531  -16.1674  -38.2539 H         1 UNK         0.0600 
    173 H173        3.8885  -15.9665  -39.9864 H         1 UNK         0.0600 
    174 H174        2.6202  -14.1705  -41.0680 H         1 UNK         0.3000 
    175 H175        0.1509  -12.3633  -42.1828 H         1 UNK         0.0600 
    176 H176        2.0865  -10.4641  -40.7460 H         1 UNK         0.0600 
    177 H177        1.1297  -10.0640  -42.1721 H         1 UNK         0.0600 
    178 H178        0.3298  -10.4075  -40.6483 H         1 UNK         0.0600 
    179 H179        3.1050  -12.6848  -42.0957 H         1 UNK         0.3000 
    180 H180        4.2848  -12.7000  -43.9890 H         1 UNK         0.0600 
    181 H181        4.3699  -14.7508  -45.4260 H         1 UNK         0.0600 
    182 H182        2.6134  -14.7524  -45.5581 H         1 UNK         0.0600 
    183 H183        3.3851  -15.0431  -44.0011 H         1 UNK         0.0600 
    184 H184        2.6213  -11.9762  -46.2971 H         1 UNK         0.3000 
    185 H185        4.1816   -9.9643  -47.4469 H         1 UNK         0.0600 
    186 H186        6.2629  -11.7631  -48.7946 H         1 UNK         0.0600 
    187 H187        5.6980  -10.2160  -49.4239 H         1 UNK         0.0600 
    188 H188        6.5755  -10.2801  -47.9053 H         1 UNK         0.0600 
    189 H189        2.6412  -10.8826  -48.7239 H         1 UNK         0.3000 
    190 H190       -1.8617  -20.4806  -46.0611 H         1 UNK         0.3000 
    191 H191       -3.3781  -20.7052  -48.4304 H         1 UNK         0.0600 
    192 H192       -3.7860  -19.0238  -46.6002 H         1 UNK         0.0600 
    193 H193       -4.3989  -20.3055  -45.5633 H         1 UNK         0.0600 
    194 H194       -5.2470  -19.8911  -47.0449 H         1 UNK         0.0600 
    195 H195       -3.5016  -22.6895  -45.4311 H         1 UNK         0.3000 
    196 H196       -5.5250  -24.4837  -46.2614 H         1 UNK         0.0600 
    197 H197       -4.8200  -24.2001  -43.9007 H         1 UNK         0.0600 
    198 H198       -3.2378  -24.8866  -44.2612 H         1 UNK         0.0600 
    199 H199       -4.6810  -25.8865  -44.3754 H         1 UNK         0.0600 
    200 H200       -2.0105  -24.5645  -46.7893 H         1 UNK         0.3000 
    201 H201       -1.9395  -27.1501  -48.0756 H         1 UNK         0.0600 
    202 H202        0.0253  -26.1526  -46.9156 H         1 UNK         0.0600 
    203 H203        0.0622  -24.8302  -48.0806 H         1 UNK         0.0600 
    204 H204        0.3980  -26.4765  -48.6005 H         1 UNK         0.0600 
    205 H205       -3.2699  -24.2723  -49.1346 H         1 UNK         0.3000 
    206 H206       -4.0658  -23.4537  -50.9918 H         1 UNK         0.0600 
    207 H207       -3.4222  -26.0938  -52.3983 H         1 UNK         0.0600 
    208 H208       -4.9049  -25.7341  -51.5147 H         1 UNK         0.0600 
    209 H209       -4.5054  -24.8335  -52.9684 H         1 UNK         0.0600 
    210 H210       -2.3028  -21.9947  -50.6926 H         1 UNK         0.3000 
    211 H211        0.1445  -21.9359  -51.9283 H         1 UNK         0.0600 
    212 H212       -1.7810  -19.5982  -51.4327 H         1 UNK         0.0600 
    213 H213       -0.0418  -19.4668  -51.6519 H         1 UNK         0.0600 
    214 H214       -0.6898  -20.2910  -50.2438 H         1 UNK         0.0600 
    215 H215       -2.9995  -21.2022  -53.4467 H         1 UNK         0.3000 
    216 H216       -1.7104  -20.4393  -56.0192 H         1 UNK         0.0600 
    217 H217       -4.0341  -19.7564  -56.6233 H         1 UNK         0.0600 
    218 H218       -3.4784  -18.9664  -55.1619 H         1 UNK         0.0600 
    219 H219       -4.6117  -20.3141  -55.0576 H         1 UNK         0.0600 
    220 H220       -2.1733  -23.3006  -54.6539 H         1 UNK         0.3000 
    221 H221       -2.2758  -25.3769  -55.2751 H         1 UNK         0.0600 
    222 H222       -2.6155  -24.5498  -58.2016 H         1 UNK         0.0600 
    223 H223       -1.0681  -24.7502  -57.3773 H         1 UNK         0.0600 
    224 H224       -2.1379  -26.1256  -57.5971 H         1 UNK         0.0600 
    225 H225       -4.9189  -23.3025  -55.9337 H         1 UNK         0.3000 
    226 H226       -6.8135  -25.2622  -55.0527 H         1 UNK         0.0600 
    227 H227       -6.8562  -25.7978  -57.5090 H         1 UNK         0.0600 
    228 H228       -8.3394  -24.9800  -57.0466 H         1 UNK         0.0600 
    229 H229       -7.0775  -24.0916  -57.8927 H         1 UNK         0.0600 
    230 H230       -8.7680  -24.1738  -54.4238 H         1 UNK         0.3000 
    231 H231       -9.9355  -22.6004  -53.3898 H         1 UNK         0.0600 
    232 H232      -10.3973  -20.4997  -54.5913 H         1 UNK         0.0600 
    233 H233      -10.3299  -21.8282  -55.7372 H         1 UNK         0.0600 
    234 H234       -8.9740  -20.7096  -55.6009 H         1 UNK         0.0600 
    235 H235       -7.5182  -23.0936  -52.2315 H         1 UNK         0.3000 
    236 H236       -6.0574  -22.4780  -50.6942 H         1 UNK         0.0600 
    237 H237       -7.9499  -20.1201  -50.1857 H         1 UNK         0.0600 
    238 H238       -7.9978  -21.7029  -49.4225 H         1 UNK         0.0600 
    239 H239       -6.6435  -20.6335  -49.1187 H         1 UNK         0.0600 
    240 H240       -6.3632  -19.0661  -50.8538 H         1 UNK         0.3000 
    241 H241       -3.7954  -18.7759  -52.3004 H         1 UNK         0.0600 
    242 H242       -6.8357  -17.6287  -54.6053 H         1 UNK         0.3800 
    243 H243       -7.0232  -18.8119  -53.3359 H         1 UNK         0.3800 
    244 H244       -5.2945  -16.6944  -50.6400 H         1 UNK         0.0800 
    245 H245       -3.7048  -16.5190  -51.3372 H         1 UNK         0.0800 
    246 H246       -2.4369  -16.7019  -47.7825 H         1 UNK         0.0800 
    247 H247       -2.9296  -15.6756  -49.1033 H         1 UNK         0.0800 
@<TRIPOS>BOND
     1    1    2 1    
     2    1  127 1    
     3    1  128 1    
     4    1  129 1    
     5    2    3 2    
     6    2    4 am   BACKBONE|DICT|INTERRES
     7    4    5 1    
     8    4  130 1    
     9    5    6 1    
    10    5   65 1    
    11    5  131 1    
    12    6    7 1    
    13    6  132 1    
    14    6  133 1    
    15    7    8 1    
    16    8    9 1    
    17    8  134 1    
    18    8  135 1    
    19    9   10 ar   
    20    9   14 ar   
    21   10   11 ar   
    22   10  136 1    
    23   11   12 ar   
    24   11  126 1    
    25   12   13 ar   
    26   12  137 1    
    27   13   14 ar   
    28   13   15 1    
    29   14  138 1    
    30   15   16 1    
    31   15  139 1    
    32   15  140 1    
    33   16   17 1    
    34   17   18 1    
    35   17  141 1    
    36   17  142 1    
    37   18   19 1    
    38   18   67 1    
    39   18  143 1    
    40   19   20 am   BACKBONE|DICT|INTERRES
    41   19  144 1    
    42   20   21 2    
    43   20   22 1    
    44   22   23 1    
    45   22   24 1    
    46   22  145 1    
    47   23  146 1    
    48   23  147 1    
    49   23  148 1    
    50   24   25 am   BACKBONE|DICT|INTERRES
    51   24  149 1    
    52   25   26 2    
    53   25   27 1    
    54   27   28 1    
    55   27   29 1    
    56   27  150 1    
    57   28  151 1    
    58   28  152 1    
    59   28  153 1    
    60   29   30 am   BACKBONE|DICT|INTERRES
    61   29  154 1    
    62   30   31 2    
    63   30   32 1    
    64   32   33 1    
    65   32   34 1    
    66   32  155 1    
    67   33  156 1    
    68   33  157 1    
    69   33  158 1    
    70   34   35 am   BACKBONE|DICT|INTERRES
    71   34  159 1    
    72   35   36 2    
    73   35   37 1    
    74   37   38 1    
    75   37   39 1    
    76   37  160 1    
    77   38  161 1    
    78   38  162 1    
    79   38  163 1    
    80   39   40 am   BACKBONE|DICT|INTERRES
    81   39  164 1    
    82   40   41 2    
    83   40   42 1    
    84   42   43 1    
    85   42   44 1    
    86   42  165 1    
    87   43  166 1    
    88   43  167 1    
    89   43  168 1    
    90   44   45 am   BACKBONE|DICT|INTERRES
    91   44  169 1    
    92   45   46 2    
    93   45   47 1    
    94   47   48 1    
    95   47   49 1    
    96   47  170 1    
    97   48  171 1    
    98   48  172 1    
    99   48  173 1    
   100   49   50 am   BACKBONE|DICT|INTERRES
   101   49  174 1    
   102   50   51 2    
   103   50   52 1    
   104   52   53 1    
   105   52   54 1    
   106   52  175 1    
   107   53  176 1    
   108   53  177 1    
   109   53  178 1    
   110   54   55 am   BACKBONE|DICT|INTERRES
   111   54  179 1    
   112   55   56 2    
   113   55   57 1    
   114   57   58 1    
   115   57   59 1    
   116   57  180 1    
   117   58  181 1    
   118   58  182 1    
   119   58  183 1    
   120   59   60 am   BACKBONE|DICT|INTERRES
   121   59  184 1    
   122   60   61 2    
   123   60   62 1    
   124   62   63 1    
   125   62   64 1    
   126   62  185 1    
   127   63  186 1    
   128   63  187 1    
   129   63  188 1    
   130   64   65 am   BACKBONE|DICT|INTERRES
   131   64  189 1    
   132   65   66 2    
   133   67   68 2    
   134   67   69 am   BACKBONE|DICT|INTERRES
   135   69   70 1    
   136   69  190 1    
   137   70   71 1    
   138   70   72 1    
   139   70  191 1    
   140   71  192 1    
   141   71  193 1    
   142   71  194 1    
   143   72   73 2    
   144   72   74 am   BACKBONE|DICT|INTERRES
   145   74   75 1    
   146   74  195 1    
   147   75   76 1    
   148   75   77 1    
   149   75  196 1    
   150   76  197 1    
   151   76  198 1    
   152   76  199 1    
   153   77   78 2    
   154   77   79 am   BACKBONE|DICT|INTERRES
   155   79   80 1    
   156   79  200 1    
   157   80   81 1    
   158   80   82 1    
   159   80  201 1    
   160   81  202 1    
   161   81  203 1    
   162   81  204 1    
   163   82   83 2    
   164   82   84 am   BACKBONE|DICT|INTERRES
   165   84   85 1    
   166   84  205 1    
   167   85   86 1    
   168   85   87 1    
   169   85  206 1    
   170   86  207 1    
   171   86  208 1    
   172   86  209 1    
   173   87   88 2    
   174   87   89 am   BACKBONE|DICT|INTERRES
   175   89   90 1    
   176   89  210 1    
   177   90   91 1    
   178   90   92 1    
   179   90  211 1    
   180   91  212 1    
   181   91  213 1    
   182   91  214 1    
   183   92   93 2    
   184   92   94 am   BACKBONE|DICT|INTERRES
   185   94   95 1    
   186   94  215 1    
   187   95   96 1    
   188   95   97 1    
   189   95  216 1    
   190   96  217 1    
   191   96  218 1    
   192   96  219 1    
   193   97   98 2    
   194   97   99 am   BACKBONE|DICT|INTERRES
   195   99  100 1    
   196   99  220 1    
   197  100  101 1    
   198  100  102 1    
   199  100  221 1    
   200  101  222 1    
   201  101  223 1    
   202  101  224 1    
   203  102  103 2    
   204  102  104 am   BACKBONE|DICT|INTERRES
   205  104  105 1    
   206  104  225 1    
   207  105  106 1    
   208  105  107 1    
   209  105  226 1    
   210  106  227 1    
   211  106  228 1    
   212  106  229 1    
   213  107  108 2    
   214  107  109 am   BACKBONE|DICT|INTERRES
   215  109  110 1    
   216  109  230 1    
   217  110  111 1    
   218  110  112 1    
   219  110  231 1    
   220  111  232 1    
   221  111  233 1    
   222  111  234 1    
   223  112  113 2    
   224  112  114 am   BACKBONE|DICT|INTERRES
   225  114  115 1    
   226  114  235 1    
   227  115  116 1    
   228  115  117 1    
   229  115  236 1    
   230  116  237 1    
   231  116  238 1    
   232  116  239 1    
   233  117  118 2    
   234  117  119 am   BACKBONE|DICT|INTERRES
   235  119  120 1    
   236  119  240 1    
   237  120  121 1    
   238  120  124 1    
   239  120  241 1    
   240  121  122 am   BACKBONE|DICT|INTERRES
   241  121  123 2    
   242  122  242 1    
   243  122  243 1    
   244  124  125 1    
   245  124  244 1    
   246  124  245 1    
   247  125  126 1    
   248  126  246 1    
   249  126  247 1    
@<TRIPOS>SUBSTRUCTURE
     1 UNK         1 GROUP             0       ****    0 ROOT    
