@<TRIPOS>MOLECULE
3R540
247   249    1
SMALL
USER_CHARGES


@<TRIPOS>ATOM
      1 CA         -0.3738   -8.9956  -47.2297 C.3       0 UNK        -0.1800 
      2 C           0.2344   -9.9423  -46.2066 C.2       0 UNK         0.5000 
      3 O           1.4378   -9.8805  -45.9541 O.2       0 UNK        -0.5000 
      4 N          -0.5924  -10.8040  -45.5986 N.am      1 UNK        -0.5000 
      5 CA         -0.2090  -11.8511  -44.6365 C.3       1 UNK         0.1400 
      6 C6         -1.3952  -12.7932  -44.3220 C.3       23 UNK        -0.0398 
      7 S7         -1.6395  -14.0184  -45.6472 S.3       23 UNK        -0.2404 
      8 C8         -3.1586  -13.4342  -46.4476 C.3       23 UNK        -0.0205 
      9 C9         -3.7422  -14.5334  -47.3181 C.ar      23 UNK        -0.0193 
     10 C10        -3.3771  -14.6476  -48.6622 C.ar      23 UNK        -0.1150 
     11 C11        -3.9055  -15.6701  -49.4573 C.ar      23 UNK        -0.0193 
     12 C12        -4.8068  -16.5795  -48.8934 C.ar      23 UNK        -0.1150 
     13 C13        -5.1781  -16.4762  -47.5481 C.ar      23 UNK        -0.0193 
     14 C14        -4.6406  -15.4500  -46.7680 C.ar      23 UNK        -0.1150 
     15 C15        -6.1723  -17.4506  -46.9274 C.3       23 UNK        -0.0205 
     16 S16        -5.7762  -19.1978  -47.2501 S.3       23 UNK        -0.2404 
     17 C17        -4.1032  -19.3437  -46.5348 C.3       23 UNK        -0.0398 
     18 CA         -3.5859  -20.7967  -46.6421 C.3       11 UNK         0.1400 
     19 N          -2.1307  -20.8820  -46.8064 N.am      11 UNK        -0.5000 
     20 C          -1.4790  -22.0034  -47.1474 C.2       10 UNK         0.5000 
     21 O          -2.0434  -23.0765  -47.3549 O.2       10 UNK        -0.5000 
     22 CA          0.0530  -21.9393  -47.2364 C.3       10 UNK         0.1400 
     23 CB          0.4963  -21.2626  -48.5414 C.3       10 UNK        -0.1800 
     24 N           0.6421  -21.2645  -46.0816 N.am      10 UNK        -0.5000 
     25 C           0.5756  -21.7324  -44.8261 C.2       9 UNK         0.5000 
     26 O           0.0773  -22.8178  -44.5283 O.2       9 UNK        -0.5000 
     27 CA          1.1166  -20.8214  -43.7097 C.3       9 UNK         0.1400 
     28 CB          2.6407  -20.9613  -43.5836 C.3       9 UNK        -0.1800 
     29 N           0.7679  -19.4137  -43.9026 N.am      9 UNK        -0.5000 
     30 C          -0.4822  -18.9278  -43.9310 C.2       8 UNK         0.5000 
     31 O          -1.4919  -19.6135  -43.7676 O.2       8 UNK        -0.5000 
     32 CA         -0.6254  -17.4308  -44.2581 C.3       8 UNK         0.1400 
     33 CB         -0.2578  -16.5650  -43.0431 C.3       8 UNK        -0.1800 
     34 N           0.1918  -17.0459  -45.4091 N.am      8 UNK        -0.5000 
     35 C           0.0196  -17.5235  -46.6503 C.2       7 UNK         0.5000 
     36 O          -0.8756  -18.3060  -46.9669 O.2       7 UNK        -0.5000 
     37 CA          1.0664  -17.1145  -47.6977 C.3       7 UNK         0.1400 
     38 CB          0.7188  -15.7557  -48.3254 C.3       7 UNK        -0.1800 
     39 N           2.4140  -17.0851  -47.1244 N.am      7 UNK        -0.5000 
     40 C           3.1012  -18.1860  -46.7811 C.2       6 UNK         0.5000 
     41 O           2.6819  -19.3292  -46.9561 O.2       6 UNK        -0.5000 
     42 CA          4.4666  -17.9859  -46.0957 C.3       6 UNK         0.1400 
     43 CB          5.5785  -17.8359  -47.1443 C.3       6 UNK        -0.1800 
     44 N           4.4927  -16.8326  -45.1971 N.am      6 UNK        -0.5000 
     45 C           3.7683  -16.7196  -44.0746 C.2       5 UNK         0.5000 
     46 O           3.0491  -17.6167  -43.6365 O.2       5 UNK        -0.5000 
     47 CA          3.8120  -15.3553  -43.3548 C.3       5 UNK         0.1400 
     48 CB          4.8899  -15.3538  -42.2617 C.3       5 UNK        -0.1800 
     49 N           4.0420  -14.2252  -44.2614 N.am      5 UNK        -0.5000 
     50 C           3.2442  -13.8929  -45.2835 C.2       4 UNK         0.5000 
     51 O           2.2029  -14.4965  -45.5465 O.2       4 UNK        -0.5000 
     52 CA          3.7106  -12.7191  -46.1651 C.3       4 UNK         0.1400 
     53 CB          2.8635  -12.5711  -47.4423 C.3       4 UNK        -0.1800 
     54 N           3.6992  -11.4527  -45.4360 N.am      4 UNK        -0.5000 
     55 C           4.6424  -11.0372  -44.5793 C.2       3 UNK         0.5000 
     56 O           5.6254  -11.7140  -44.2730 O.2       3 UNK        -0.5000 
     57 CA          4.4526   -9.6454  -43.9535 C.3       3 UNK         0.1400 
     58 CB          4.8290   -8.5461  -44.9594 C.3       3 UNK        -0.1800 
     59 N           3.0668   -9.4547  -43.5306 N.am      3 UNK        -0.5000 
     60 C           2.6508   -9.3789  -42.2585 C.2       2 UNK         0.5000 
     61 O           3.4078   -9.3618  -41.2871 O.2       2 UNK        -0.5000 
     62 CA          1.1247   -9.3345  -42.0252 C.3       2 UNK         0.1400 
     63 CB          0.6371   -7.8813  -41.9249 C.3       2 UNK        -0.1800 
     64 N           0.3666  -10.0208  -43.0738 N.am      2 UNK        -0.5000 
     65 C           0.4463  -11.3332  -43.3358 C.2       1 UNK         0.5000 
     66 O           1.0474  -12.1284  -42.6128 O.2       1 UNK        -0.5000 
     67 C          -4.1069  -21.6924  -45.4984 C.2       11 UNK         0.5000 
     68 O          -5.1293  -22.3572  -45.6711 O.2       11 UNK        -0.5000 
     69 N          -3.3525  -21.7700  -44.3921 N.am      12 UNK        -0.5000 
     70 CA         -3.5954  -22.6897  -43.2758 C.3       12 UNK         0.1400 
     71 CB         -2.6320  -22.3573  -42.1267 C.3       12 UNK        -0.1800 
     72 C          -3.4877  -24.1808  -43.6647 C.2       12 UNK         0.5000 
     73 O          -4.1208  -25.0191  -43.0229 O.2       12 UNK        -0.5000 
     74 N          -2.7331  -24.4794  -44.7303 N.am      13 UNK        -0.5000 
     75 CA         -2.6061  -25.7949  -45.3575 C.3       13 UNK         0.1400 
     76 CB         -1.1384  -26.0031  -45.7742 C.3       13 UNK        -0.1800 
     77 C          -3.5768  -25.9583  -46.5490 C.2       13 UNK         0.5000 
     78 O          -3.2721  -26.6991  -47.4847 O.2       13 UNK        -0.5000 
     79 N          -4.7202  -25.2558  -46.5114 N.am      14 UNK        -0.5000 
     80 CA         -5.7947  -25.2459  -47.5116 C.3       14 UNK         0.1400 
     81 CB         -6.4887  -26.6225  -47.5847 C.3       14 UNK        -0.1800 
     82 C          -5.3149  -24.7385  -48.8857 C.2       14 UNK         0.5000 
     83 O          -5.5874  -25.3637  -49.9112 O.2       14 UNK        -0.5000 
     84 N          -4.5664  -23.6271  -48.8654 N.am      15 UNK        -0.5000 
     85 CA         -3.8909  -22.9945  -50.0051 C.3       15 UNK         0.1400 
     86 CB         -4.9148  -22.4240  -51.0053 C.3       15 UNK        -0.1800 
     87 C          -2.8587  -23.9413  -50.6479 C.2       15 UNK         0.5000 
     88 O          -2.8264  -24.0926  -51.8706 O.2       15 UNK        -0.5000 
     89 N          -2.0592  -24.5868  -49.7865 N.am      16 UNK        -0.5000 
     90 CA         -1.0810  -25.6372  -50.0855 C.3       16 UNK         0.1400 
     91 CB          0.1183  -25.0481  -50.8569 C.3       16 UNK        -0.1800 
     92 C          -1.7256  -26.8468  -50.7965 C.2       16 UNK         0.5000 
     93 O          -1.1890  -27.3373  -51.7889 O.2       16 UNK        -0.5000 
     94 N          -2.8916  -27.2735  -50.2893 N.am      17 UNK        -0.5000 
     95 CA         -3.8079  -28.2575  -50.8764 C.3       17 UNK         0.1400 
     96 CB         -3.1893  -29.6707  -50.8507 C.3       17 UNK        -0.1800 
     97 C          -4.3020  -27.8279  -52.2764 C.2       17 UNK         0.5000 
     98 O          -4.2540  -28.6138  -53.2248 O.2       17 UNK        -0.5000 
     99 N          -4.7580  -26.5696  -52.3633 N.am      18 UNK        -0.5000 
    100 CA        -5.2519  -25.8657  -53.5510 C.3       18 UNK         0.1400 
    101 CB        -6.6110  -26.4468  -53.9918 C.3       18 UNK        -0.1800 
    102 C         -4.2223  -25.7893  -54.7002 C.2       18 UNK         0.5000 
    103 O         -4.5883  -25.9552  -55.8657 O.2       18 UNK        -0.5000 
    104 N         -2.9548  -25.5374  -54.3503 N.am      19 UNK        -0.5000 
    105 CA        -1.8301  -25.4469  -55.2842 C.3       19 UNK         0.1400 
    106 CB        -0.8410  -26.5867  -54.9974 C.3       19 UNK        -0.1800 
    107 C         -1.1081  -24.0897  -55.2228 C.2       19 UNK         0.5000 
    108 O         -0.3524  -23.7876  -56.1475 O.2       19 UNK        -0.5000 
    109 N         -1.3286  -23.2968  -54.1618 N.am      20 UNK        -0.5000 
    110 CA        -0.7348  -21.9680  -53.9858 C.3       20 UNK         0.1400 
    111 CB        -0.9791  -21.4333  -52.5632 C.3       20 UNK        -0.1800 
    112 C         -1.1360  -20.9437  -55.0736 C.2       20 UNK         0.5000 
    113 O         -0.2422  -20.2977  -55.6177 O.2       20 UNK        -0.5000 
    114 N         -2.4141  -20.7854  -55.4542 N.am      21 UNK        -0.5000 
    115 CA        -3.6480  -21.2674  -54.8196 C.3       21 UNK         0.1400 
    116 CB        -4.4222  -22.1233  -55.8364 C.3       21 UNK        -0.1800 
    117 C         -4.5107  -20.0898  -54.3130 C.2       21 UNK         0.5000 
    118 O         -5.6380  -20.3123  -53.8711 O.2       21 UNK        -0.5000 
    119 N         -3.9723  -18.8634  -54.3862 N.am      22 UNK        -0.5000 
    120 CA        -4.6547  -17.5874  -54.1176 C.3       22 UNK         0.1400 
    121 C         -5.7888  -17.2586  -55.1416 C.2       22 UNK         0.5000 
    122 N         -6.6422  -16.2835  -54.8596 N.am      22 UNK        -0.7600 
    123 O         -5.8778  -17.8454  -56.2185 O.2       22 UNK        -0.5000 
    124 C124       -5.0776  -17.4319  -52.6248 C.3       23 UNK        -0.0398 
    125 S125       -4.9133  -15.7019  -52.0508 S.3       23 UNK        -0.2404 
    126 C126       -3.4875  -15.7949  -50.9168 C.3       23 UNK        -0.0205 
    127 H127        0.0982   -9.1436  -48.2009 H         1 UNK         0.0600 
    128 H128       -0.2129   -7.9616  -46.9251 H         1 UNK         0.0600 
    129 H129       -1.4461   -9.1555  -47.3439 H         1 UNK         0.0600 
    130 H130       -1.5715  -10.7857  -45.8438 H         1 UNK         0.3000 
    131 H131        0.5709  -12.4412  -45.1187 H         1 UNK         0.0600 
    132 H132       -2.3098  -12.2272  -44.1400 H         1 UNK         0.0800 
    133 H133       -1.2200  -13.3649  -43.4094 H         1 UNK         0.0800 
    134 H134       -3.8881  -13.1360  -45.6931 H         1 UNK         0.0800 
    135 H135       -2.9416  -12.5471  -47.0442 H         1 UNK         0.0800 
    136 H136       -2.6737  -13.9434  -49.0840 H         1 UNK         0.1150 
    137 H137       -5.2208  -17.3696  -49.5038 H         1 UNK         0.1150 
    138 H138       -4.9183  -15.3627  -45.7268 H         1 UNK         0.1150 
    139 H139       -6.2365  -17.3049  -45.8479 H         1 UNK         0.0800 
    140 H140       -7.1645  -17.2367  -47.3264 H         1 UNK         0.0800 
    141 H141       -4.0909  -18.9779  -45.5063 H         1 UNK         0.0800 
    142 H142       -3.4566  -18.6744  -47.1026 H         1 UNK         0.0800 
    143 H143       -3.9941  -21.2116  -47.5639 H         1 UNK         0.0600 
    144 H144       -1.6050  -20.0191  -46.6851 H         1 UNK         0.3000 
    145 H145        0.4257  -22.9658  -47.2494 H         1 UNK         0.0600 
    146 H146        1.5806  -21.2890  -48.6494 H         1 UNK         0.0600 
    147 H147        0.0714  -21.7716  -49.4072 H         1 UNK         0.0600 
    148 H148        0.1810  -20.2205  -48.5863 H         1 UNK         0.0600 
    149 H149        1.1289  -20.3922  -46.2604 H         1 UNK         0.3000 
    150 H150        0.6661  -21.1467  -42.7698 H         1 UNK         0.0600 
    151 H151        2.9247  -21.9998  -43.4092 H         1 UNK         0.0600 
    152 H152        3.0227  -20.3743  -42.7481 H         1 UNK         0.0600 
    153 H153        3.1513  -20.6280  -44.4873 H         1 UNK         0.0600 
    154 H154        1.5440  -18.7650  -44.0027 H         1 UNK         0.3000 
    155 H155       -1.6692  -17.2361  -44.5139 H         1 UNK         0.0600 
    156 H156       -0.9480  -16.7443  -42.2182 H         1 UNK         0.0600 
    157 H157       -0.3036  -15.5044  -43.2834 H         1 UNK         0.0600 
    158 H158        0.7467  -16.7759  -42.6782 H         1 UNK         0.0600 
    159 H159        0.9386  -16.3822  -45.2476 H         1 UNK         0.3000 
    160 H160        1.0515  -17.8612  -48.4943 H         1 UNK         0.0600 
    161 H161        0.6749  -14.9602  -47.5821 H         1 UNK         0.0600 
    162 H162       -0.2571  -15.7941  -48.8116 H         1 UNK         0.0600 
    163 H163        1.4493  -15.4702  -49.0821 H         1 UNK         0.0600 
    164 H164        2.7759  -16.1761  -46.8705 H         1 UNK         0.3000 
    165 H165        4.6747  -18.8789  -45.5029 H         1 UNK         0.0600 
    166 H166        6.5595  -17.7728  -46.6730 H         1 UNK         0.0600 
    167 H167        5.5974  -18.6940  -47.8176 H         1 UNK         0.0600 
    168 H168        5.4401  -16.9426  -47.7547 H         1 UNK         0.0600 
    169 H169        5.0633  -16.0491  -45.4774 H         1 UNK         0.3000 
    170 H170        2.8403  -15.2044  -42.8798 H         1 UNK         0.0600 
    171 H171        4.7314  -16.1703  -41.5559 H         1 UNK         0.0600 
    172 H172        5.8895  -15.4710  -42.6820 H         1 UNK         0.0600 
    173 H173        4.8716  -14.4245  -41.6920 H         1 UNK         0.0600 
    174 H174        4.8567  -13.6467  -44.0878 H         1 UNK         0.3000 
    175 H175        4.7346  -12.9338  -46.4778 H         1 UNK         0.0600 
    176 H176        1.8124  -12.3911  -47.2167 H         1 UNK         0.0600 
    177 H177        3.2186  -11.7446  -48.0579 H         1 UNK         0.0600 
    178 H178        2.9161  -13.4745  -48.0508 H         1 UNK         0.0600 
    179 H179        2.9099  -10.8410  -45.6329 H         1 UNK         0.3000 
    180 H180        5.1313   -9.5709  -43.1014 H         1 UNK         0.0600 
    181 H181        4.1804   -8.5603  -45.8365 H         1 UNK         0.0600 
    182 H182        5.8559   -8.6682  -45.3062 H         1 UNK         0.0600 
    183 H183        4.7542   -7.5579  -44.5054 H         1 UNK         0.0600 
    184 H184        2.3690   -9.4809  -44.2670 H         1 UNK         0.3000 
    185 H185        0.9190   -9.8336  -41.0760 H         1 UNK         0.0600 
    186 H186        1.1652   -7.3462  -41.1346 H         1 UNK         0.0600 
    187 H187        0.8005   -7.3368  -42.8559 H         1 UNK         0.0600 
    188 H188       -0.4268   -7.8368  -41.6910 H         1 UNK         0.0600 
    189 H189       -0.1490   -9.4382  -43.7171 H         1 UNK         0.3000 
    190 H190       -2.5465  -21.1561  -44.3052 H         1 UNK         0.3000 
    191 H191       -4.6147  -22.5188  -42.9239 H         1 UNK         0.0600 
    192 H192       -1.5917  -22.4937  -42.4219 H         1 UNK         0.0600 
    193 H193       -2.7531  -21.3255  -41.7961 H         1 UNK         0.0600 
    194 H194       -2.8154  -22.9990  -41.2640 H         1 UNK         0.0600 
    195 H195       -2.2571  -23.7240  -45.2075 H         1 UNK         0.3000 
    196 H196       -2.8591  -26.5727  -44.6347 H         1 UNK         0.0600 
    197 H197       -0.4675  -25.8773  -44.9242 H         1 UNK         0.0600 
    198 H198       -0.8318  -25.2967  -46.5454 H         1 UNK         0.0600 
    199 H199       -0.9783  -27.0081  -46.1663 H         1 UNK         0.0600 
    200 H200       -4.8525  -24.6185  -45.7367 H         1 UNK         0.3000 
    201 H201       -6.5332  -24.5232  -47.1617 H         1 UNK         0.0600 
    202 H202       -7.3592  -26.5854  -48.2407 H         1 UNK         0.0600 
    203 H203       -6.8371  -26.9403  -46.6021 H         1 UNK         0.0600 
    204 H204       -5.8235  -27.3953  -47.9706 H         1 UNK         0.0600 
    205 H205       -4.3358  -23.2490  -47.9568 H         1 UNK         0.3000 
    206 H206       -3.3211  -22.1517  -49.6143 H         1 UNK         0.0600 
    207 H207       -5.6130  -21.7491  -50.5104 H         1 UNK         0.0600 
    208 H208       -5.4955  -23.2068  -51.4920 H         1 UNK         0.0600 
    209 H209       -4.4161  -21.8522  -51.7857 H         1 UNK         0.0600 
    210 H210       -2.1613  -24.3504  -48.8037 H         1 UNK         0.3000 
    211 H211       -0.7146  -26.0025  -49.1251 H         1 UNK         0.0600 
    212 H212        0.5522  -24.2019  -50.3244 H         1 UNK         0.0600 
    213 H213        0.9059  -25.7922  -50.9801 H         1 UNK         0.0600 
    214 H214       -0.1662  -24.7078  -51.8527 H         1 UNK         0.0600 
    215 H215       -3.2080  -26.8485  -49.4218 H         1 UNK         0.3000 
    216 H216       -4.6888  -28.2731  -50.2330 H         1 UNK         0.0600 
    217 H217       -3.9140  -30.4181  -51.1755 H         1 UNK         0.0600 
    218 H218       -2.3233  -29.7490  -51.5084 H         1 UNK         0.0600 
    219 H219       -2.8719  -29.9424  -49.8439 H         1 UNK         0.0600 
    220 H220       -4.8026  -26.0325  -51.5004 H         1 UNK         0.3000 
    221 H221       -5.4240  -24.8351  -53.2401 H         1 UNK         0.0600 
    222 H222       -6.5139  -27.4694  -54.3577 H         1 UNK         0.0600 
    223 H223       -7.3225  -26.4518  -53.1660 H         1 UNK         0.0600 
    224 H224       -7.0507  -25.8517  -54.7931 H         1 UNK         0.0600 
    225 H225       -2.7538  -25.3781  -53.3681 H         1 UNK         0.3000 
    226 H226       -2.1824  -25.5629  -56.3109 H         1 UNK         0.0600 
    227 H227       -1.3454  -27.5526  -54.9608 H         1 UNK         0.0600 
    228 H228       -0.0787  -26.6447  -55.7751 H         1 UNK         0.0600 
    229 H229       -0.3245  -26.4394  -54.0491 H         1 UNK         0.0600 
    230 H230       -1.9467  -23.6157  -53.4210 H         1 UNK         0.3000 
    231 H231        0.3448  -22.1051  -54.0790 H         1 UNK         0.0600 
    232 H232       -0.5006  -20.4628  -52.4267 H         1 UNK         0.0600 
    233 H233       -0.5557  -22.1063  -51.8181 H         1 UNK         0.0600 
    234 H234       -2.0353  -21.3072  -52.3331 H         1 UNK         0.0600 
    235 H235       -2.5769  -20.1704  -56.2384 H         1 UNK         0.3000 
    236 H236       -3.4446  -21.8898  -53.9525 H         1 UNK         0.0600 
    237 H237       -4.7375  -21.5352  -56.6990 H         1 UNK         0.0600 
    238 H238       -3.8145  -22.9512  -56.2012 H         1 UNK         0.0600 
    239 H239       -5.3171  -22.5554  -55.3867 H         1 UNK         0.0600 
    240 H240       -3.0381  -18.7822  -54.7593 H         1 UNK         0.3000 
    241 H241       -3.8820  -16.8466  -54.3260 H         1 UNK         0.0600 
    242 H242       -7.3656  -16.0514  -55.5226 H         1 UNK         0.3800 
    243 H243       -6.5668  -15.7638  -53.9974 H         1 UNK         0.3800 
    244 H244       -4.4702  -18.0748  -51.9873 H         1 UNK         0.0800 
    245 H245       -6.1038  -17.7692  -52.4689 H         1 UNK         0.0800 
    246 H246       -2.9301  -16.7217  -51.0558 H         1 UNK         0.0800 
    247 H247       -2.7981  -14.9919  -51.1818 H         1 UNK         0.0800 
@<TRIPOS>BOND
     1    1    2 1    
     2    1  127 1    
     3    1  128 1    
     4    1  129 1    
     5    2    3 2    
     6    2    4 am   BACKBONE|DICT|INTERRES
     7    4    5 1    
     8    4  130 1    
     9    5    6 1    
    10    5   65 1    
    11    5  131 1    
    12    6    7 1    
    13    6  132 1    
    14    6  133 1    
    15    7    8 1    
    16    8    9 1    
    17    8  134 1    
    18    8  135 1    
    19    9   10 ar   
    20    9   14 ar   
    21   10   11 ar   
    22   10  136 1    
    23   11   12 ar   
    24   11  126 1    
    25   12   13 ar   
    26   12  137 1    
    27   13   14 ar   
    28   13   15 1    
    29   14  138 1    
    30   15   16 1    
    31   15  139 1    
    32   15  140 1    
    33   16   17 1    
    34   17   18 1    
    35   17  141 1    
    36   17  142 1    
    37   18   19 1    
    38   18   67 1    
    39   18  143 1    
    40   19   20 am   BACKBONE|DICT|INTERRES
    41   19  144 1    
    42   20   21 2    
    43   20   22 1    
    44   22   23 1    
    45   22   24 1    
    46   22  145 1    
    47   23  146 1    
    48   23  147 1    
    49   23  148 1    
    50   24   25 am   BACKBONE|DICT|INTERRES
    51   24  149 1    
    52   25   26 2    
    53   25   27 1    
    54   27   28 1    
    55   27   29 1    
    56   27  150 1    
    57   28  151 1    
    58   28  152 1    
    59   28  153 1    
    60   29   30 am   BACKBONE|DICT|INTERRES
    61   29  154 1    
    62   30   31 2    
    63   30   32 1    
    64   32   33 1    
    65   32   34 1    
    66   32  155 1    
    67   33  156 1    
    68   33  157 1    
    69   33  158 1    
    70   34   35 am   BACKBONE|DICT|INTERRES
    71   34  159 1    
    72   35   36 2    
    73   35   37 1    
    74   37   38 1    
    75   37   39 1    
    76   37  160 1    
    77   38  161 1    
    78   38  162 1    
    79   38  163 1    
    80   39   40 am   BACKBONE|DICT|INTERRES
    81   39  164 1    
    82   40   41 2    
    83   40   42 1    
    84   42   43 1    
    85   42   44 1    
    86   42  165 1    
    87   43  166 1    
    88   43  167 1    
    89   43  168 1    
    90   44   45 am   BACKBONE|DICT|INTERRES
    91   44  169 1    
    92   45   46 2    
    93   45   47 1    
    94   47   48 1    
    95   47   49 1    
    96   47  170 1    
    97   48  171 1    
    98   48  172 1    
    99   48  173 1    
   100   49   50 am   BACKBONE|DICT|INTERRES
   101   49  174 1    
   102   50   51 2    
   103   50   52 1    
   104   52   53 1    
   105   52   54 1    
   106   52  175 1    
   107   53  176 1    
   108   53  177 1    
   109   53  178 1    
   110   54   55 am   BACKBONE|DICT|INTERRES
   111   54  179 1    
   112   55   56 2    
   113   55   57 1    
   114   57   58 1    
   115   57   59 1    
   116   57  180 1    
   117   58  181 1    
   118   58  182 1    
   119   58  183 1    
   120   59   60 am   BACKBONE|DICT|INTERRES
   121   59  184 1    
   122   60   61 2    
   123   60   62 1    
   124   62   63 1    
   125   62   64 1    
   126   62  185 1    
   127   63  186 1    
   128   63  187 1    
   129   63  188 1    
   130   64   65 am   BACKBONE|DICT|INTERRES
   131   64  189 1    
   132   65   66 2    
   133   67   68 2    
   134   67   69 am   BACKBONE|DICT|INTERRES
   135   69   70 1    
   136   69  190 1    
   137   70   71 1    
   138   70   72 1    
   139   70  191 1    
   140   71  192 1    
   141   71  193 1    
   142   71  194 1    
   143   72   73 2    
   144   72   74 am   BACKBONE|DICT|INTERRES
   145   74   75 1    
   146   74  195 1    
   147   75   76 1    
   148   75   77 1    
   149   75  196 1    
   150   76  197 1    
   151   76  198 1    
   152   76  199 1    
   153   77   78 2    
   154   77   79 am   BACKBONE|DICT|INTERRES
   155   79   80 1    
   156   79  200 1    
   157   80   81 1    
   158   80   82 1    
   159   80  201 1    
   160   81  202 1    
   161   81  203 1    
   162   81  204 1    
   163   82   83 2    
   164   82   84 am   BACKBONE|DICT|INTERRES
   165   84   85 1    
   166   84  205 1    
   167   85   86 1    
   168   85   87 1    
   169   85  206 1    
   170   86  207 1    
   171   86  208 1    
   172   86  209 1    
   173   87   88 2    
   174   87   89 am   BACKBONE|DICT|INTERRES
   175   89   90 1    
   176   89  210 1    
   177   90   91 1    
   178   90   92 1    
   179   90  211 1    
   180   91  212 1    
   181   91  213 1    
   182   91  214 1    
   183   92   93 2    
   184   92   94 am   BACKBONE|DICT|INTERRES
   185   94   95 1    
   186   94  215 1    
   187   95   96 1    
   188   95   97 1    
   189   95  216 1    
   190   96  217 1    
   191   96  218 1    
   192   96  219 1    
   193   97   98 2    
   194   97   99 am   BACKBONE|DICT|INTERRES
   195   99  100 1    
   196   99  220 1    
   197  100  101 1    
   198  100  102 1    
   199  100  221 1    
   200  101  222 1    
   201  101  223 1    
   202  101  224 1    
   203  102  103 2    
   204  102  104 am   BACKBONE|DICT|INTERRES
   205  104  105 1    
   206  104  225 1    
   207  105  106 1    
   208  105  107 1    
   209  105  226 1    
   210  106  227 1    
   211  106  228 1    
   212  106  229 1    
   213  107  108 2    
   214  107  109 am   BACKBONE|DICT|INTERRES
   215  109  110 1    
   216  109  230 1    
   217  110  111 1    
   218  110  112 1    
   219  110  231 1    
   220  111  232 1    
   221  111  233 1    
   222  111  234 1    
   223  112  113 2    
   224  112  114 am   BACKBONE|DICT|INTERRES
   225  114  115 1    
   226  114  235 1    
   227  115  116 1    
   228  115  117 1    
   229  115  236 1    
   230  116  237 1    
   231  116  238 1    
   232  116  239 1    
   233  117  118 2    
   234  117  119 am   BACKBONE|DICT|INTERRES
   235  119  120 1    
   236  119  240 1    
   237  120  121 1    
   238  120  124 1    
   239  120  241 1    
   240  121  122 am   BACKBONE|DICT|INTERRES
   241  121  123 2    
   242  122  242 1    
   243  122  243 1    
   244  124  125 1    
   245  124  244 1    
   246  124  245 1    
   247  125  126 1    
   248  126  246 1    
   249  126  247 1    
@<TRIPOS>SUBSTRUCTURE
     1 UNK         1 GROUP             0       ****    0 ROOT    
