@<TRIPOS>MOLECULE
3R540
247   249    1
SMALL
USER_CHARGES


@<TRIPOS>ATOM
      1 CA         -6.5512  -15.6969  -46.8603 C.3       0 UNK        -0.1800 
      2 C          -5.0587  -15.6508  -46.5720 C.2       0 UNK         0.5000 
      3 O          -4.2748  -15.3375  -47.4666 O.2       0 UNK        -0.5000 
      4 N          -4.6629  -15.9462  -45.3269 N.am      1 UNK        -0.5000 
      5 CA         -3.2656  -16.0445  -44.8819 C.3       1 UNK         0.1400 
      6 C6         -3.1341  -16.5594  -43.4225 C.3       23 UNK        -0.0398 
      7 S7         -4.1683  -18.0155  -43.0380 S.3       23 UNK        -0.2404 
      8 C8         -3.0854  -19.4066  -43.5001 C.3       23 UNK        -0.0205 
      9 C9         -2.8196  -19.4566  -44.9973 C.ar      23 UNK        -0.0193 
     10 C10        -3.8867  -19.5608  -45.8946 C.ar      23 UNK        -0.1150 
     11 C11        -3.6721  -19.5350  -47.2749 C.ar      23 UNK        -0.0193 
     12 C12        -2.3608  -19.4122  -47.7498 C.ar      23 UNK        -0.1150 
     13 C13        -1.2816  -19.3313  -46.8660 C.ar      23 UNK        -0.0193 
     14 C14        -1.5148  -19.3658  -45.4889 C.ar      23 UNK        -0.1150 
     15 C15         0.1276  -19.1593  -47.4092 C.3       23 UNK        -0.0205 
     16 S16         0.8043  -20.7112  -48.0713 S.3       23 UNK        -0.2404 
     17 C17         1.4195  -21.4932  -46.5495 C.3       23 UNK        -0.0398 
     18 CA          1.0026  -22.9730  -46.3858 C.3       11 UNK         0.1400 
     19 N           1.8624  -23.6380  -45.4044 N.am      11 UNK        -0.5000 
     20 C           1.9314  -24.9585  -45.1938 C.2       10 UNK         0.5000 
     21 O           1.3005  -25.7915  -45.8417 O.2       10 UNK        -0.5000 
     22 CA          2.8273  -25.4137  -44.0267 C.3       10 UNK         0.1400 
     23 CB          4.2875  -25.5442  -44.4842 C.3       10 UNK        -0.1800 
     24 N           2.7560  -24.5005  -42.8830 N.am      10 UNK        -0.5000 
     25 C           1.6651  -24.3338  -42.1215 C.2       9 UNK         0.5000 
     26 O           0.6264  -24.9742  -42.2737 O.2       9 UNK        -0.5000 
     27 CA          1.7266  -23.2330  -41.0463 C.3       9 UNK         0.1400 
     28 CB          2.3330  -23.7809  -39.7461 C.3       9 UNK        -0.1800 
     29 N           2.4776  -22.0489  -41.4745 N.am      9 UNK        -0.5000 
     30 C           2.1205  -21.2493  -42.4880 C.2       8 UNK         0.5000 
     31 O           1.1249  -21.4394  -43.1897 O.2       8 UNK        -0.5000 
     32 CA          3.0791  -20.0906  -42.8114 C.3       8 UNK         0.1400 
     33 CB          4.2125  -20.5760  -43.7286 C.3       8 UNK        -0.1800 
     34 N           2.4038  -18.9654  -43.4577 N.am      8 UNK        -0.5000 
     35 C           1.5803  -18.1098  -42.8383 C.2       7 UNK         0.5000 
     36 O           1.2548  -18.2286  -41.6558 O.2       7 UNK        -0.5000 
     37 CA          1.0295  -16.9185  -43.6612 C.3       7 UNK         0.1400 
     38 CB          0.9004  -15.6401  -42.8083 C.3       7 UNK        -0.1800 
     39 N           1.7380  -16.6075  -44.9113 N.am      7 UNK        -0.5000 
     40 C           3.0384  -16.3161  -45.0756 C.2       6 UNK         0.5000 
     41 O           3.8858  -16.3759  -44.1848 O.2       6 UNK        -0.5000 
     42 CA          3.4512  -15.8548  -46.4855 C.3       6 UNK         0.1400 
     43 CB          3.5935  -17.0522  -47.4384 C.3       6 UNK        -0.1800 
     44 N           2.5162  -14.8841  -47.0582 N.am      6 UNK        -0.5000 
     45 C           2.2866  -13.6596  -46.5665 C.2       5 UNK         0.5000 
     46 O           2.8614  -13.2088  -45.5748 O.2       5 UNK        -0.5000 
     47 CA          1.2503  -12.7740  -47.2828 C.3       5 UNK         0.1400 
     48 CB          1.9349  -11.8010  -48.2610 C.3       5 UNK        -0.1800 
     49 N           0.1423  -13.4818  -47.9347 N.am      5 UNK        -0.5000 
     50 C           0.1365  -14.2683  -49.0198 C.2       4 UNK         0.5000 
     51 O           1.1556  -14.6503  -49.5946 O.2       4 UNK        -0.5000 
     52 CA         -1.2446  -14.7075  -49.5511 C.3       4 UNK         0.1400 
     53 CB         -1.5099  -16.1831  -49.2269 C.3       4 UNK        -0.1800 
     54 N          -2.3464  -13.9041  -49.0175 N.am      4 UNK        -0.5000 
     55 C          -2.6142  -12.6377  -49.3670 C.2       3 UNK         0.5000 
     56 O          -2.0202  -12.0308  -50.2581 O.2       3 UNK        -0.5000 
     57 CA         -3.6947  -11.9165  -48.5426 C.3       3 UNK         0.1400 
     58 CB         -5.1050  -12.2660  -49.0421 C.3       3 UNK        -0.1800 
     59 N          -3.5845  -12.2313  -47.1166 N.am      3 UNK        -0.5000 
     60 C          -2.6320  -11.7482  -46.3058 C.2       2 UNK         0.5000 
     61 O          -1.7667  -10.9523  -46.6688 O.2       2 UNK        -0.5000 
     62 CA         -2.6281  -12.2486  -44.8499 C.3       2 UNK         0.1400 
     63 CB         -3.4381  -11.3002  -43.9534 C.3       2 UNK        -0.1800 
     64 N          -3.1605  -13.6044  -44.7165 N.am      2 UNK        -0.5000 
     65 C          -2.4948  -14.7194  -45.0490 C.2       1 UNK         0.5000 
     66 O          -1.3462  -14.7288  -45.4920 O.2       1 UNK        -0.5000 
     67 C          -0.4860  -23.1362  -46.0124 C.2       11 UNK         0.5000 
     68 O          -1.2974  -23.4878  -46.8692 O.2       11 UNK        -0.5000 
     69 N          -0.7966  -22.9538  -44.7202 N.am      12 UNK        -0.5000 
     70 CA         -2.1149  -23.1816  -44.1304 C.3       12 UNK         0.1400 
     71 CB         -2.0958  -22.7361  -42.6593 C.3       12 UNK        -0.1800 
     72 C          -2.5715  -24.6487  -44.2418 C.2       12 UNK         0.5000 
     73 O          -3.7260  -24.8974  -44.5885 O.2       12 UNK        -0.5000 
     74 N          -1.6546  -25.5878  -43.9644 N.am      13 UNK        -0.5000 
     75 CA         -1.8781  -27.0311  -44.0623 C.3       13 UNK         0.1400 
     76 CB         -0.7067  -27.7808  -43.4100 C.3       13 UNK        -0.1800 
     77 C          -2.0912  -27.5083  -45.5100 C.2       13 UNK         0.5000 
     78 O          -2.9688  -28.3390  -45.7488 O.2       13 UNK        -0.5000 
     79 N          -1.3033  -26.9656  -46.4498 N.am      14 UNK        -0.5000 
     80 CA         -1.4468  -27.2042  -47.8878 C.3       14 UNK         0.1400 
     81 CB         -0.2150  -26.6523  -48.6223 C.3       14 UNK        -0.1800 
     82 C          -2.7331  -26.5864  -48.4670 C.2       14 UNK         0.5000 
     83 O          -3.3072  -27.1496  -49.3996 O.2       14 UNK        -0.5000 
     84 N          -3.1486  -25.4453  -47.8978 N.am      15 UNK        -0.5000 
     85 CA         -4.3016  -24.6226  -48.2698 C.3       15 UNK         0.1400 
     86 CB         -5.6238  -25.3757  -48.0161 C.3       15 UNK        -0.1800 
     87 C          -4.1827  -24.0532  -49.6980 C.2       15 UNK         0.5000 
     88 O          -5.1856  -23.9308  -50.4040 O.2       15 UNK        -0.5000 
     89 N          -2.9501  -23.7154  -50.0921 N.am      16 UNK        -0.5000 
     90 CA         -2.5989  -23.1099  -51.3677 C.3       16 UNK         0.1400 
     91 CB         -2.6061  -24.1639  -52.4896 C.3       16 UNK        -0.1800 
     92 C          -1.2136  -22.4707  -51.2297 C.2       16 UNK         0.5000 
     93 O          -0.3231  -23.0795  -50.6326 O.2       16 UNK        -0.5000 
     94 N          -1.0540  -21.2818  -51.8173 N.am      17 UNK        -0.5000 
     95 CA          0.2097  -20.5511  -51.9235 C.3       17 UNK         0.1400 
     96 CB         -0.0212  -19.1168  -51.4204 C.3       17 UNK        -0.1800 
     97 C           0.7203  -20.5202  -53.3775 C.2       17 UNK         0.5000 
     98 O           1.8004  -19.9810  -53.6206 O.2       17 UNK        -0.5000 
     99 N          -0.0769  -21.0616  -54.3144 N.am      18 UNK        -0.5000 
    100 CA         0.0597  -20.9596  -55.7716 C.3       18 UNK         0.1400 
    101 CB         1.3359  -21.6700  -56.2700 C.3       18 UNK        -0.1800 
    102 C         -0.0625  -19.4973  -56.2525 C.2       18 UNK         0.5000 
    103 O          0.6817  -19.0648  -57.1349 O.2       18 UNK        -0.5000 
    104 N         -0.9982  -18.7629  -55.6399 N.am      19 UNK        -0.5000 
    105 CA        -1.2881  -17.3563  -55.8950 C.3       19 UNK         0.1400 
    106 CB        -0.8761  -16.5500  -54.6498 C.3       19 UNK        -0.1800 
    107 C         -2.7886  -17.1837  -56.1724 C.2       19 UNK         0.5000 
    108 O         -3.5730  -18.1057  -55.9414 O.2       19 UNK        -0.5000 
    109 N         -3.1813  -15.9819  -56.6126 N.am      20 UNK        -0.5000 
    110 CA        -4.5862  -15.5973  -56.7932 C.3       20 UNK         0.1400 
    111 CB        -4.6494  -14.2537  -57.5357 C.3       20 UNK        -0.1800 
    112 C         -5.3650  -15.5183  -55.4627 C.2       20 UNK         0.5000 
    113 O         -6.5775  -15.7331  -55.4512 O.2       20 UNK        -0.5000 
    114 N         -4.6494  -15.2217  -54.3689 N.am      21 UNK        -0.5000 
    115 CA        -5.1843  -15.1465  -53.0105 C.3       21 UNK         0.1400 
    116 CB        -4.2133  -14.3297  -52.1459 C.3       21 UNK        -0.1800 
    117 C         -5.4234  -16.5234  -52.3627 C.2       21 UNK         0.5000 
    118 O         -6.2557  -16.6198  -51.4604 O.2       21 UNK        -0.5000 
    119 N         -4.6858  -17.5521  -52.7994 N.am      22 UNK        -0.5000 
    120 CA        -4.7146  -18.8983  -52.2222 C.3       22 UNK         0.1400 
    121 C         -4.0985  -19.9062  -53.2243 C.2       22 UNK         0.5000 
    122 N         -4.8877  -20.8132  -53.7803 N.am      22 UNK        -0.7600 
    123 O         -2.8932  -19.8978  -53.4705 O.2       22 UNK        -0.5000 
    124 C124       -4.0109  -18.9506  -50.8372 C.3       23 UNK        -0.0398 
    125 S125       -4.5755  -20.3639  -49.8310 S.3       23 UNK        -0.2404 
    126 C126       -4.8848  -19.5951  -48.2047 C.3       23 UNK        -0.0205 
    127 H127       -7.1217  -16.0297  -45.9930 H         1 UNK         0.0600 
    128 H128       -6.7503  -16.3832  -47.6834 H         1 UNK         0.0600 
    129 H129       -6.9080  -14.7077  -47.1468 H         1 UNK         0.0600 
    130 H130       -5.3522  -16.2116  -44.6377 H         1 UNK         0.3000 
    131 H131       -2.7805  -16.7639  -45.5427 H         1 UNK         0.0600 
    132 H132       -3.4264  -15.7776  -42.7189 H         1 UNK         0.0800 
    133 H133       -2.0962  -16.7940  -43.1881 H         1 UNK         0.0800 
    134 H134       -2.1546  -19.3449  -42.9339 H         1 UNK         0.0800 
    135 H135       -3.5751  -20.3333  -43.2014 H         1 UNK         0.0800 
    136 H136       -4.8950  -19.6294  -45.5109 H         1 UNK         0.1150 
    137 H137       -2.1654  -19.3754  -48.8090 H         1 UNK         0.1150 
    138 H138       -0.6846  -19.3038  -44.8008 H         1 UNK         0.1150 
    139 H139        0.1207  -18.4159  -48.2046 H         1 UNK         0.0800 
    140 H140        0.7923  -18.7644  -46.6410 H         1 UNK         0.0800 
    141 H141        1.1233  -20.9068  -45.6805 H         1 UNK         0.0800 
    142 H142        2.5065  -21.4241  -46.5997 H         1 UNK         0.0800 
    143 H143        1.1576  -23.4779  -47.3421 H         1 UNK         0.0600 
    144 H144        2.3759  -23.0350  -44.7809 H         1 UNK         0.3000 
    145 H145        2.4811  -26.3974  -43.7027 H         1 UNK         0.0600 
    146 H146        4.9175  -25.9342  -43.6845 H         1 UNK         0.0600 
    147 H147        4.3716  -26.2317  -45.3270 H         1 UNK         0.0600 
    148 H148        4.7003  -24.5853  -44.8000 H         1 UNK         0.0600 
    149 H149        3.5749  -23.9450  -42.6849 H         1 UNK         0.3000 
    150 H150        0.7015  -22.9197  -40.8380 H         1 UNK         0.0600 
    151 H151        3.3720  -24.0843  -39.8810 H         1 UNK         0.0600 
    152 H152        1.7793  -24.6527  -39.3946 H         1 UNK         0.0600 
    153 H153        2.3007  -23.0356  -38.9511 H         1 UNK         0.0600 
    154 H154        3.3152  -21.8357  -40.9521 H         1 UNK         0.3000 
    155 H155        3.5178  -19.7337  -41.8771 H         1 UNK         0.0600 
    156 H156        3.8350  -20.9343  -44.6858 H         1 UNK         0.0600 
    157 H157        4.7701  -21.3930  -43.2690 H         1 UNK         0.0600 
    158 H158        4.9242  -19.7749  -43.9299 H         1 UNK         0.0600 
    159 H159        2.6263  -18.7968  -44.4258 H         1 UNK         0.3000 
    160 H160        0.0255  -17.2105  -43.9646 H         1 UNK         0.0600 
    161 H161        1.8683  -15.3154  -42.4251 H         1 UNK         0.0600 
    162 H162        0.2430  -15.7977  -41.9526 H         1 UNK         0.0600 
    163 H163        0.4802  -14.8189  -43.3891 H         1 UNK         0.0600 
    164 H164        1.1410  -16.4785  -45.7158 H         1 UNK         0.3000 
    165 H165        4.4266  -15.3709  -46.4019 H         1 UNK         0.0600 
    166 H166        4.0088  -16.7415  -48.3973 H         1 UNK         0.0600 
    167 H167        4.2640  -17.8065  -47.0243 H         1 UNK         0.0600 
    168 H168        2.6356  -17.5334  -47.6337 H         1 UNK         0.0600 
    169 H169        2.0496  -15.1321  -47.9246 H         1 UNK         0.3000 
    170 H170        0.7816  -12.1720  -46.5029 H         1 UNK         0.0600 
    171 H171        2.6798  -11.1923  -47.7471 H         1 UNK         0.0600 
    172 H172        2.4456  -12.3267  -49.0682 H         1 UNK         0.0600 
    173 H173        1.2108  -11.1195  -48.7080 H         1 UNK         0.0600 
    174 H174       -0.7582  -13.3205  -47.5063 H         1 UNK         0.3000 
    175 H175       -1.2279  -14.5933  -50.6367 H         1 UNK         0.0600 
    176 H176       -1.5127  -16.3650  -48.1511 H         1 UNK         0.0600 
    177 H177       -2.4729  -16.5052  -49.6216 H         1 UNK         0.0600 
    178 H178       -0.7459  -16.8174  -49.6745 H         1 UNK         0.0600 
    179 H179       -2.9392  -14.3557  -48.3236 H         1 UNK         0.3000 
    180 H180       -3.5505  -10.8414  -48.6709 H         1 UNK         0.0600 
    181 H181       -5.3218  -13.3295  -48.9406 H         1 UNK         0.0600 
    182 H182       -5.2194  -12.0067  -50.0952 H         1 UNK         0.0600 
    183 H183       -5.8660  -11.7157  -48.4887 H         1 UNK         0.0600 
    184 H184       -4.2283  -12.9180  -46.7529 H         1 UNK         0.3000 
    185 H185       -1.5930  -12.2456  -44.5008 H         1 UNK         0.0600 
    186 H186       -3.0500  -10.2823  -44.0109 H         1 UNK         0.0600 
    187 H187       -4.4887  -11.2679  -44.2448 H         1 UNK         0.0600 
    188 H188       -3.3881  -11.6068  -42.9084 H         1 UNK         0.0600 
    189 H189       -4.1058  -13.6913  -44.3722 H         1 UNK         0.3000 
    190 H190       -0.0735  -22.6140  -44.0923 H         1 UNK         0.3000 
    191 H191       -2.8287  -22.5583  -44.6732 H         1 UNK         0.0600 
    192 H192       -1.6792  -21.7356  -42.5494 H         1 UNK         0.0600 
    193 H193       -3.1046  -22.7226  -42.2456 H         1 UNK         0.0600 
    194 H194       -1.5002  -23.4054  -42.0394 H         1 UNK         0.0600 
    195 H195       -0.7485  -25.2938  -43.6118 H         1 UNK         0.3000 
    196 H196       -2.7839  -27.2664  -43.4997 H         1 UNK         0.0600 
    197 H197       -0.8596  -28.8598  -43.4546 H         1 UNK         0.0600 
    198 H198       -0.6025  -27.5108  -42.3590 H         1 UNK         0.0600 
    199 H199        0.2384  -27.5618  -43.9072 H         1 UNK         0.0600 
    200 H200       -0.5521  -26.3438  -46.1654 H         1 UNK         0.3000 
    201 H201       -1.4894  -28.2827  -48.0528 H         1 UNK         0.0600 
    202 H202       -0.2899  -26.8242  -49.6968 H         1 UNK         0.0600 
    203 H203        0.6991  -27.1362  -48.2780 H         1 UNK         0.0600 
    204 H204       -0.1030  -25.5780  -48.4696 H         1 UNK         0.0600 
    205 H205       -2.5466  -25.0310  -47.1934 H         1 UNK         0.3000 
    206 H206       -4.2815  -23.7612  -47.6003 H         1 UNK         0.0600 
    207 H207       -5.6684  -25.7557  -46.9952 H         1 UNK         0.0600 
    208 H208       -6.4809  -24.7159  -48.1542 H         1 UNK         0.0600 
    209 H209       -5.7478  -26.2195  -48.6952 H         1 UNK         0.0600 
    210 H210       -2.1770  -23.8221  -49.4457 H         1 UNK         0.3000 
    211 H211       -3.3288  -22.3349  -51.6044 H         1 UNK         0.0600 
    212 H212       -1.9171  -24.9817  -52.2744 H         1 UNK         0.0600 
    213 H213       -2.3090  -23.7230  -53.4418 H         1 UNK         0.0600 
    214 H214       -3.5991  -24.5915  -52.6279 H         1 UNK         0.0600 
    215 H215       -1.8381  -20.8503  -52.3013 H         1 UNK         0.3000 
    216 H216        0.9814  -21.0174  -51.3079 H         1 UNK         0.0600 
    217 H217        0.9125  -18.5540  -51.3921 H         1 UNK         0.0600 
    218 H218       -0.4285  -19.1204  -50.4118 H         1 UNK         0.0600 
    219 H219       -0.7159  -18.5711  -52.0599 H         1 UNK         0.0600 
    220 H220       -0.9470  -21.4598  -53.9936 H         1 UNK         0.3000 
    221 H221       -0.7950  -21.4889  -56.1954 H         1 UNK         0.0600 
    222 H222        2.2421  -21.1537  -55.9528 H         1 UNK         0.0600 
    223 H223        1.3863  -22.6943  -55.9010 H         1 UNK         0.0600 
    224 H224        1.3537  -21.7168  -57.3594 H         1 UNK         0.0600 
    225 H225       -1.6217  -19.2130  -54.9761 H         1 UNK         0.3000 
    226 H226       -0.7360  -16.9945  -56.7646 H         1 UNK         0.0600 
    227 H227        0.1774  -16.7042  -54.4144 H         1 UNK         0.0600 
    228 H228       -1.0179  -15.4797  -54.8029 H         1 UNK         0.0600 
    229 H229       -1.4566  -16.8386  -53.7723 H         1 UNK         0.0600 
    230 H230       -2.4893  -15.2687  -56.7940 H         1 UNK         0.3000 
    231 H231       -5.0704  -16.3541  -57.4143 H         1 UNK         0.0600 
    232 H232       -4.1645  -13.4571  -56.9700 H         1 UNK         0.0600 
    233 H233       -5.6833  -13.9513  -57.7079 H         1 UNK         0.0600 
    234 H234       -4.1648  -14.3180  -58.5101 H         1 UNK         0.0600 
    235 H235       -3.6634  -15.0404  -54.4788 H         1 UNK         0.3000 
    236 H236       -6.1422  -14.6226  -53.0379 H         1 UNK         0.0600 
    237 H237       -4.1202  -13.3061  -52.5093 H         1 UNK         0.0600 
    238 H238       -4.5631  -14.2789  -51.1148 H         1 UNK         0.0600 
    239 H239       -3.2175  -14.7738  -52.1290 H         1 UNK         0.0600 
    240 H240       -4.0717  -17.4334  -53.5934 H         1 UNK         0.3000 
    241 H241       -5.7659  -19.1603  -52.0844 H         1 UNK         0.0600 
    242 H242       -5.8760  -20.8450  -53.5845 H         1 UNK         0.3800 
    243 H243       -4.4962  -21.4647  -54.4407 H         1 UNK         0.3800 
    244 H244       -2.9271  -18.9866  -50.9446 H         1 UNK         0.0800 
    245 H245       -4.2151  -18.0383  -50.2774 H         1 UNK         0.0800 
    246 H246       -5.2899  -18.5906  -48.3319 H         1 UNK         0.0800 
    247 H247       -5.6719  -20.1779  -47.7239 H         1 UNK         0.0800 
@<TRIPOS>BOND
     1    1    2 1    
     2    1  127 1    
     3    1  128 1    
     4    1  129 1    
     5    2    3 2    
     6    2    4 am   BACKBONE|DICT|INTERRES
     7    4    5 1    
     8    4  130 1    
     9    5    6 1    
    10    5   65 1    
    11    5  131 1    
    12    6    7 1    
    13    6  132 1    
    14    6  133 1    
    15    7    8 1    
    16    8    9 1    
    17    8  134 1    
    18    8  135 1    
    19    9   10 ar   
    20    9   14 ar   
    21   10   11 ar   
    22   10  136 1    
    23   11   12 ar   
    24   11  126 1    
    25   12   13 ar   
    26   12  137 1    
    27   13   14 ar   
    28   13   15 1    
    29   14  138 1    
    30   15   16 1    
    31   15  139 1    
    32   15  140 1    
    33   16   17 1    
    34   17   18 1    
    35   17  141 1    
    36   17  142 1    
    37   18   19 1    
    38   18   67 1    
    39   18  143 1    
    40   19   20 am   BACKBONE|DICT|INTERRES
    41   19  144 1    
    42   20   21 2    
    43   20   22 1    
    44   22   23 1    
    45   22   24 1    
    46   22  145 1    
    47   23  146 1    
    48   23  147 1    
    49   23  148 1    
    50   24   25 am   BACKBONE|DICT|INTERRES
    51   24  149 1    
    52   25   26 2    
    53   25   27 1    
    54   27   28 1    
    55   27   29 1    
    56   27  150 1    
    57   28  151 1    
    58   28  152 1    
    59   28  153 1    
    60   29   30 am   BACKBONE|DICT|INTERRES
    61   29  154 1    
    62   30   31 2    
    63   30   32 1    
    64   32   33 1    
    65   32   34 1    
    66   32  155 1    
    67   33  156 1    
    68   33  157 1    
    69   33  158 1    
    70   34   35 am   BACKBONE|DICT|INTERRES
    71   34  159 1    
    72   35   36 2    
    73   35   37 1    
    74   37   38 1    
    75   37   39 1    
    76   37  160 1    
    77   38  161 1    
    78   38  162 1    
    79   38  163 1    
    80   39   40 am   BACKBONE|DICT|INTERRES
    81   39  164 1    
    82   40   41 2    
    83   40   42 1    
    84   42   43 1    
    85   42   44 1    
    86   42  165 1    
    87   43  166 1    
    88   43  167 1    
    89   43  168 1    
    90   44   45 am   BACKBONE|DICT|INTERRES
    91   44  169 1    
    92   45   46 2    
    93   45   47 1    
    94   47   48 1    
    95   47   49 1    
    96   47  170 1    
    97   48  171 1    
    98   48  172 1    
    99   48  173 1    
   100   49   50 am   BACKBONE|DICT|INTERRES
   101   49  174 1    
   102   50   51 2    
   103   50   52 1    
   104   52   53 1    
   105   52   54 1    
   106   52  175 1    
   107   53  176 1    
   108   53  177 1    
   109   53  178 1    
   110   54   55 am   BACKBONE|DICT|INTERRES
   111   54  179 1    
   112   55   56 2    
   113   55   57 1    
   114   57   58 1    
   115   57   59 1    
   116   57  180 1    
   117   58  181 1    
   118   58  182 1    
   119   58  183 1    
   120   59   60 am   BACKBONE|DICT|INTERRES
   121   59  184 1    
   122   60   61 2    
   123   60   62 1    
   124   62   63 1    
   125   62   64 1    
   126   62  185 1    
   127   63  186 1    
   128   63  187 1    
   129   63  188 1    
   130   64   65 am   BACKBONE|DICT|INTERRES
   131   64  189 1    
   132   65   66 2    
   133   67   68 2    
   134   67   69 am   BACKBONE|DICT|INTERRES
   135   69   70 1    
   136   69  190 1    
   137   70   71 1    
   138   70   72 1    
   139   70  191 1    
   140   71  192 1    
   141   71  193 1    
   142   71  194 1    
   143   72   73 2    
   144   72   74 am   BACKBONE|DICT|INTERRES
   145   74   75 1    
   146   74  195 1    
   147   75   76 1    
   148   75   77 1    
   149   75  196 1    
   150   76  197 1    
   151   76  198 1    
   152   76  199 1    
   153   77   78 2    
   154   77   79 am   BACKBONE|DICT|INTERRES
   155   79   80 1    
   156   79  200 1    
   157   80   81 1    
   158   80   82 1    
   159   80  201 1    
   160   81  202 1    
   161   81  203 1    
   162   81  204 1    
   163   82   83 2    
   164   82   84 am   BACKBONE|DICT|INTERRES
   165   84   85 1    
   166   84  205 1    
   167   85   86 1    
   168   85   87 1    
   169   85  206 1    
   170   86  207 1    
   171   86  208 1    
   172   86  209 1    
   173   87   88 2    
   174   87   89 am   BACKBONE|DICT|INTERRES
   175   89   90 1    
   176   89  210 1    
   177   90   91 1    
   178   90   92 1    
   179   90  211 1    
   180   91  212 1    
   181   91  213 1    
   182   91  214 1    
   183   92   93 2    
   184   92   94 am   BACKBONE|DICT|INTERRES
   185   94   95 1    
   186   94  215 1    
   187   95   96 1    
   188   95   97 1    
   189   95  216 1    
   190   96  217 1    
   191   96  218 1    
   192   96  219 1    
   193   97   98 2    
   194   97   99 am   BACKBONE|DICT|INTERRES
   195   99  100 1    
   196   99  220 1    
   197  100  101 1    
   198  100  102 1    
   199  100  221 1    
   200  101  222 1    
   201  101  223 1    
   202  101  224 1    
   203  102  103 2    
   204  102  104 am   BACKBONE|DICT|INTERRES
   205  104  105 1    
   206  104  225 1    
   207  105  106 1    
   208  105  107 1    
   209  105  226 1    
   210  106  227 1    
   211  106  228 1    
   212  106  229 1    
   213  107  108 2    
   214  107  109 am   BACKBONE|DICT|INTERRES
   215  109  110 1    
   216  109  230 1    
   217  110  111 1    
   218  110  112 1    
   219  110  231 1    
   220  111  232 1    
   221  111  233 1    
   222  111  234 1    
   223  112  113 2    
   224  112  114 am   BACKBONE|DICT|INTERRES
   225  114  115 1    
   226  114  235 1    
   227  115  116 1    
   228  115  117 1    
   229  115  236 1    
   230  116  237 1    
   231  116  238 1    
   232  116  239 1    
   233  117  118 2    
   234  117  119 am   BACKBONE|DICT|INTERRES
   235  119  120 1    
   236  119  240 1    
   237  120  121 1    
   238  120  124 1    
   239  120  241 1    
   240  121  122 am   BACKBONE|DICT|INTERRES
   241  121  123 2    
   242  122  242 1    
   243  122  243 1    
   244  124  125 1    
   245  124  244 1    
   246  124  245 1    
   247  125  126 1    
   248  126  246 1    
   249  126  247 1    
@<TRIPOS>SUBSTRUCTURE
     1 UNK         1 GROUP             0       ****    0 ROOT    
