@<TRIPOS>MOLECULE
3R540
247   249    1
SMALL
USER_CHARGES


@<TRIPOS>ATOM
      1 CA          1.2526  -11.7464  -45.4456 C.3       0 UNK        -0.1800 
      2 C           0.9102  -11.3398  -46.8785 C.2       0 UNK         0.5000 
      3 O           0.7278  -10.1504  -47.1291 O.2       0 UNK        -0.5000 
      4 N           0.8209  -12.2535  -47.8547 N.am      1 UNK        -0.5000 
      5 CA          0.9006  -13.7150  -47.7771 C.3       1 UNK         0.1400 
      6 C6          1.3706  -14.3396  -49.1216 C.3       23 UNK        -0.0398 
      7 S7          0.6224  -13.6231  -50.6353 S.3       23 UNK        -0.2404 
      8 C8          1.2703  -14.7253  -51.9345 C.3       23 UNK        -0.0205 
      9 C9          0.5220  -16.0481  -51.9602 C.ar      23 UNK        -0.0193 
     10 C10        -0.6465  -16.1863  -52.7151 C.ar      23 UNK        -0.1150 
     11 C11        -1.3693  -17.3829  -52.6879 C.ar      23 UNK        -0.0193 
     12 C12        -0.9263  -18.4376  -51.8850 C.ar      23 UNK        -0.1150 
     13 C13         0.2443  -18.3111  -51.1334 C.ar      23 UNK        -0.0193 
     14 C14         0.9808  -17.1267  -51.2020 C.ar      23 UNK        -0.1150 
     15 C15         0.6868  -19.4289  -50.2029 C.3       23 UNK        -0.0205 
     16 S16         0.7716  -18.8744  -48.4666 S.3       23 UNK        -0.2404 
     17 C17        -0.9368  -18.2947  -48.1596 C.3       23 UNK        -0.0398 
     18 CA         -1.8861  -19.4426  -47.7488 C.3       11 UNK         0.1400 
     19 N          -1.3646  -20.2383  -46.6357 N.am      11 UNK        -0.5000 
     20 C          -1.8273  -21.4453  -46.2906 C.2       10 UNK         0.5000 
     21 O          -2.7669  -21.9895  -46.8642 O.2       10 UNK        -0.5000 
     22 CA         -1.1610  -22.1469  -45.0933 C.3       10 UNK         0.1400 
     23 CB         -0.0149  -23.0468  -45.5778 C.3       10 UNK        -0.1800 
     24 N          -0.6509  -21.2067  -44.0948 N.am      10 UNK        -0.5000 
     25 C          -1.4197  -20.4012  -43.3479 C.2       9 UNK         0.5000 
     26 O          -2.6503  -20.4213  -43.3723 O.2       9 UNK        -0.5000 
     27 CA         -0.6879  -19.3695  -42.4657 C.3       9 UNK         0.1400 
     28 CB         -0.4255  -19.9542  -41.0700 C.3       9 UNK        -0.1800 
     29 N           0.5769  -18.8877  -43.0371 N.am      9 UNK        -0.5000 
     30 C           0.7019  -18.2724  -44.2231 C.2       8 UNK         0.5000 
     31 O          -0.2498  -18.0664  -44.9751 O.2       8 UNK        -0.5000 
     32 CA          2.1150  -17.8432  -44.6563 C.3       8 UNK         0.1400 
     33 CB          2.1018  -16.5312  -45.4581 C.3       8 UNK        -0.1800 
     34 N           3.0011  -17.6683  -43.5085 N.am      8 UNK        -0.5000 
     35 C           4.1158  -18.3721  -43.2720 C.2       7 UNK         0.5000 
     36 O           4.4642  -19.3439  -43.9444 O.2       7 UNK        -0.5000 
     37 CA          4.9817  -17.9020  -42.0829 C.3       7 UNK         0.1400 
     38 CB          6.4461  -18.3799  -42.1706 C.3       7 UNK        -0.1800 
     39 N           4.9124  -16.4514  -41.8711 N.am      7 UNK        -0.5000 
     40 C           5.2872  -15.4776  -42.7188 C.2       6 UNK         0.5000 
     41 O           5.8456  -15.6868  -43.7961 O.2       6 UNK        -0.5000 
     42 CA          4.9567  -14.0233  -42.3199 C.3       6 UNK         0.1400 
     43 CB          4.0718  -13.3552  -43.3871 C.3       6 UNK        -0.1800 
     44 N           4.2662  -13.9440  -41.0319 N.am      6 UNK        -0.5000 
     45 C           4.8649  -13.8108  -39.8403 C.2       5 UNK         0.5000 
     46 O           6.0772  -13.6515  -39.6969 O.2       5 UNK        -0.5000 
     47 CA          3.9576  -13.9018  -38.5956 C.3       5 UNK         0.1400 
     48 CB          3.5585  -12.4966  -38.1200 C.3       5 UNK        -0.1800 
     49 N           2.7418  -14.6906  -38.8193 N.am      5 UNK        -0.5000 
     50 C           2.7107  -16.0070  -39.0758 C.2       4 UNK         0.5000 
     51 O           3.7134  -16.7187  -39.1082 O.2       4 UNK        -0.5000 
     52 CA          1.3400  -16.6137  -39.4295 C.3       4 UNK         0.1400 
     53 CB          0.6419  -17.1504  -38.1716 C.3       4 UNK        -0.1800 
     54 N           0.4596  -15.6572  -40.1050 N.am      4 UNK        -0.5000 
     55 C           0.6762  -15.1681  -41.3323 C.2       3 UNK         0.5000 
     56 O           1.6176  -15.5143  -42.0515 O.2       3 UNK        -0.5000 
     57 CA         -0.2577  -14.0320  -41.7824 C.3       3 UNK         0.1400 
     58 CB          0.4177  -12.6739  -41.5343 C.3       3 UNK        -0.1800 
     59 N          -0.6214  -14.1226  -43.1945 N.am      3 UNK        -0.5000 
     60 C          -1.4158  -15.0682  -43.7168 C.2       2 UNK         0.5000 
     61 O          -1.9174  -15.9755  -43.0551 O.2       2 UNK        -0.5000 
     62 CA         -1.7178  -14.9645  -45.2213 C.3       2 UNK         0.1400 
     63 CB         -2.9697  -14.0889  -45.4385 C.3       2 UNK        -0.1800 
     64 N          -0.5591  -14.4292  -45.9425 N.am      2 UNK        -0.5000 
     65 C          -0.4373  -14.3012  -47.2701 C.2       1 UNK         0.5000 
     66 O          -1.3210  -14.6087  -48.0699 O.2       1 UNK        -0.5000 
     67 C          -3.3039  -18.9193  -47.4456 C.2       11 UNK         0.5000 
     68 O          -4.1440  -18.8870  -48.3458 O.2       11 UNK        -0.5000 
     69 N          -3.5640  -18.5900  -46.1708 N.am      12 UNK        -0.5000 
     70 CA         -4.8931  -18.2451  -45.6628 C.3       12 UNK         0.1400 
     71 CB         -4.7672  -17.6369  -44.2596 C.3       12 UNK        -0.1800 
     72 C          -5.8576  -19.4468  -45.6478 C.2       12 UNK         0.5000 
     73 O          -7.0632  -19.2556  -45.8136 O.2       12 UNK        -0.5000 
     74 N          -5.3200  -20.6662  -45.4995 N.am      13 UNK        -0.5000 
     75 CA         -6.0477  -21.9339  -45.5812 C.3       13 UNK         0.1400 
     76 CB         -5.2873  -23.0117  -44.7875 C.3       13 UNK        -0.1800 
     77 C          -6.3106  -22.3360  -47.0486 C.2       13 UNK         0.5000 
     78 O          -5.8594  -23.3895  -47.5044 O.2       13 UNK        -0.5000 
     79 N          -7.0383  -21.4644  -47.7608 N.am      14 UNK        -0.5000 
     80 CA         -7.5117  -21.6044  -49.1396 C.3       14 UNK         0.1400 
     81 CB         -8.6230  -22.6732  -49.2087 C.3       14 UNK        -0.1800 
     82 C          -6.3766  -21.8594  -50.1511 C.2       14 UNK         0.5000 
     83 O          -6.4747  -22.7846  -50.9575 O.2       14 UNK        -0.5000 
     84 N          -5.3093  -21.0484  -50.0794 N.am      15 UNK        -0.5000 
     85 CA         -4.1242  -21.1056  -50.9447 C.3       15 UNK         0.1400 
     86 CB         -4.5048  -20.7376  -52.3950 C.3       15 UNK        -0.1800 
     87 C          -3.3819  -22.4551  -50.8335 C.2       15 UNK         0.5000 
     88 O          -3.0308  -23.0571  -51.8513 O.2       15 UNK        -0.5000 
     89 N          -3.1956  -22.9123  -49.5853 N.am      16 UNK        -0.5000 
     90 CA         -2.6370  -24.2060  -49.1831 C.3       16 UNK         0.1400 
     91 CB         -1.1459  -24.3017  -49.5703 C.3       16 UNK        -0.1800 
     92 C          -3.4888  -25.3805  -49.6986 C.2       16 UNK         0.5000 
     93 O          -2.9531  -26.3206  -50.2832 O.2       16 UNK        -0.5000 
     94 N          -4.8143  -25.2784  -49.5135 N.am      17 UNK        -0.5000 
     95 CA         -5.8443  -26.1737  -50.0576 C.3       17 UNK         0.1400 
     96 CB         -5.8146  -27.5371  -49.3372 C.3       17 UNK        -0.1800 
     97 C          -5.7518  -26.2943  -51.5962 C.2       17 UNK         0.5000 
     98 O          -5.7679  -27.3975  -52.1448 O.2       17 UNK        -0.5000 
     99 N          -5.6070  -25.1320  -52.2455 N.am      18 UNK        -0.5000 
    100 CA        -5.4019  -24.8885  -53.6741 C.3       18 UNK         0.1400 
    101 CB        -6.5945  -25.4098  -54.5013 C.3       18 UNK        -0.1800 
    102 C         -4.0483  -25.3689  -54.2414 C.2       18 UNK         0.5000 
    103 O         -3.8440  -25.2464  -55.4503 O.2       18 UNK        -0.5000 
    104 N         -3.1247  -25.8638  -53.4013 N.am      19 UNK        -0.5000 
    105 CA        -1.8094  -26.3589  -53.8264 C.3       19 UNK         0.1400 
    106 CB        -1.1306  -27.1192  -52.6789 C.3       19 UNK        -0.1800 
    107 C         -0.8735  -25.2623  -54.3698 C.2       19 UNK         0.5000 
    108 O          0.0187  -25.5771  -55.1586 O.2       19 UNK        -0.5000 
    109 N         -1.1006  -23.9993  -53.9774 N.am      20 UNK        -0.5000 
    110 CA        -0.3998  -22.8354  -54.5284 C.3       20 UNK         0.1400 
    111 CB        -0.5464  -21.6526  -53.5605 C.3       20 UNK        -0.1800 
    112 C         -0.8774  -22.4526  -55.9481 C.2       20 UNK         0.5000 
    113 O         -0.2091  -21.6549  -56.6062 O.2       20 UNK        -0.5000 
    114 N         -2.0066  -23.0287  -56.3959 N.am      21 UNK        -0.5000 
    115 CA        -2.6269  -22.8848  -57.7193 C.3       21 UNK         0.1400 
    116 CB        -1.7136  -23.4698  -58.8170 C.3       21 UNK        -0.1800 
    117 C         -3.1113  -21.4533  -58.0371 C.2       21 UNK         0.5000 
    118 O         -3.1596  -21.0632  -59.2056 O.2       21 UNK        -0.5000 
    119 N         -3.4684  -20.6982  -56.9921 N.am      22 UNK        -0.5000 
    120 CA        -4.0113  -19.3348  -57.0791 C.3       22 UNK         0.1400 
    121 C         -5.4405  -19.2995  -57.6887 C.2       22 UNK         0.5000 
    122 N         -5.7711  -18.2651  -58.4498 N.am      22 UNK        -0.7600 
    123 O         -6.2653  -20.1777  -57.4444 O.2       22 UNK        -0.5000 
    124 C124       -3.9951  -18.6304  -55.7003 C.3       23 UNK        -0.0398 
    125 S125       -2.3131  -18.5113  -55.0092 S.3       23 UNK        -0.2404 
    126 C126       -2.6364  -17.5374  -53.5106 C.3       23 UNK        -0.0205 
    127 H127        1.7789  -10.9317  -44.9474 H         1 UNK         0.0600 
    128 H128        1.9014  -12.6178  -45.3912 H         1 UNK         0.0600 
    129 H129        0.3401  -11.9369  -44.8831 H         1 UNK         0.0600 
    130 H130        0.5872  -11.9232  -48.7810 H         1 UNK         0.3000 
    131 H131        1.6671  -13.9896  -47.0525 H         1 UNK         0.0600 
    132 H132        2.4502  -14.2115  -49.2104 H         1 UNK         0.0800 
    133 H133        1.2059  -15.4168  -49.1050 H         1 UNK         0.0800 
    134 H134        2.3387  -14.8890  -51.7847 H         1 UNK         0.0800 
    135 H135        1.1706  -14.2285  -52.9006 H         1 UNK         0.0800 
    136 H136       -0.9993  -15.3574  -53.3126 H         1 UNK         0.1150 
    137 H137       -1.4976  -19.3536  -51.8456 H         1 UNK         0.1150 
    138 H138        1.8860  -17.0297  -50.6195 H         1 UNK         0.1150 
    139 H139        0.0150  -20.2860  -50.2713 H         1 UNK         0.0800 
    140 H140        1.6711  -19.7821  -50.5126 H         1 UNK         0.0800 
    141 H141       -1.3196  -17.7778  -49.0403 H         1 UNK         0.0800 
    142 H142       -0.8929  -17.5334  -47.3808 H         1 UNK         0.0800 
    143 H143       -1.9726  -20.1110  -48.6077 H         1 UNK         0.0600 
    144 H144       -0.6375  -19.8007  -46.0839 H         1 UNK         0.3000 
    145 H145       -1.9142  -22.7763  -44.6151 H         1 UNK         0.0600 
    146 H146       -0.3724  -23.7740  -46.3083 H         1 UNK         0.0600 
    147 H147        0.7787  -22.4683  -46.0526 H         1 UNK         0.0600 
    148 H148        0.4241  -23.6065  -44.7517 H         1 UNK         0.0600 
    149 H149        0.3517  -21.1275  -44.0109 H         1 UNK         0.3000 
    150 H150       -1.3502  -18.5089  -42.3565 H         1 UNK         0.0600 
    151 H151       -1.3486  -20.3242  -40.6218 H         1 UNK         0.0600 
    152 H152       -0.0222  -19.2017  -40.3950 H         1 UNK         0.0600 
    153 H153        0.2783  -20.7866  -41.1070 H         1 UNK         0.0600 
    154 H154        1.4100  -19.0247  -42.4851 H         1 UNK         0.3000 
    155 H155        2.4845  -18.6318  -45.3144 H         1 UNK         0.0600 
    156 H156        1.4783  -16.6177  -46.3483 H         1 UNK         0.0600 
    157 H157        3.1054  -16.2667  -45.7916 H         1 UNK         0.0600 
    158 H158        1.7235  -15.7055  -44.8563 H         1 UNK         0.0600 
    159 H159        2.7592  -16.8968  -42.8924 H         1 UNK         0.3000 
    160 H160        4.5429  -18.3592  -41.1953 H         1 UNK         0.0600 
    161 H161        7.0263  -18.0289  -41.3173 H         1 UNK         0.0600 
    162 H162        6.9359  -18.0268  -43.0784 H         1 UNK         0.0600 
    163 H163        6.5020  -19.4690  -42.1731 H         1 UNK         0.0600 
    164 H164        4.4856  -16.1762  -40.9952 H         1 UNK         0.3000 
    165 H165        5.8995  -13.4750  -42.2682 H         1 UNK         0.0600 
    166 H166        3.1340  -13.8926  -43.5274 H         1 UNK         0.0600 
    167 H167        3.8328  -12.3269  -43.1157 H         1 UNK         0.0600 
    168 H168        4.5771  -13.3244  -44.3532 H         1 UNK         0.0600 
    169 H169        3.2690  -14.1023  -41.0572 H         1 UNK         0.3000 
    170 H170        4.5328  -14.3841  -37.8025 H         1 UNK         0.0600 
    171 H171        2.9631  -11.9719  -38.8684 H         1 UNK         0.0600 
    172 H172        2.9777  -12.5416  -37.1986 H         1 UNK         0.0600 
    173 H173        4.4406  -11.8879  -37.9167 H         1 UNK         0.0600 
    174 H174        1.8681  -14.1861  -38.8030 H         1 UNK         0.3000 
    175 H175        1.5199  -17.4487  -40.1092 H         1 UNK         0.0600 
    176 H176        0.4371  -16.3555  -37.4534 H         1 UNK         0.0600 
    177 H177       -0.3050  -17.6306  -38.4190 H         1 UNK         0.0600 
    178 H178        1.2613  -17.8951  -37.6697 H         1 UNK         0.0600 
    179 H179       -0.3324  -15.3233  -39.5746 H         1 UNK         0.3000 
    180 H180       -1.1764  -14.0752  -41.1933 H         1 UNK         0.0600 
    181 H181        1.3313  -12.5630  -42.1198 H         1 UNK         0.0600 
    182 H182        0.6849  -12.5524  -40.4838 H         1 UNK         0.0600 
    183 H183       -0.2470  -11.8496  -41.7938 H         1 UNK         0.0600 
    184 H184       -0.3036  -13.3682  -43.7796 H         1 UNK         0.3000 
    185 H185       -1.9195  -15.9725  -45.5888 H         1 UNK         0.0600 
    186 H186       -3.3336  -14.1525  -46.4634 H         1 UNK         0.0600 
    187 H187       -3.7906  -14.4042  -44.7937 H         1 UNK         0.0600 
    188 H188       -2.7673  -13.0401  -45.2192 H         1 UNK         0.0600 
    189 H189        0.2393  -14.2248  -45.3619 H         1 UNK         0.3000 
    190 H190       -2.8201  -18.6652  -45.4897 H         1 UNK         0.3000 
    191 H191       -5.3219  -17.4877  -46.3225 H         1 UNK         0.0600 
    192 H192       -4.3055  -18.3292  -43.5557 H         1 UNK         0.0600 
    193 H193       -4.1668  -16.7297  -44.2792 H         1 UNK         0.0600 
    194 H194       -5.7458  -17.3670  -43.8606 H         1 UNK         0.0600 
    195 H195       -4.3169  -20.7380  -45.4017 H         1 UNK         0.3000 
    196 H196       -7.0214  -21.8086  -45.1030 H         1 UNK         0.0600 
    197 H197       -5.1124  -22.6953  -43.7591 H         1 UNK         0.0600 
    198 H198       -4.3220  -23.2456  -45.2339 H         1 UNK         0.0600 
    199 H199       -5.8592  -23.9395  -44.7500 H         1 UNK         0.0600 
    200 H200       -7.3148  -20.6114  -47.2847 H         1 UNK         0.3000 
    201 H201       -7.9558  -20.6469  -49.4147 H         1 UNK         0.0600 
    202 H202       -9.0572  -22.7236  -50.2079 H         1 UNK         0.0600 
    203 H203       -9.4329  -22.4447  -48.5160 H         1 UNK         0.0600 
    204 H204       -8.2448  -23.6667  -48.9653 H         1 UNK         0.0600 
    205 H205       -5.2856  -20.3283  -49.3651 H         1 UNK         0.3000 
    206 H206       -3.4359  -20.3417  -50.5830 H         1 UNK         0.0600 
    207 H207       -5.1125  -21.5089  -52.8680 H         1 UNK         0.0600 
    208 H208       -3.6196  -20.5998  -53.0117 H         1 UNK         0.0600 
    209 H209       -5.0681  -19.8053  -52.4284 H         1 UNK         0.0600 
    210 H210       -3.5202  -22.3507  -48.8064 H         1 UNK         0.3000 
    211 H211       -2.6973  -24.2546  -48.0958 H         1 UNK         0.0600 
    212 H212       -0.5787  -23.4729  -49.1465 H         1 UNK         0.0600 
    213 H213       -0.7035  -25.2243  -49.1933 H         1 UNK         0.0600 
    214 H214       -1.0019  -24.2878  -50.6507 H         1 UNK         0.0600 
    215 H215       -5.1622  -24.4814  -48.9861 H         1 UNK         0.3000 
    216 H216       -6.8052  -25.7042  -49.8421 H         1 UNK         0.0600 
    217 H217       -6.6431  -28.1676  -49.6619 H         1 UNK         0.0600 
    218 H218       -4.8913  -28.0819  -49.5365 H         1 UNK         0.0600 
    219 H219       -5.9046  -27.4132  -48.2581 H         1 UNK         0.0600 
    220 H220       -5.6621  -24.2835  -51.6849 H         1 UNK         0.3000 
    221 H221       -5.3881  -23.8029  -53.7769 H         1 UNK         0.0600 
    222 H222       -6.6387  -26.4990  -54.5085 H         1 UNK         0.0600 
    223 H223       -6.5252  -25.0812  -55.5390 H         1 UNK         0.0600 
    224 H224       -7.5401  -25.0365  -54.1080 H         1 UNK         0.0600 
    225 H225       -3.3298  -25.9102  -52.4101 H         1 UNK         0.3000 
    226 H226       -1.9779  -27.0692  -54.6384 H         1 UNK         0.0600 
    227 H227       -1.7785  -27.9009  -52.2819 H         1 UNK         0.0600 
    228 H228       -0.2132  -27.6000  -53.0206 H         1 UNK         0.0600 
    229 H229       -0.8606  -26.4528  -51.8599 H         1 UNK         0.0600 
    230 H230       -1.8376  -23.8140  -53.3021 H         1 UNK         0.3000 
    231 H231        0.6631  -23.0753  -54.5992 H         1 UNK         0.0600 
    232 H232        0.0349  -20.7936  -53.8983 H         1 UNK         0.0600 
    233 H233       -0.1983  -21.9103  -52.5601 H         1 UNK         0.0600 
    234 H234       -1.5826  -21.3324  -53.4839 H         1 UNK         0.0600 
    235 H235       -2.4722  -23.6913  -55.7862 H         1 UNK         0.3000 
    236 H236       -3.5284  -23.4983  -57.6902 H         1 UNK         0.0600 
    237 H237       -1.4027  -24.4851  -58.5701 H         1 UNK         0.0600 
    238 H238       -2.2319  -23.5154  -59.7754 H         1 UNK         0.0600 
    239 H239       -0.8153  -22.8686  -58.9600 H         1 UNK         0.0600 
    240 H240       -3.3941  -21.0923  -56.0672 H         1 UNK         0.3000 
    241 H241       -3.3553  -18.7725  -57.7470 H         1 UNK         0.0600 
    242 H242       -6.7000  -18.2219  -58.8402 H         1 UNK         0.3800 
    243 H243       -5.1138  -17.5294  -58.6601 H         1 UNK         0.3800 
    244 H244       -4.6337  -19.1591  -54.9908 H         1 UNK         0.0800 
    245 H245       -4.3971  -17.6191  -55.7855 H         1 UNK         0.0800 
    246 H246       -3.0333  -16.5607  -53.7915 H         1 UNK         0.0800 
    247 H247       -3.4054  -18.0232  -52.9097 H         1 UNK         0.0800 
@<TRIPOS>BOND
     1    1    2 1    
     2    1  127 1    
     3    1  128 1    
     4    1  129 1    
     5    2    3 2    
     6    2    4 am   BACKBONE|DICT|INTERRES
     7    4    5 1    
     8    4  130 1    
     9    5    6 1    
    10    5   65 1    
    11    5  131 1    
    12    6    7 1    
    13    6  132 1    
    14    6  133 1    
    15    7    8 1    
    16    8    9 1    
    17    8  134 1    
    18    8  135 1    
    19    9   10 ar   
    20    9   14 ar   
    21   10   11 ar   
    22   10  136 1    
    23   11   12 ar   
    24   11  126 1    
    25   12   13 ar   
    26   12  137 1    
    27   13   14 ar   
    28   13   15 1    
    29   14  138 1    
    30   15   16 1    
    31   15  139 1    
    32   15  140 1    
    33   16   17 1    
    34   17   18 1    
    35   17  141 1    
    36   17  142 1    
    37   18   19 1    
    38   18   67 1    
    39   18  143 1    
    40   19   20 am   BACKBONE|DICT|INTERRES
    41   19  144 1    
    42   20   21 2    
    43   20   22 1    
    44   22   23 1    
    45   22   24 1    
    46   22  145 1    
    47   23  146 1    
    48   23  147 1    
    49   23  148 1    
    50   24   25 am   BACKBONE|DICT|INTERRES
    51   24  149 1    
    52   25   26 2    
    53   25   27 1    
    54   27   28 1    
    55   27   29 1    
    56   27  150 1    
    57   28  151 1    
    58   28  152 1    
    59   28  153 1    
    60   29   30 am   BACKBONE|DICT|INTERRES
    61   29  154 1    
    62   30   31 2    
    63   30   32 1    
    64   32   33 1    
    65   32   34 1    
    66   32  155 1    
    67   33  156 1    
    68   33  157 1    
    69   33  158 1    
    70   34   35 am   BACKBONE|DICT|INTERRES
    71   34  159 1    
    72   35   36 2    
    73   35   37 1    
    74   37   38 1    
    75   37   39 1    
    76   37  160 1    
    77   38  161 1    
    78   38  162 1    
    79   38  163 1    
    80   39   40 am   BACKBONE|DICT|INTERRES
    81   39  164 1    
    82   40   41 2    
    83   40   42 1    
    84   42   43 1    
    85   42   44 1    
    86   42  165 1    
    87   43  166 1    
    88   43  167 1    
    89   43  168 1    
    90   44   45 am   BACKBONE|DICT|INTERRES
    91   44  169 1    
    92   45   46 2    
    93   45   47 1    
    94   47   48 1    
    95   47   49 1    
    96   47  170 1    
    97   48  171 1    
    98   48  172 1    
    99   48  173 1    
   100   49   50 am   BACKBONE|DICT|INTERRES
   101   49  174 1    
   102   50   51 2    
   103   50   52 1    
   104   52   53 1    
   105   52   54 1    
   106   52  175 1    
   107   53  176 1    
   108   53  177 1    
   109   53  178 1    
   110   54   55 am   BACKBONE|DICT|INTERRES
   111   54  179 1    
   112   55   56 2    
   113   55   57 1    
   114   57   58 1    
   115   57   59 1    
   116   57  180 1    
   117   58  181 1    
   118   58  182 1    
   119   58  183 1    
   120   59   60 am   BACKBONE|DICT|INTERRES
   121   59  184 1    
   122   60   61 2    
   123   60   62 1    
   124   62   63 1    
   125   62   64 1    
   126   62  185 1    
   127   63  186 1    
   128   63  187 1    
   129   63  188 1    
   130   64   65 am   BACKBONE|DICT|INTERRES
   131   64  189 1    
   132   65   66 2    
   133   67   68 2    
   134   67   69 am   BACKBONE|DICT|INTERRES
   135   69   70 1    
   136   69  190 1    
   137   70   71 1    
   138   70   72 1    
   139   70  191 1    
   140   71  192 1    
   141   71  193 1    
   142   71  194 1    
   143   72   73 2    
   144   72   74 am   BACKBONE|DICT|INTERRES
   145   74   75 1    
   146   74  195 1    
   147   75   76 1    
   148   75   77 1    
   149   75  196 1    
   150   76  197 1    
   151   76  198 1    
   152   76  199 1    
   153   77   78 2    
   154   77   79 am   BACKBONE|DICT|INTERRES
   155   79   80 1    
   156   79  200 1    
   157   80   81 1    
   158   80   82 1    
   159   80  201 1    
   160   81  202 1    
   161   81  203 1    
   162   81  204 1    
   163   82   83 2    
   164   82   84 am   BACKBONE|DICT|INTERRES
   165   84   85 1    
   166   84  205 1    
   167   85   86 1    
   168   85   87 1    
   169   85  206 1    
   170   86  207 1    
   171   86  208 1    
   172   86  209 1    
   173   87   88 2    
   174   87   89 am   BACKBONE|DICT|INTERRES
   175   89   90 1    
   176   89  210 1    
   177   90   91 1    
   178   90   92 1    
   179   90  211 1    
   180   91  212 1    
   181   91  213 1    
   182   91  214 1    
   183   92   93 2    
   184   92   94 am   BACKBONE|DICT|INTERRES
   185   94   95 1    
   186   94  215 1    
   187   95   96 1    
   188   95   97 1    
   189   95  216 1    
   190   96  217 1    
   191   96  218 1    
   192   96  219 1    
   193   97   98 2    
   194   97   99 am   BACKBONE|DICT|INTERRES
   195   99  100 1    
   196   99  220 1    
   197  100  101 1    
   198  100  102 1    
   199  100  221 1    
   200  101  222 1    
   201  101  223 1    
   202  101  224 1    
   203  102  103 2    
   204  102  104 am   BACKBONE|DICT|INTERRES
   205  104  105 1    
   206  104  225 1    
   207  105  106 1    
   208  105  107 1    
   209  105  226 1    
   210  106  227 1    
   211  106  228 1    
   212  106  229 1    
   213  107  108 2    
   214  107  109 am   BACKBONE|DICT|INTERRES
   215  109  110 1    
   216  109  230 1    
   217  110  111 1    
   218  110  112 1    
   219  110  231 1    
   220  111  232 1    
   221  111  233 1    
   222  111  234 1    
   223  112  113 2    
   224  112  114 am   BACKBONE|DICT|INTERRES
   225  114  115 1    
   226  114  235 1    
   227  115  116 1    
   228  115  117 1    
   229  115  236 1    
   230  116  237 1    
   231  116  238 1    
   232  116  239 1    
   233  117  118 2    
   234  117  119 am   BACKBONE|DICT|INTERRES
   235  119  120 1    
   236  119  240 1    
   237  120  121 1    
   238  120  124 1    
   239  120  241 1    
   240  121  122 am   BACKBONE|DICT|INTERRES
   241  121  123 2    
   242  122  242 1    
   243  122  243 1    
   244  124  125 1    
   245  124  244 1    
   246  124  245 1    
   247  125  126 1    
   248  126  246 1    
   249  126  247 1    
@<TRIPOS>SUBSTRUCTURE
     1 UNK         1 GROUP             0       ****    0 ROOT    
