@<TRIPOS>MOLECULE
3R540
247   249    1
SMALL
USER_CHARGES


@<TRIPOS>ATOM
      1 CA          0.2588   -9.4940  -52.2655 C.3       0 UNK        -0.1800 
      2 C           0.0776  -10.3307  -51.0068 C.2       0 UNK         0.5000 
      3 O          -0.3295   -9.7978  -49.9746 O.2       0 UNK        -0.5000 
      4 N           0.3850  -11.6329  -51.0935 N.am      1 UNK        -0.5000 
      5 CA          0.2710  -12.6334  -50.0192 C.3       1 UNK         0.1400 
      6 C6         -1.1878  -12.8904  -49.5464 C.3       23 UNK        -0.0398 
      7 S7         -2.2908  -13.3763  -50.9183 S.3       23 UNK        -0.2404 
      8 C8         -2.4738  -15.1687  -50.6427 C.3       23 UNK        -0.0205 
      9 C9         -1.1509  -15.9207  -50.7174 C.ar      23 UNK        -0.0193 
     10 C10        -0.3966  -15.9065  -51.8935 C.ar      23 UNK        -0.1150 
     11 C11         0.8008  -16.6206  -51.9756 C.ar      23 UNK        -0.0193 
     12 C12         1.2456  -17.3464  -50.8675 C.ar      23 UNK        -0.1150 
     13 C13         0.4935  -17.3945  -49.6908 C.ar      23 UNK        -0.0193 
     14 C14        -0.7008  -16.6638  -49.6215 C.ar      23 UNK        -0.1150 
     15 C15         1.0190  -18.2487  -48.5350 C.3       23 UNK        -0.0205 
     16 S16        -0.2020  -18.7309  -47.2706 S.3       23 UNK        -0.2404 
     17 C17        -1.2725  -19.9077  -48.1726 C.3       23 UNK        -0.0398 
     18 CA         -0.9376  -21.4090  -47.9290 C.3       11 UNK         0.1400 
     19 N          -0.5037  -21.6774  -46.5545 N.am      11 UNK        -0.5000 
     20 C          -0.1009  -22.8557  -46.0587 C.2       10 UNK         0.5000 
     21 O          -0.0217  -23.8925  -46.7155 O.2       10 UNK        -0.5000 
     22 CA          0.2192  -22.8849  -44.5537 C.3       10 UNK         0.1400 
     23 CB          1.7020  -22.5696  -44.3098 C.3       10 UNK        -0.1800 
     24 N          -0.6017  -21.9523  -43.7809 N.am      10 UNK        -0.5000 
     25 C          -1.9344  -21.9890  -43.6609 C.2       9 UNK         0.5000 
     26 O          -2.6307  -22.8525  -44.1995 O.2       9 UNK        -0.5000 
     27 CA         -2.5906  -20.8594  -42.8291 C.3       9 UNK         0.1400 
     28 CB         -4.0551  -21.1720  -42.4731 C.3       9 UNK        -0.1800 
     29 N          -1.8676  -20.5244  -41.5947 N.am      9 UNK        -0.5000 
     30 C          -0.7037  -19.8663  -41.5131 C.2       8 UNK         0.5000 
     31 O          -0.0676  -19.4931  -42.5027 O.2       8 UNK        -0.5000 
     32 CA         -0.1344  -19.6493  -40.0964 C.3       8 UNK         0.1400 
     33 CB          0.3951  -20.9737  -39.5213 C.3       8 UNK        -0.1800 
     34 N           0.9584  -18.6760  -40.0958 N.am      8 UNK        -0.5000 
     35 C           0.8091  -17.3586  -40.2768 C.2       7 UNK         0.5000 
     36 O          -0.2873  -16.7935  -40.3263 O.2       7 UNK        -0.5000 
     37 CA          2.1117  -16.5583  -40.4431 C.3       7 UNK         0.1400 
     38 CB          2.7682  -16.8686  -41.7992 C.3       7 UNK        -0.1800 
     39 N           1.8377  -15.1250  -40.3810 N.am      7 UNK        -0.5000 
     40 C           2.2610  -14.2948  -39.4198 C.2       6 UNK         0.5000 
     41 O           2.9560  -14.6573  -38.4683 O.2       6 UNK        -0.5000 
     42 CA          1.8269  -12.8143  -39.5293 C.3       6 UNK         0.1400 
     43 CB          2.8260  -11.8468  -38.8597 C.3       6 UNK        -0.1800 
     44 N           1.5228  -12.3822  -40.8996 N.am      6 UNK        -0.5000 
     45 C           2.3599  -12.3462  -41.9466 C.2       5 UNK         0.5000 
     46 O           3.5543  -12.6467  -41.8976 O.2       5 UNK        -0.5000 
     47 CA          1.7315  -11.9320  -43.2901 C.3       5 UNK         0.1400 
     48 CB          2.4925  -10.7600  -43.9298 C.3       5 UNK        -0.1800 
     49 N           1.6748  -13.0484  -44.2337 N.am      5 UNK        -0.5000 
     50 C           0.9919  -14.1884  -44.0492 C.2       4 UNK         0.5000 
     51 O           0.3568  -14.4415  -43.0242 O.2       4 UNK        -0.5000 
     52 CA          0.9818  -15.2069  -45.2047 C.3       4 UNK         0.1400 
     53 CB         -0.3831  -15.1783  -45.9098 C.3       4 UNK        -0.1800 
     54 N           2.0318  -14.9486  -46.1925 N.am      4 UNK        -0.5000 
     55 C           3.2686  -15.4648  -46.1357 C.2       3 UNK         0.5000 
     56 O           3.6434  -16.2321  -45.2492 O.2       3 UNK        -0.5000 
     57 CA          4.2639  -15.0668  -47.2474 C.3       3 UNK         0.1400 
     58 CB          4.3741  -16.1752  -48.3062 C.3       3 UNK        -0.1800 
     59 N           3.9248  -13.8132  -47.9200 N.am      3 UNK        -0.5000 
     60 C           4.0048  -12.5974  -47.3640 C.2       2 UNK         0.5000 
     61 O           4.4456  -12.3940  -46.2340 O.2       2 UNK        -0.5000 
     62 CA          3.4586  -11.4170  -48.1923 C.3       2 UNK         0.1400 
     63 CB          4.5989  -10.7080  -48.9380 C.3       2 UNK        -0.1800 
     64 N           2.4174  -11.7929  -49.1561 N.am      2 UNK        -0.5000 
     65 C           1.2344  -12.3453  -48.8447 C.2       1 UNK         0.5000 
     66 O           0.9182  -12.6446  -47.6927 O.2       1 UNK        -0.5000 
     67 C          -2.1491  -22.2887  -48.3022 C.2       11 UNK         0.5000 
     68 O          -2.1481  -22.9463  -49.3439 O.2       11 UNK        -0.5000 
     69 N          -3.1458  -22.3019  -47.4047 N.am      12 UNK        -0.5000 
     70 CA         -4.3541  -23.1120  -47.5081 C.3       12 UNK         0.1400 
     71 CB         -5.3870  -22.6232  -46.4800 C.3       12 UNK        -0.1800 
     72 C          -4.0617  -24.6054  -47.3044 C.2       12 UNK         0.5000 
     73 O          -4.5944  -25.4266  -48.0483 O.2       12 UNK        -0.5000 
     74 N          -3.2200  -24.9342  -46.3151 N.am      13 UNK        -0.5000 
     75 CA         -2.8494  -26.3101  -45.9791 C.3       13 UNK         0.1400 
     76 CB         -2.0076  -26.3188  -44.6949 C.3       13 UNK        -0.1800 
     77 C          -2.1118  -27.0362  -47.1198 C.2       13 UNK         0.5000 
     78 O          -2.4196  -28.1957  -47.3983 O.2       13 UNK        -0.5000 
     79 N          -1.1699  -26.3387  -47.7688 N.am      14 UNK        -0.5000 
     80 CA         -0.3673  -26.8662  -48.8715 C.3       14 UNK         0.1400 
     81 CB          0.8291  -25.9341  -49.1169 C.3       14 UNK        -0.1800 
     82 C          -1.1673  -27.0586  -50.1721 C.2       14 UNK         0.5000 
     83 O          -0.9321  -28.0347  -50.8856 O.2       14 UNK        -0.5000 
     84 N          -2.0804  -26.1237  -50.4652 N.am      15 UNK        -0.5000 
     85 CA         -2.8134  -26.0588  -51.7325 C.3       15 UNK         0.1400 
     86 CB         -2.8561  -24.5962  -52.1894 C.3       15 UNK        -0.1800 
     87 C          -4.2294  -26.6604  -51.6654 C.2       15 UNK         0.5000 
     88 O          -4.9539  -26.5798  -52.6572 O.2       15 UNK        -0.5000 
     89 N          -4.6074  -27.2409  -50.5174 N.am      16 UNK        -0.5000 
     90 CA         -5.9127  -27.8442  -50.2217 C.3       16 UNK         0.1400 
     91 CB         -6.1574  -29.0956  -51.0912 C.3       16 UNK        -0.1800 
     92 C          -7.0551  -26.8099  -50.3020 C.2       16 UNK         0.5000 
     93 O          -7.9792  -26.9482  -51.1044 O.2       16 UNK        -0.5000 
     94 N          -6.9268  -25.7730  -49.4654 N.am      17 UNK        -0.5000 
     95 CA         -7.8046  -24.6154  -49.2592 C.3       17 UNK         0.1400 
     96 CB         -9.2783  -25.0220  -49.0592 C.3       17 UNK        -0.1800 
     97 C          -7.6503  -23.4976  -50.3070 C.2       17 UNK         0.5000 
     98 O          -8.1610  -22.3991  -50.0816 O.2       17 UNK        -0.5000 
     99 N          -6.9251  -23.7477  -51.4049 N.am      18 UNK        -0.5000 
    100 CA        -6.6742  -22.7853  -52.4795 C.3       18 UNK         0.1400 
    101 CB        -6.4094  -23.5470  -53.7887 C.3       18 UNK        -0.1800 
    102 C         -5.5477  -21.7922  -52.1224 C.2       18 UNK         0.5000 
    103 O         -4.5406  -21.7060  -52.8279 O.2       18 UNK        -0.5000 
    104 N         -5.7417  -21.0284  -51.0386 N.am      19 UNK        -0.5000 
    105 CA        -4.8246  -19.9809  -50.5723 C.3       19 UNK         0.1400 
    106 CB        -5.3256  -19.4182  -49.2360 C.3       19 UNK        -0.1800 
    107 C         -4.6211  -18.8463  -51.5965 C.2       19 UNK         0.5000 
    108 O         -3.5368  -18.2707  -51.6582 O.2       19 UNK        -0.5000 
    109 N         -5.6447  -18.5899  -52.4242 N.am      20 UNK        -0.5000 
    110 CA        -5.6052  -17.6603  -53.5565 C.3       20 UNK         0.1400 
    111 CB        -7.0342  -17.4624  -54.0844 C.3       20 UNK        -0.1800 
    112 C         -4.6670  -18.1122  -54.6968 C.2       20 UNK         0.5000 
    113 O         -4.2180  -17.2705  -55.4747 O.2       20 UNK        -0.5000 
    114 N         -4.3672  -19.4173  -54.7609 N.am      21 UNK        -0.5000 
    115 CA        -3.3847  -20.0254  -55.6605 C.3       21 UNK         0.1400 
    116 CB        -3.9676  -21.3363  -56.2185 C.3       21 UNK        -0.1800 
    117 C         -2.0372  -20.2575  -54.9418 C.2       21 UNK         0.5000 
    118 O         -1.2441  -21.0876  -55.3878 O.2       21 UNK        -0.5000 
    119 N         -1.8113  -19.5276  -53.8419 N.am      22 UNK        -0.5000 
    120 CA        -0.6476  -19.5886  -52.9455 C.3       22 UNK         0.1400 
    121 C         -0.6370  -20.8029  -51.9747 C.2       22 UNK         0.5000 
    122 N         -1.7314  -21.5361  -51.8214 N.am      22 UNK        -0.7600 
    123 O          0.3569  -21.0515  -51.2985 O.2       22 UNK        -0.5000 
    124 C124        0.7210  -19.3391  -53.6465 C.3       23 UNK        -0.0398 
    125 S125        0.7832  -17.7317  -54.5177 S.3       23 UNK        -0.2404 
    126 C126        1.5840  -16.6581  -53.2789 C.3       23 UNK        -0.0205 
    127 H127       -0.6911   -9.0465  -52.5577 H         1 UNK         0.0600 
    128 H128        0.6241  -10.0913  -53.1013 H         1 UNK         0.0600 
    129 H129        0.9735   -8.6915  -52.0829 H         1 UNK         0.0600 
    130 H130        0.7024  -11.9962  -51.9813 H         1 UNK         0.3000 
    131 H131        0.6352  -13.5664  -50.4505 H         1 UNK         0.0600 
    132 H132       -1.2148  -13.6717  -48.7850 H         1 UNK         0.0800 
    133 H133       -1.6011  -11.9989  -49.0732 H         1 UNK         0.0800 
    134 H134       -2.9637  -15.3337  -49.6819 H         1 UNK         0.0800 
    135 H135       -3.1470  -15.5715  -51.4005 H         1 UNK         0.0800 
    136 H136       -0.7533  -15.3559  -52.7527 H         1 UNK         0.1150 
    137 H137        2.1669  -17.9082  -50.9330 H         1 UNK         0.1150 
    138 H138       -1.2996  -16.6831  -48.7238 H         1 UNK         0.1150 
    139 H139        1.4771  -19.1579  -48.9283 H         1 UNK         0.0800 
    140 H140        1.8106  -17.6949  -48.0319 H         1 UNK         0.0800 
    141 H141       -1.2430  -19.6853  -49.2402 H         1 UNK         0.0800 
    142 H142       -2.2915  -19.6768  -47.8564 H         1 UNK         0.0800 
    143 H143       -0.1089  -21.6848  -48.5843 H         1 UNK         0.0600 
    144 H144       -0.5023  -20.8783  -45.9370 H         1 UNK         0.3000 
    145 H145        0.0179  -23.8912  -44.1846 H         1 UNK         0.0600 
    146 H146        1.9549  -22.6578  -43.2530 H         1 UNK         0.0600 
    147 H147        2.3436  -23.2620  -44.8566 H         1 UNK         0.0600 
    148 H148        1.9568  -21.5591  -44.6323 H         1 UNK         0.0600 
    149 H149       -0.1229  -21.1692  -43.3443 H         1 UNK         0.3000 
    150 H150       -2.5919  -19.9724  -43.4658 H         1 UNK         0.0600 
    151 H151       -4.5139  -20.3477  -41.9269 H         1 UNK         0.0600 
    152 H152       -4.1356  -22.0695  -41.8586 H         1 UNK         0.0600 
    153 H153       -4.6538  -21.3326  -43.3705 H         1 UNK         0.0600 
    154 H154       -2.3015  -20.8374  -40.7381 H         1 UNK         0.3000 
    155 H155       -0.9360  -19.2784  -39.4543 H         1 UNK         0.0600 
    156 H156       -0.3968  -21.7202  -39.4508 H         1 UNK         0.0600 
    157 H157        0.7952  -20.8352  -38.5167 H         1 UNK         0.0600 
    158 H158        1.1869  -21.3945  -40.1427 H         1 UNK         0.0600 
    159 H159        1.8915  -19.0608  -40.0963 H         1 UNK         0.3000 
    160 H160        2.7971  -16.8569  -39.6474 H         1 UNK         0.0600 
    161 H161        3.0881  -17.9095  -41.8555 H         1 UNK         0.0600 
    162 H162        3.6501  -16.2491  -41.9647 H         1 UNK         0.0600 
    163 H163        2.0805  -16.6965  -42.6267 H         1 UNK         0.0600 
    164 H164        1.2234  -14.7688  -41.1058 H         1 UNK         0.3000 
    165 H165        0.8879  -12.7428  -38.9788 H         1 UNK         0.0600 
    166 H166        2.4908  -10.8131  -38.9432 H         1 UNK         0.0600 
    167 H167        2.9317  -12.0659  -37.7966 H         1 UNK         0.0600 
    168 H168        3.8183  -11.9153  -39.3064 H         1 UNK         0.0600 
    169 H169        0.5526  -12.1529  -41.0668 H         1 UNK         0.3000 
    170 H170        0.7056  -11.6020  -43.1141 H         1 UNK         0.0600 
    171 H171        2.0359  -10.4582  -44.8727 H         1 UNK         0.0600 
    172 H172        2.4888   -9.8900  -43.2721 H         1 UNK         0.0600 
    173 H173        3.5341  -11.0146  -44.1273 H         1 UNK         0.0600 
    174 H174        2.2008  -12.9411  -45.0888 H         1 UNK         0.3000 
    175 H175        1.1168  -16.2042  -44.7814 H         1 UNK         0.0600 
    176 H176       -0.6537  -14.1735  -46.2343 H         1 UNK         0.0600 
    177 H177       -0.3870  -15.8230  -46.7857 H         1 UNK         0.0600 
    178 H178       -1.1715  -15.5289  -45.2428 H         1 UNK         0.0600 
    179 H179        1.7977  -14.2853  -46.9231 H         1 UNK         0.3000 
    180 H180        5.2420  -14.9490  -46.7762 H         1 UNK         0.0600 
    181 H181        5.1949  -15.9772  -48.9956 H         1 UNK         0.0600 
    182 H182        3.4607  -16.2617  -48.8947 H         1 UNK         0.0600 
    183 H183        4.5658  -17.1453  -47.8455 H         1 UNK         0.0600 
    184 H184        3.5571  -13.8855  -48.8569 H         1 UNK         0.3000 
    185 H185        3.0157  -10.7075  -47.4903 H         1 UNK         0.0600 
    186 H186        5.0624  -11.3609  -49.6786 H         1 UNK         0.0600 
    187 H187        4.2400   -9.8163  -49.4524 H         1 UNK         0.0600 
    188 H188        5.3799  -10.3896  -48.2460 H         1 UNK         0.0600 
    189 H189        2.5988  -11.5726  -50.1247 H         1 UNK         0.3000 
    190 H190       -3.0269  -21.7861  -46.5454 H         1 UNK         0.3000 
    191 H191       -4.7717  -22.9807  -48.5091 H         1 UNK         0.0600 
    192 H192       -5.0191  -22.7248  -45.4588 H         1 UNK         0.0600 
    193 H193       -6.3110  -23.1972  -46.5456 H         1 UNK         0.0600 
    194 H194       -5.6447  -21.5766  -46.6353 H         1 UNK         0.0600 
    195 H195       -2.8564  -24.2001  -45.7164 H         1 UNK         0.3000 
    196 H196       -3.7730  -26.8576  -45.7800 H         1 UNK         0.0600 
    197 H197       -1.8112  -27.3401  -44.3665 H         1 UNK         0.0600 
    198 H198       -2.5194  -25.8062  -43.8800 H         1 UNK         0.0600 
    199 H199       -1.0435  -25.8346  -44.8453 H         1 UNK         0.0600 
    200 H200       -0.9441  -25.3989  -47.4520 H         1 UNK         0.3000 
    201 H201        0.0210  -27.8423  -48.5730 H         1 UNK         0.0600 
    202 H202        1.4563  -25.8567  -48.2286 H         1 UNK         0.0600 
    203 H203        0.5051  -24.9273  -49.3853 H         1 UNK         0.0600 
    204 H204        1.4571  -26.3059  -49.9275 H         1 UNK         0.0600 
    205 H205       -2.2118  -25.3502  -49.8257 H         1 UNK         0.3000 
    206 H206       -2.2748  -26.6194  -52.4992 H         1 UNK         0.0600 
    207 H207       -1.8488  -24.1860  -52.2512 H         1 UNK         0.0600 
    208 H208       -3.2952  -24.5009  -53.1821 H         1 UNK         0.0600 
    209 H209       -3.4387  -23.9783  -51.5058 H         1 UNK         0.0600 
    210 H210       -3.9560  -27.2058  -49.7447 H         1 UNK         0.3000 
    211 H211       -5.8679  -28.1753  -49.1829 H         1 UNK         0.0600 
    212 H212       -6.2463  -28.8502  -52.1497 H         1 UNK         0.0600 
    213 H213       -7.0794  -29.5977  -50.7962 H         1 UNK         0.0600 
    214 H214       -5.3463  -29.8154  -50.9814 H         1 UNK         0.0600 
    215 H215       -6.0733  -25.7479  -48.9055 H         1 UNK         0.3000 
    216 H216       -7.4709  -24.1782  -48.3188 H         1 UNK         0.0600 
    217 H217       -9.8719  -24.1713  -48.7223 H         1 UNK         0.0600 
    218 H218       -9.3752  -25.8031  -48.3051 H         1 UNK         0.0600 
    219 H219       -9.7324  -25.3834  -49.9819 H         1 UNK         0.0600 
    220 H220       -6.5263  -24.6690  -51.5193 H         1 UNK         0.3000 
    221 H221       -7.5781  -22.1927  -52.6353 H         1 UNK         0.0600 
    222 H222       -5.5047  -24.1499  -53.7320 H         1 UNK         0.0600 
    223 H223       -7.2377  -24.2127  -54.0317 H         1 UNK         0.0600 
    224 H224       -6.2934  -22.8572  -54.6252 H         1 UNK         0.0600 
    225 H225       -6.5955  -21.1708  -50.5089 H         1 UNK         0.3000 
    226 H226       -3.8521  -20.4441  -50.3981 H         1 UNK         0.0600 
    227 H227       -5.3804  -20.1989  -48.4795 H         1 UNK         0.0600 
    228 H228       -4.6515  -18.6479  -48.8585 H         1 UNK         0.0600 
    229 H229       -6.3161  -18.9721  -49.3322 H         1 UNK         0.0600 
    230 H230       -6.5009  -19.1087  -52.2963 H         1 UNK         0.3000 
    231 H231       -5.2367  -16.6993  -53.1912 H         1 UNK         0.0600 
    232 H232       -7.4617  -18.3976  -54.4484 H         1 UNK         0.0600 
    233 H233       -7.6916  -17.0710  -53.3078 H         1 UNK         0.0600 
    234 H234       -7.0506  -16.7505  -54.9108 H         1 UNK         0.0600 
    235 H235       -4.7362  -20.0393  -54.0512 H         1 UNK         0.3000 
    236 H236       -3.1881  -19.3605  -56.5037 H         1 UNK         0.0600 
    237 H237       -4.0773  -22.0915  -55.4400 H         1 UNK         0.0600 
    238 H238       -4.9458  -21.1742  -56.6712 H         1 UNK         0.0600 
    239 H239       -3.3199  -21.7552  -56.9893 H         1 UNK         0.0600 
    240 H240       -2.5390  -18.8986  -53.5292 H         1 UNK         0.3000 
    241 H241       -0.8134  -18.7540  -52.2677 H         1 UNK         0.0600 
    242 H242       -1.7364  -22.2675  -51.1197 H         1 UNK         0.3800 
    243 H243       -2.5623  -21.3821  -52.3791 H         1 UNK         0.3800 
    244 H244        1.5387  -19.3717  -52.9257 H         1 UNK         0.0800 
    245 H245        0.9361  -20.1318  -54.3631 H         1 UNK         0.0800 
    246 H246        1.6652  -15.6480  -53.6829 H         1 UNK         0.0800 
    247 H247        2.6051  -17.0028  -53.1081 H         1 UNK         0.0800 
@<TRIPOS>BOND
     1    1    2 1    
     2    1  127 1    
     3    1  128 1    
     4    1  129 1    
     5    2    3 2    
     6    2    4 am   BACKBONE|DICT|INTERRES
     7    4    5 1    
     8    4  130 1    
     9    5    6 1    
    10    5   65 1    
    11    5  131 1    
    12    6    7 1    
    13    6  132 1    
    14    6  133 1    
    15    7    8 1    
    16    8    9 1    
    17    8  134 1    
    18    8  135 1    
    19    9   10 ar   
    20    9   14 ar   
    21   10   11 ar   
    22   10  136 1    
    23   11   12 ar   
    24   11  126 1    
    25   12   13 ar   
    26   12  137 1    
    27   13   14 ar   
    28   13   15 1    
    29   14  138 1    
    30   15   16 1    
    31   15  139 1    
    32   15  140 1    
    33   16   17 1    
    34   17   18 1    
    35   17  141 1    
    36   17  142 1    
    37   18   19 1    
    38   18   67 1    
    39   18  143 1    
    40   19   20 am   BACKBONE|DICT|INTERRES
    41   19  144 1    
    42   20   21 2    
    43   20   22 1    
    44   22   23 1    
    45   22   24 1    
    46   22  145 1    
    47   23  146 1    
    48   23  147 1    
    49   23  148 1    
    50   24   25 am   BACKBONE|DICT|INTERRES
    51   24  149 1    
    52   25   26 2    
    53   25   27 1    
    54   27   28 1    
    55   27   29 1    
    56   27  150 1    
    57   28  151 1    
    58   28  152 1    
    59   28  153 1    
    60   29   30 am   BACKBONE|DICT|INTERRES
    61   29  154 1    
    62   30   31 2    
    63   30   32 1    
    64   32   33 1    
    65   32   34 1    
    66   32  155 1    
    67   33  156 1    
    68   33  157 1    
    69   33  158 1    
    70   34   35 am   BACKBONE|DICT|INTERRES
    71   34  159 1    
    72   35   36 2    
    73   35   37 1    
    74   37   38 1    
    75   37   39 1    
    76   37  160 1    
    77   38  161 1    
    78   38  162 1    
    79   38  163 1    
    80   39   40 am   BACKBONE|DICT|INTERRES
    81   39  164 1    
    82   40   41 2    
    83   40   42 1    
    84   42   43 1    
    85   42   44 1    
    86   42  165 1    
    87   43  166 1    
    88   43  167 1    
    89   43  168 1    
    90   44   45 am   BACKBONE|DICT|INTERRES
    91   44  169 1    
    92   45   46 2    
    93   45   47 1    
    94   47   48 1    
    95   47   49 1    
    96   47  170 1    
    97   48  171 1    
    98   48  172 1    
    99   48  173 1    
   100   49   50 am   BACKBONE|DICT|INTERRES
   101   49  174 1    
   102   50   51 2    
   103   50   52 1    
   104   52   53 1    
   105   52   54 1    
   106   52  175 1    
   107   53  176 1    
   108   53  177 1    
   109   53  178 1    
   110   54   55 am   BACKBONE|DICT|INTERRES
   111   54  179 1    
   112   55   56 2    
   113   55   57 1    
   114   57   58 1    
   115   57   59 1    
   116   57  180 1    
   117   58  181 1    
   118   58  182 1    
   119   58  183 1    
   120   59   60 am   BACKBONE|DICT|INTERRES
   121   59  184 1    
   122   60   61 2    
   123   60   62 1    
   124   62   63 1    
   125   62   64 1    
   126   62  185 1    
   127   63  186 1    
   128   63  187 1    
   129   63  188 1    
   130   64   65 am   BACKBONE|DICT|INTERRES
   131   64  189 1    
   132   65   66 2    
   133   67   68 2    
   134   67   69 am   BACKBONE|DICT|INTERRES
   135   69   70 1    
   136   69  190 1    
   137   70   71 1    
   138   70   72 1    
   139   70  191 1    
   140   71  192 1    
   141   71  193 1    
   142   71  194 1    
   143   72   73 2    
   144   72   74 am   BACKBONE|DICT|INTERRES
   145   74   75 1    
   146   74  195 1    
   147   75   76 1    
   148   75   77 1    
   149   75  196 1    
   150   76  197 1    
   151   76  198 1    
   152   76  199 1    
   153   77   78 2    
   154   77   79 am   BACKBONE|DICT|INTERRES
   155   79   80 1    
   156   79  200 1    
   157   80   81 1    
   158   80   82 1    
   159   80  201 1    
   160   81  202 1    
   161   81  203 1    
   162   81  204 1    
   163   82   83 2    
   164   82   84 am   BACKBONE|DICT|INTERRES
   165   84   85 1    
   166   84  205 1    
   167   85   86 1    
   168   85   87 1    
   169   85  206 1    
   170   86  207 1    
   171   86  208 1    
   172   86  209 1    
   173   87   88 2    
   174   87   89 am   BACKBONE|DICT|INTERRES
   175   89   90 1    
   176   89  210 1    
   177   90   91 1    
   178   90   92 1    
   179   90  211 1    
   180   91  212 1    
   181   91  213 1    
   182   91  214 1    
   183   92   93 2    
   184   92   94 am   BACKBONE|DICT|INTERRES
   185   94   95 1    
   186   94  215 1    
   187   95   96 1    
   188   95   97 1    
   189   95  216 1    
   190   96  217 1    
   191   96  218 1    
   192   96  219 1    
   193   97   98 2    
   194   97   99 am   BACKBONE|DICT|INTERRES
   195   99  100 1    
   196   99  220 1    
   197  100  101 1    
   198  100  102 1    
   199  100  221 1    
   200  101  222 1    
   201  101  223 1    
   202  101  224 1    
   203  102  103 2    
   204  102  104 am   BACKBONE|DICT|INTERRES
   205  104  105 1    
   206  104  225 1    
   207  105  106 1    
   208  105  107 1    
   209  105  226 1    
   210  106  227 1    
   211  106  228 1    
   212  106  229 1    
   213  107  108 2    
   214  107  109 am   BACKBONE|DICT|INTERRES
   215  109  110 1    
   216  109  230 1    
   217  110  111 1    
   218  110  112 1    
   219  110  231 1    
   220  111  232 1    
   221  111  233 1    
   222  111  234 1    
   223  112  113 2    
   224  112  114 am   BACKBONE|DICT|INTERRES
   225  114  115 1    
   226  114  235 1    
   227  115  116 1    
   228  115  117 1    
   229  115  236 1    
   230  116  237 1    
   231  116  238 1    
   232  116  239 1    
   233  117  118 2    
   234  117  119 am   BACKBONE|DICT|INTERRES
   235  119  120 1    
   236  119  240 1    
   237  120  121 1    
   238  120  124 1    
   239  120  241 1    
   240  121  122 am   BACKBONE|DICT|INTERRES
   241  121  123 2    
   242  122  242 1    
   243  122  243 1    
   244  124  125 1    
   245  124  244 1    
   246  124  245 1    
   247  125  126 1    
   248  126  246 1    
   249  126  247 1    
@<TRIPOS>SUBSTRUCTURE
     1 UNK         1 GROUP             0       ****    0 ROOT    
