@<TRIPOS>MOLECULE
3R540
247   249    1
SMALL
USER_CHARGES


@<TRIPOS>ATOM
      1 CA          5.3156  -15.8405  -44.9259 C.3       0 UNK        -0.1800 
      2 C           4.4996  -15.7120  -46.2040 C.2       0 UNK         0.5000 
      3 O           3.3035  -15.9933  -46.1980 O.2       0 UNK        -0.5000 
      4 N           5.1425  -15.2913  -47.3005 N.am      1 UNK        -0.5000 
      5 CA          4.5186  -15.1239  -48.6200 C.3       1 UNK         0.1400 
      6 C6          5.5761  -15.0592  -49.7512 C.3       23 UNK        -0.0398 
      7 S7          6.4518  -16.6436  -49.9877 S.3       23 UNK        -0.2404 
      8 C8          5.6314  -17.3011  -51.4786 C.3       23 UNK        -0.0205 
      9 C9          4.2333  -17.8172  -51.1713 C.ar      23 UNK        -0.0193 
     10 C10         3.1312  -16.9618  -51.2415 C.ar      23 UNK        -0.1150 
     11 C11         1.8519  -17.4109  -50.9022 C.ar      23 UNK        -0.0193 
     12 C12         1.6770  -18.7467  -50.5173 C.ar      23 UNK        -0.1150 
     13 C13         2.7649  -19.6267  -50.4933 C.ar      23 UNK        -0.0193 
     14 C14         4.0405  -19.1524  -50.8116 C.ar      23 UNK        -0.1150 
     15 C15         2.5712  -21.0990  -50.1608 C.3       23 UNK        -0.0205 
     16 S16         3.2888  -21.5441  -48.5476 S.3       23 UNK        -0.2404 
     17 C17         1.9911  -20.9745  -47.4020 C.3       23 UNK        -0.0398 
     18 CA          1.1257  -22.1417  -46.8657 C.3       11 UNK         0.1400 
     19 N           0.4515  -21.7967  -45.6135 N.am      11 UNK        -0.5000 
     20 C          -0.2424  -22.6527  -44.8501 C.2       10 UNK         0.5000 
     21 O          -0.3324  -23.8580  -45.0805 O.2       10 UNK        -0.5000 
     22 CA         -1.0168  -22.0503  -43.6640 C.3       10 UNK         0.1400 
     23 CB         -0.0987  -21.8530  -42.4491 C.3       10 UNK        -0.1800 
     24 N          -1.6680  -20.7860  -44.0143 N.am      10 UNK        -0.5000 
     25 C          -2.6455  -20.6761  -44.9262 C.2       9 UNK         0.5000 
     26 O          -3.1468  -21.6423  -45.5005 O.2       9 UNK        -0.5000 
     27 CA         -3.1147  -19.2561  -45.2906 C.3       9 UNK         0.1400 
     28 CB         -4.1418  -18.7441  -44.2706 C.3       9 UNK        -0.1800 
     29 N          -2.0098  -18.3028  -45.3976 N.am      9 UNK        -0.5000 
     30 C          -1.0431  -18.3565  -46.3258 C.2       8 UNK         0.5000 
     31 O          -1.0055  -19.1936  -47.2272 O.2       8 UNK        -0.5000 
     32 CA          0.1027  -17.3359  -46.1931 C.3       8 UNK         0.1400 
     33 CB         -0.3086  -15.9623  -46.7431 C.3       8 UNK        -0.1800 
     34 N           0.5590  -17.1940  -44.8109 N.am      8 UNK        -0.5000 
     35 C           1.1136  -18.1789  -44.0915 C.2       7 UNK         0.5000 
     36 O           1.3357  -19.3063  -44.5301 O.2       7 UNK        -0.5000 
     37 CA          1.4105  -17.8750  -42.6147 C.3       7 UNK         0.1400 
     38 CB          2.7551  -17.1496  -42.4606 C.3       7 UNK        -0.1800 
     39 N           0.3388  -17.0893  -42.0020 N.am      7 UNK        -0.5000 
     40 C          -0.8797  -17.5742  -41.7213 C.2       6 UNK         0.5000 
     41 O          -1.2091  -18.7438  -41.9153 O.2       6 UNK        -0.5000 
     42 CA         -1.9159  -16.5791  -41.1668 C.3       6 UNK         0.1400 
     43 CB         -1.7548  -16.4200  -39.6478 C.3       6 UNK        -0.1800 
     44 N          -1.8340  -15.2644  -41.8037 N.am      6 UNK        -0.5000 
     45 C          -2.1225  -15.0276  -43.0911 C.2       5 UNK         0.5000 
     46 O          -2.5329  -15.8884  -43.8684 O.2       5 UNK        -0.5000 
     47 CA         -1.8588  -13.6012  -43.6101 C.3       5 UNK         0.1400 
     48 CB         -3.0905  -12.7108  -43.3918 C.3       5 UNK        -0.1800 
     49 N          -0.6843  -12.9589  -43.0114 N.am      5 UNK        -0.5000 
     50 C           0.5645  -13.4403  -43.0578 C.2       4 UNK         0.5000 
     51 O           0.8614  -14.5067  -43.5979 O.2       4 UNK        -0.5000 
     52 CA          1.6559  -12.5673  -42.4145 C.3       4 UNK         0.1400 
     53 CB          2.8989  -13.3810  -42.0172 C.3       4 UNK        -0.1800 
     54 N           2.0598  -11.5218  -43.3465 N.am      4 UNK        -0.5000 
     55 C           1.3976  -10.3857  -43.5836 C.2       3 UNK         0.5000 
     56 O           0.3884  -10.0458  -42.9642 O.2       3 UNK        -0.5000 
     57 CA          1.9304   -9.4923  -44.7206 C.3       3 UNK         0.1400 
     58 CB          3.1842   -8.7111  -44.2821 C.3       3 UNK        -0.1800 
     59 N           2.1473  -10.2002  -45.9921 N.am      3 UNK        -0.5000 
     60 C           3.0493  -11.1456  -46.2919 C.2       2 UNK         0.5000 
     61 O           3.8840  -11.5903  -45.4978 O.2       2 UNK        -0.5000 
     62 CA          3.0057  -11.6799  -47.7297 C.3       2 UNK         0.1400 
     63 CB          3.5850  -10.6557  -48.7231 C.3       2 UNK        -0.1800 
     64 N           3.7695  -12.9198  -47.8021 N.am      2 UNK        -0.5000 
     65 C           3.5856  -13.8949  -48.6987 C.2       1 UNK         0.5000 
     66 O           2.7291  -13.8477  -49.5827 O.2       1 UNK        -0.5000 
     67 C           0.1273  -22.6536  -47.9246 C.2       11 UNK         0.5000 
     68 O           0.3714  -23.6978  -48.5270 O.2       11 UNK        -0.5000 
     69 N          -0.9965  -21.9423  -48.0980 N.am      12 UNK        -0.5000 
     70 CA         -2.0948  -22.3180  -48.9909 C.3       12 UNK         0.1400 
     71 CB         -3.1665  -21.2200  -48.9762 C.3       12 UNK        -0.1800 
     72 C          -2.7170  -23.6790  -48.6332 C.2       12 UNK         0.5000 
     73 O          -2.9498  -24.4929  -49.5272 O.2       12 UNK        -0.5000 
     74 N          -2.9379  -23.9147  -47.3325 N.am      13 UNK        -0.5000 
     75 CA         -3.4335  -25.1785  -46.7902 C.3       13 UNK         0.1400 
     76 CB         -3.7708  -25.0053  -45.3017 C.3       13 UNK        -0.1800 
     77 C          -2.4475  -26.3417  -47.0022 C.2       13 UNK         0.5000 
     78 O          -2.8695  -27.4185  -47.4240 O.2       13 UNK        -0.5000 
     79 N          -1.1544  -26.0978  -46.7437 N.am      14 UNK        -0.5000 
     80 CA         -0.0670  -27.0595  -46.9424 C.3       14 UNK         0.1400 
     81 CB          1.2262  -26.5077  -46.3234 C.3       14 UNK        -0.1800 
     82 C           0.1513  -27.4251  -48.4226 C.2       14 UNK         0.5000 
     83 O           0.3856  -28.5936  -48.7330 O.2       14 UNK        -0.5000 
     84 N           0.0433  -26.4268  -49.3090 N.am      15 UNK        -0.5000 
     85 CA          0.1230  -26.5811  -50.7626 C.3       15 UNK         0.1400 
     86 CB          0.3667  -25.1997  -51.3922 C.3       15 UNK        -0.1800 
     87 C          -1.1304  -27.2307  -51.3832 C.2       15 UNK         0.5000 
     88 O          -1.0642  -27.6753  -52.5300 O.2       15 UNK        -0.5000 
     89 N          -2.2425  -27.2504  -50.6323 N.am      16 UNK        -0.5000 
     90 CA         -3.5908  -27.6597  -51.0385 C.3       16 UNK         0.1400 
     91 CB         -3.6452  -29.1706  -51.3460 C.3       16 UNK        -0.1800 
     92 C          -4.1337  -26.7762  -52.1818 C.2       16 UNK         0.5000 
     93 O          -4.6702  -27.2833  -53.1696 O.2       16 UNK        -0.5000 
     94 N          -3.9446  -25.4597  -52.0299 N.am      17 UNK        -0.5000 
     95 CA         -4.3506  -24.4279  -52.9801 C.3       17 UNK         0.1400 
     96 CB         -3.6155  -23.1268  -52.6209 C.3       17 UNK        -0.1800 
     97 C          -5.8771  -24.2105  -53.0049 C.2       17 UNK         0.5000 
     98 O          -6.5916  -24.6485  -52.0983 O.2       17 UNK        -0.5000 
     99 N          -6.3425  -23.5220  -54.0542 N.am      18 UNK        -0.5000 
    100 CA        -7.7384  -23.1341  -54.2634 C.3       18 UNK         0.1400 
    101 CB        -7.8799  -22.6012  -55.6992 C.3       18 UNK        -0.1800 
    102 C         -8.2369  -22.0875  -53.2447 C.2       18 UNK         0.5000 
    103 O         -7.4381  -21.4649  -52.5395 O.2       18 UNK        -0.5000 
    104 N         -9.5615  -21.8914  -53.2081 N.am      19 UNK        -0.5000 
    105 CA       -10.2424  -20.9034  -52.3700 C.3       19 UNK         0.1400 
    106 CB       -11.7596  -21.0101  -52.5907 C.3       19 UNK        -0.1800 
    107 C         -9.7433  -19.4714  -52.6463 C.2       19 UNK         0.5000 
    108 O         -9.8379  -19.0016  -53.7820 O.2       19 UNK        -0.5000 
    109 N         -9.1981  -18.8344  -51.6016 N.am      20 UNK        -0.5000 
    110 CA        -8.5956  -17.4960  -51.5784 C.3       20 UNK         0.1400 
    111 CB        -9.6286  -16.4128  -51.9554 C.3       20 UNK        -0.1800 
    112 C         -7.2801  -17.3570  -52.3785 C.2       20 UNK         0.5000 
    113 O         -6.7993  -16.2339  -52.5449 O.2       20 UNK        -0.5000 
    114 N         -6.6834  -18.4721  -52.8257 N.am      21 UNK        -0.5000 
    115 CA        -5.3571  -18.5047  -53.4419 C.3       21 UNK         0.1400 
    116 CB        -5.2658  -19.6994  -54.4070 C.3       21 UNK        -0.1800 
    117 C         -4.2942  -18.5498  -52.3295 C.2       21 UNK         0.5000 
    118 O         -3.8048  -19.6279  -51.9916 O.2       21 UNK        -0.5000 
    119 N         -4.0127  -17.3691  -51.7626 N.am      22 UNK        -0.5000 
    120 CA        -3.2188  -17.1142  -50.5474 C.3       22 UNK         0.1400 
    121 C         -3.9932  -17.4442  -49.2383 C.2       22 UNK         0.5000 
    122 N         -3.6637  -16.7715  -48.1436 N.am      22 UNK        -0.7600 
    123 O         -4.8942  -18.2777  -49.1941 O.2       22 UNK        -0.5000 
    124 C124       -1.7956  -17.7441  -50.5620 C.3       23 UNK        -0.0398 
    125 S125       -0.7486  -17.0344  -51.8792 S.3       23 UNK        -0.2404 
    126 C126        0.6872  -16.4256  -50.9339 C.3       23 UNK        -0.0205 
    127 H127        5.2670  -16.8632  -44.5523 H         1 UNK         0.0600 
    128 H128        4.9183  -15.1766  -44.1590 H         1 UNK         0.0600 
    129 H129        6.3636  -15.5864  -45.0860 H         1 UNK         0.0600 
    130 H130        6.1317  -15.0929  -47.2531 H         1 UNK         0.3000 
    131 H131        3.8861  -15.9964  -48.7923 H         1 UNK         0.0600 
    132 H132        5.1252  -14.7660  -50.7005 H         1 UNK         0.0800 
    133 H133        6.3167  -14.2881  -49.5326 H         1 UNK         0.0800 
    134 H134        6.2408  -18.1105  -51.8834 H         1 UNK         0.0800 
    135 H135        5.5953  -16.5359  -52.2555 H         1 UNK         0.0800 
    136 H136        3.2740  -15.9313  -51.5333 H         1 UNK         0.1150 
    137 H137        0.6928  -19.1070  -50.2554 H         1 UNK         0.1150 
    138 H138        4.8855  -19.8258  -50.7739 H         1 UNK         0.1150 
    139 H139        1.5154  -21.3714  -50.1905 H         1 UNK         0.0800 
    140 H140        3.0561  -21.6992  -50.9320 H         1 UNK         0.0800 
    141 H141        1.3834  -20.1961  -47.8650 H         1 UNK         0.0800 
    142 H142        2.5098  -20.4899  -46.5745 H         1 UNK         0.0800 
    143 H143        1.7940  -22.9716  -46.6257 H         1 UNK         0.0600 
    144 H144        0.5263  -20.8287  -45.3117 H         1 UNK         0.3000 
    145 H145       -1.7974  -22.7604  -43.3834 H         1 UNK         0.0600 
    146 H146       -0.6586  -21.4902  -41.5872 H         1 UNK         0.0600 
    147 H147        0.3708  -22.7938  -42.1594 H         1 UNK         0.0600 
    148 H148        0.6983  -21.1392  -42.6551 H         1 UNK         0.0600 
    149 H149       -1.3450  -19.9546  -43.5308 H         1 UNK         0.3000 
    150 H150       -3.6030  -19.3097  -46.2659 H         1 UNK         0.0600 
    151 H151       -4.9832  -19.4325  -44.1839 H         1 UNK         0.0600 
    152 H152       -4.5432  -17.7754  -44.5682 H         1 UNK         0.0600 
    153 H153       -3.7027  -18.6331  -43.2787 H         1 UNK         0.0600 
    154 H154       -1.9987  -17.5440  -44.7220 H         1 UNK         0.3000 
    155 H155        0.9451  -17.6997  -46.7855 H         1 UNK         0.0600 
    156 H156       -1.1394  -15.5351  -46.1827 H         1 UNK         0.0600 
    157 H157        0.5228  -15.2578  -46.6994 H         1 UNK         0.0600 
    158 H158       -0.6188  -16.0356  -47.7845 H         1 UNK         0.0600 
    159 H159        0.4766  -16.2743  -44.3883 H         1 UNK         0.3000 
    160 H160        1.4808  -18.8257  -42.0821 H         1 UNK         0.0600 
    161 H161        2.7839  -16.2247  -43.0357 H         1 UNK         0.0600 
    162 H162        3.5729  -17.7766  -42.8172 H         1 UNK         0.0600 
    163 H163        2.9604  -16.9077  -41.4179 H         1 UNK         0.0600 
    164 H164        0.5085  -16.1000  -41.8941 H         1 UNK         0.3000 
    165 H165       -2.9087  -16.9894  -41.3636 H         1 UNK         0.0600 
    166 H166       -2.5328  -15.7783  -39.2339 H         1 UNK         0.0600 
    167 H167       -1.8297  -17.3852  -39.1449 H         1 UNK         0.0600 
    168 H168       -0.7880  -15.9879  -39.3866 H         1 UNK         0.0600 
    169 H169       -1.5029  -14.4984  -41.2360 H         1 UNK         0.3000 
    170 H170       -1.6782  -13.6728  -44.6842 H         1 UNK         0.0600 
    171 H171       -3.9776  -13.1523  -43.8482 H         1 UNK         0.0600 
    172 H172       -3.3023  -12.5690  -42.3313 H         1 UNK         0.0600 
    173 H173       -2.9508  -11.7272  -43.8410 H         1 UNK         0.0600 
    174 H174       -0.8275  -12.0458  -42.5997 H         1 UNK         0.3000 
    175 H175        1.2469  -12.1135  -41.5093 H         1 UNK         0.0600 
    176 H176        3.3877  -13.8187  -42.8878 H         1 UNK         0.0600 
    177 H177        3.6303  -12.7555  -41.5054 H         1 UNK         0.0600 
    178 H178        2.6353  -14.1940  -41.3398 H         1 UNK         0.0600 
    179 H179        2.8525  -11.7276  -43.9494 H         1 UNK         0.3000 
    180 H180        1.1508   -8.7570  -44.9263 H         1 UNK         0.0600 
    181 H181        4.0150   -9.3716  -44.0329 H         1 UNK         0.0600 
    182 H182        2.9746   -8.1075  -43.3982 H         1 UNK         0.0600 
    183 H183        3.5194   -8.0326  -45.0666 H         1 UNK         0.0600 
    184 H184        1.5017   -9.9347  -46.7231 H         1 UNK         0.3000 
    185 H185        1.9624  -11.8843  -47.9800 H         1 UNK         0.0600 
    186 H186        3.0325   -9.7160  -48.6907 H         1 UNK         0.0600 
    187 H187        4.6292  -10.4311  -48.5021 H         1 UNK         0.0600 
    188 H188        3.5322  -11.0240  -49.7477 H         1 UNK         0.0600 
    189 H189        4.4417  -13.0439  -47.0553 H         1 UNK         0.3000 
    190 H190       -1.1022  -21.0648  -47.5954 H         1 UNK         0.3000 
    191 H191       -1.6881  -22.3874  -50.0017 H         1 UNK         0.0600 
    192 H192       -2.7362  -20.2469  -49.2000 H         1 UNK         0.0600 
    193 H193       -3.6626  -21.1430  -48.0099 H         1 UNK         0.0600 
    194 H194       -3.9394  -21.4113  -49.7204 H         1 UNK         0.0600 
    195 H195       -2.7686  -23.1660  -46.6668 H         1 UNK         0.3000 
    196 H196       -4.3566  -25.4260  -47.3185 H         1 UNK         0.0600 
    197 H197       -4.1708  -25.9290  -44.8818 H         1 UNK         0.0600 
    198 H198       -4.5222  -24.2289  -45.1564 H         1 UNK         0.0600 
    199 H199       -2.8924  -24.7318  -44.7170 H         1 UNK         0.0600 
    200 H200       -0.8939  -25.1940  -46.3580 H         1 UNK         0.3000 
    201 H201       -0.3322  -27.9760  -46.4113 H         1 UNK         0.0600 
    202 H202        1.1052  -26.3264  -45.2553 H         1 UNK         0.0600 
    203 H203        1.5266  -25.5687  -46.7893 H         1 UNK         0.0600 
    204 H204        2.0495  -27.2129  -46.4428 H         1 UNK         0.0600 
    205 H205       -0.0744  -25.4769  -48.9630 H         1 UNK         0.3000 
    206 H206        0.9766  -27.2205  -50.9964 H         1 UNK         0.0600 
    207 H207        1.2838  -24.7488  -51.0125 H         1 UNK         0.0600 
    208 H208        0.4649  -25.2725  -52.4759 H         1 UNK         0.0600 
    209 H209       -0.4552  -24.5140  -51.1817 H         1 UNK         0.0600 
    210 H210       -2.1818  -26.8314  -49.7136 H         1 UNK         0.3000 
    211 H211       -4.2357  -27.4759  -50.1778 H         1 UNK         0.0600 
    212 H212       -3.0644  -29.4287  -52.2317 H         1 UNK         0.0600 
    213 H213       -4.6714  -29.4939  -51.5238 H         1 UNK         0.0600 
    214 H214       -3.2609  -29.7553  -50.5102 H         1 UNK         0.0600 
    215 H215       -3.5345  -25.1306  -51.1583 H         1 UNK         0.3000 
    216 H216       -4.0326  -24.7432  -53.9761 H         1 UNK         0.0600 
    217 H217       -3.7790  -22.3576  -53.3756 H         1 UNK         0.0600 
    218 H218       -2.5390  -23.2835  -52.5493 H         1 UNK         0.0600 
    219 H219       -3.9600  -22.7259  -51.6679 H         1 UNK         0.0600 
    220 H220       -5.6831  -23.1769  -54.7354 H         1 UNK         0.3000 
    221 H221       -8.3568  -24.0280  -54.1584 H         1 UNK         0.0600 
    222 H222       -7.2792  -21.7047  -55.8561 H         1 UNK         0.0600 
    223 H223       -7.5662  -23.3471  -56.4298 H         1 UNK         0.0600 
    224 H224       -8.9148  -22.3445  -55.9281 H         1 UNK         0.0600 
    225 H225      -10.1486  -22.4179  -53.8383 H         1 UNK         0.3000 
    226 H226      -10.0345  -21.1580  -51.3286 H         1 UNK         0.0600 
    227 H227      -12.2951  -20.2922  -51.9681 H         1 UNK         0.0600 
    228 H228      -12.0311  -20.8112  -53.6283 H         1 UNK         0.0600 
    229 H229      -12.1282  -22.0027  -52.3311 H         1 UNK         0.0600 
    230 H230       -9.1423  -19.3355  -50.7255 H         1 UNK         0.3000 
    231 H231       -8.3165  -17.3234  -50.5379 H         1 UNK         0.0600 
    232 H232       -9.2356  -15.4136  -51.7640 H         1 UNK         0.0600 
    233 H233      -10.5420  -16.5165  -51.3697 H         1 UNK         0.0600 
    234 H234       -9.8983  -16.4572  -53.0107 H         1 UNK         0.0600 
    235 H235       -7.0981  -19.3739  -52.6164 H         1 UNK         0.3000 
    236 H236       -5.2002  -17.5996  -54.0329 H         1 UNK         0.0600 
    237 H237       -6.0273  -19.6353  -55.1840 H         1 UNK         0.0600 
    238 H238       -4.2943  -19.7239  -54.9016 H         1 UNK         0.0600 
    239 H239       -5.3917  -20.6500  -53.8914 H         1 UNK         0.0600 
    240 H240       -4.5377  -16.5713  -52.0964 H         1 UNK         0.3000 
    241 H241       -3.0887  -16.0310  -50.5374 H         1 UNK         0.0600 
    242 H242       -2.9739  -16.0389  -48.1571 H         1 UNK         0.3800 
    243 H243       -4.1663  -16.9623  -47.2922 H         1 UNK         0.3800 
    244 H244       -1.3083  -17.6012  -49.5974 H         1 UNK         0.0800 
    245 H245       -1.8314  -18.8226  -50.7024 H         1 UNK         0.0800 
    246 H246        0.4068  -16.1640  -49.9144 H         1 UNK         0.0800 
    247 H247        1.0045  -15.4897  -51.3965 H         1 UNK         0.0800 
@<TRIPOS>BOND
     1    1    2 1    
     2    1  127 1    
     3    1  128 1    
     4    1  129 1    
     5    2    3 2    
     6    2    4 am   BACKBONE|DICT|INTERRES
     7    4    5 1    
     8    4  130 1    
     9    5    6 1    
    10    5   65 1    
    11    5  131 1    
    12    6    7 1    
    13    6  132 1    
    14    6  133 1    
    15    7    8 1    
    16    8    9 1    
    17    8  134 1    
    18    8  135 1    
    19    9   10 ar   
    20    9   14 ar   
    21   10   11 ar   
    22   10  136 1    
    23   11   12 ar   
    24   11  126 1    
    25   12   13 ar   
    26   12  137 1    
    27   13   14 ar   
    28   13   15 1    
    29   14  138 1    
    30   15   16 1    
    31   15  139 1    
    32   15  140 1    
    33   16   17 1    
    34   17   18 1    
    35   17  141 1    
    36   17  142 1    
    37   18   19 1    
    38   18   67 1    
    39   18  143 1    
    40   19   20 am   BACKBONE|DICT|INTERRES
    41   19  144 1    
    42   20   21 2    
    43   20   22 1    
    44   22   23 1    
    45   22   24 1    
    46   22  145 1    
    47   23  146 1    
    48   23  147 1    
    49   23  148 1    
    50   24   25 am   BACKBONE|DICT|INTERRES
    51   24  149 1    
    52   25   26 2    
    53   25   27 1    
    54   27   28 1    
    55   27   29 1    
    56   27  150 1    
    57   28  151 1    
    58   28  152 1    
    59   28  153 1    
    60   29   30 am   BACKBONE|DICT|INTERRES
    61   29  154 1    
    62   30   31 2    
    63   30   32 1    
    64   32   33 1    
    65   32   34 1    
    66   32  155 1    
    67   33  156 1    
    68   33  157 1    
    69   33  158 1    
    70   34   35 am   BACKBONE|DICT|INTERRES
    71   34  159 1    
    72   35   36 2    
    73   35   37 1    
    74   37   38 1    
    75   37   39 1    
    76   37  160 1    
    77   38  161 1    
    78   38  162 1    
    79   38  163 1    
    80   39   40 am   BACKBONE|DICT|INTERRES
    81   39  164 1    
    82   40   41 2    
    83   40   42 1    
    84   42   43 1    
    85   42   44 1    
    86   42  165 1    
    87   43  166 1    
    88   43  167 1    
    89   43  168 1    
    90   44   45 am   BACKBONE|DICT|INTERRES
    91   44  169 1    
    92   45   46 2    
    93   45   47 1    
    94   47   48 1    
    95   47   49 1    
    96   47  170 1    
    97   48  171 1    
    98   48  172 1    
    99   48  173 1    
   100   49   50 am   BACKBONE|DICT|INTERRES
   101   49  174 1    
   102   50   51 2    
   103   50   52 1    
   104   52   53 1    
   105   52   54 1    
   106   52  175 1    
   107   53  176 1    
   108   53  177 1    
   109   53  178 1    
   110   54   55 am   BACKBONE|DICT|INTERRES
   111   54  179 1    
   112   55   56 2    
   113   55   57 1    
   114   57   58 1    
   115   57   59 1    
   116   57  180 1    
   117   58  181 1    
   118   58  182 1    
   119   58  183 1    
   120   59   60 am   BACKBONE|DICT|INTERRES
   121   59  184 1    
   122   60   61 2    
   123   60   62 1    
   124   62   63 1    
   125   62   64 1    
   126   62  185 1    
   127   63  186 1    
   128   63  187 1    
   129   63  188 1    
   130   64   65 am   BACKBONE|DICT|INTERRES
   131   64  189 1    
   132   65   66 2    
   133   67   68 2    
   134   67   69 am   BACKBONE|DICT|INTERRES
   135   69   70 1    
   136   69  190 1    
   137   70   71 1    
   138   70   72 1    
   139   70  191 1    
   140   71  192 1    
   141   71  193 1    
   142   71  194 1    
   143   72   73 2    
   144   72   74 am   BACKBONE|DICT|INTERRES
   145   74   75 1    
   146   74  195 1    
   147   75   76 1    
   148   75   77 1    
   149   75  196 1    
   150   76  197 1    
   151   76  198 1    
   152   76  199 1    
   153   77   78 2    
   154   77   79 am   BACKBONE|DICT|INTERRES
   155   79   80 1    
   156   79  200 1    
   157   80   81 1    
   158   80   82 1    
   159   80  201 1    
   160   81  202 1    
   161   81  203 1    
   162   81  204 1    
   163   82   83 2    
   164   82   84 am   BACKBONE|DICT|INTERRES
   165   84   85 1    
   166   84  205 1    
   167   85   86 1    
   168   85   87 1    
   169   85  206 1    
   170   86  207 1    
   171   86  208 1    
   172   86  209 1    
   173   87   88 2    
   174   87   89 am   BACKBONE|DICT|INTERRES
   175   89   90 1    
   176   89  210 1    
   177   90   91 1    
   178   90   92 1    
   179   90  211 1    
   180   91  212 1    
   181   91  213 1    
   182   91  214 1    
   183   92   93 2    
   184   92   94 am   BACKBONE|DICT|INTERRES
   185   94   95 1    
   186   94  215 1    
   187   95   96 1    
   188   95   97 1    
   189   95  216 1    
   190   96  217 1    
   191   96  218 1    
   192   96  219 1    
   193   97   98 2    
   194   97   99 am   BACKBONE|DICT|INTERRES
   195   99  100 1    
   196   99  220 1    
   197  100  101 1    
   198  100  102 1    
   199  100  221 1    
   200  101  222 1    
   201  101  223 1    
   202  101  224 1    
   203  102  103 2    
   204  102  104 am   BACKBONE|DICT|INTERRES
   205  104  105 1    
   206  104  225 1    
   207  105  106 1    
   208  105  107 1    
   209  105  226 1    
   210  106  227 1    
   211  106  228 1    
   212  106  229 1    
   213  107  108 2    
   214  107  109 am   BACKBONE|DICT|INTERRES
   215  109  110 1    
   216  109  230 1    
   217  110  111 1    
   218  110  112 1    
   219  110  231 1    
   220  111  232 1    
   221  111  233 1    
   222  111  234 1    
   223  112  113 2    
   224  112  114 am   BACKBONE|DICT|INTERRES
   225  114  115 1    
   226  114  235 1    
   227  115  116 1    
   228  115  117 1    
   229  115  236 1    
   230  116  237 1    
   231  116  238 1    
   232  116  239 1    
   233  117  118 2    
   234  117  119 am   BACKBONE|DICT|INTERRES
   235  119  120 1    
   236  119  240 1    
   237  120  121 1    
   238  120  124 1    
   239  120  241 1    
   240  121  122 am   BACKBONE|DICT|INTERRES
   241  121  123 2    
   242  122  242 1    
   243  122  243 1    
   244  124  125 1    
   245  124  244 1    
   246  124  245 1    
   247  125  126 1    
   248  126  246 1    
   249  126  247 1    
@<TRIPOS>SUBSTRUCTURE
     1 UNK         1 GROUP             0       ****    0 ROOT    
