@<TRIPOS>MOLECULE
3R540
247   249    1
SMALL
USER_CHARGES


@<TRIPOS>ATOM
      1 CA         -2.7378  -10.1255  -44.3481 C.3       0 UNK        -0.1800 
      2 C          -3.2626  -10.7744  -45.6211 C.2       0 UNK         0.5000 
      3 O          -2.9388  -10.3196  -46.7181 O.2       0 UNK        -0.5000 
      4 N          -4.0768  -11.8283  -45.4779 N.am      1 UNK        -0.5000 
      5 CA         -4.6373  -12.6086  -46.5881 C.3       1 UNK         0.1400 
      6 C6         -5.8593  -13.4358  -46.1180 C.3       23 UNK        -0.0398 
      7 S7         -6.8573  -14.1014  -47.4953 S.3       23 UNK        -0.2404 
      8 C8         -7.0423  -15.8513  -47.0238 C.3       23 UNK        -0.0205 
      9 C9         -5.7283  -16.6211  -47.0535 C.ar      23 UNK        -0.0193 
     10 C10        -5.1594  -16.9994  -48.2739 C.ar      23 UNK        -0.1150 
     11 C11        -3.9813  -17.7519  -48.3038 C.ar      23 UNK        -0.0193 
     12 C12        -3.3733  -18.1286  -47.1040 C.ar      23 UNK        -0.1150 
     13 C13        -3.9310  -17.7547  -45.8793 C.ar      23 UNK        -0.0193 
     14 C14        -5.1050  -16.9971  -45.8591 C.ar      23 UNK        -0.1150 
     15 C15        -3.2674  -18.1840  -44.5830 C.3       23 UNK        -0.0205 
     16 S16        -4.1039  -19.6322  -43.8634 S.3       23 UNK        -0.2404 
     17 C17        -2.7236  -20.4772  -43.0185 C.3       23 UNK        -0.0398 
     18 CA         -2.3993  -21.8465  -43.6668 C.3       11 UNK         0.1400 
     19 N          -0.9631  -22.1569  -43.6225 N.am      11 UNK        -0.5000 
     20 C          -0.3714  -23.1780  -44.2597 C.2       10 UNK         0.5000 
     21 O          -1.0053  -24.0125  -44.9091 O.2       10 UNK        -0.5000 
     22 CA          1.1628  -23.3114  -44.1666 C.3       10 UNK         0.1400 
     23 CB          1.7860  -23.4868  -45.5601 C.3       10 UNK        -0.1800 
     24 N           1.8204  -22.1879  -43.4964 N.am      10 UNK        -0.5000 
     25 C           1.9393  -22.0404  -42.1707 C.2       9 UNK         0.5000 
     26 O           1.4709  -22.8314  -41.3518 O.2       9 UNK        -0.5000 
     27 CA          2.6758  -20.7787  -41.6822 C.3       9 UNK         0.1400 
     28 CB          4.1980  -20.9661  -41.7700 C.3       9 UNK        -0.1800 
     29 N           2.2875  -19.5824  -42.4308 N.am      9 UNK        -0.5000 
     30 C           1.0787  -19.0077  -42.3648 C.2       8 UNK         0.5000 
     31 O           0.1841  -19.3934  -41.6129 O.2       8 UNK        -0.5000 
     32 CA          0.8086  -17.8332  -43.3248 C.3       8 UNK         0.1400 
     33 CB          1.3577  -16.5178  -42.7538 C.3       8 UNK        -0.1800 
     34 N           1.3637  -18.0651  -44.6592 N.am      8 UNK        -0.5000 
     35 C           0.9327  -19.0137  -45.5036 C.2       7 UNK         0.5000 
     36 O          -0.0254  -19.7474  -45.2734 O.2       7 UNK        -0.5000 
     37 CA          1.7276  -19.2041  -46.8065 C.3       7 UNK         0.1400 
     38 CB          1.1863  -18.2989  -47.9252 C.3       7 UNK        -0.1800 
     39 N           3.1608  -18.9719  -46.6191 N.am      7 UNK        -0.5000 
     40 C           3.9683  -19.7875  -45.9248 C.2       6 UNK         0.5000 
     41 O           3.5923  -20.8341  -45.3997 O.2       6 UNK        -0.5000 
     42 CA          5.4267  -19.3302  -45.7404 C.3       6 UNK         0.1400 
     43 CB          6.2551  -19.6318  -46.9980 C.3       6 UNK        -0.1800 
     44 N           5.5267  -17.9061  -45.4213 N.am      6 UNK        -0.5000 
     45 C           5.0524  -17.3432  -44.3004 C.2       5 UNK         0.5000 
     46 O           4.5418  -17.9819  -43.3812 O.2       5 UNK        -0.5000 
     47 CA          5.1081  -15.8047  -44.2177 C.3       5 UNK         0.1400 
     48 CB          6.4134  -15.3488  -43.5497 C.3       5 UNK        -0.1800 
     49 N           4.9743  -15.1472  -45.5219 N.am      5 UNK        -0.5000 
     50 C           3.9078  -15.2553  -46.3248 C.2       4 UNK         0.5000 
     51 O           2.8992  -15.9087  -46.0403 O.2       4 UNK        -0.5000 
     52 CA          4.0183  -14.5771  -47.6960 C.3       4 UNK         0.1400 
     53 CB          5.0275  -15.3235  -48.5913 C.3       4 UNK        -0.1800 
     54 N           2.7040  -14.5799  -48.3258 N.am      4 UNK        -0.5000 
     55 C           2.3192  -13.8089  -49.3480 C.2       3 UNK         0.5000 
     56 O           3.0466  -12.9695  -49.8806 O.2       3 UNK        -0.5000 
     57 CA          0.8872  -14.0127  -49.8806 C.3       3 UNK         0.1400 
     58 CB          0.9127  -14.8808  -51.1486 C.3       3 UNK        -0.1800 
     59 N          -0.0292  -14.6191  -48.9110 N.am      3 UNK        -0.5000 
     60 C          -0.5156  -13.9934  -47.8322 C.2       2 UNK         0.5000 
     61 O          -0.2082  -12.8444  -47.5070 O.2       2 UNK        -0.5000 
     62 CA         -1.4850  -14.8042  -46.9526 C.3       2 UNK         0.1400 
     63 CB         -0.7468  -15.3809  -45.7370 C.3       2 UNK        -0.1800 
     64 N          -2.6073  -13.9950  -46.4838 N.am      2 UNK        -0.5000 
     65 C          -3.5634  -13.4847  -47.2737 C.2       1 UNK         0.5000 
     66 O          -3.6091  -13.6597  -48.4914 O.2       1 UNK        -0.5000 
     67 C          -3.2911  -22.9733  -43.0944 C.2       11 UNK         0.5000 
     68 O          -4.4434  -23.1041  -43.5066 O.2       11 UNK        -0.5000 
     69 N          -2.7265  -23.8206  -42.2203 N.am      12 UNK        -0.5000 
     70 CA         -3.3432  -25.0541  -41.7200 C.3       12 UNK         0.1400 
     71 CB         -2.4370  -25.6562  -40.6357 C.3       12 UNK        -0.1800 
     72 C          -3.6305  -26.0981  -42.8231 C.2       12 UNK         0.5000 
     73 O          -4.5337  -26.9181  -42.6574 O.2       12 UNK        -0.5000 
     74 N          -2.8811  -26.0293  -43.9316 N.am      13 UNK        -0.5000 
     75 CA         -3.0702  -26.8139  -45.1521 C.3       13 UNK         0.1400 
     76 CB         -1.7378  -27.5034  -45.4963 C.3       13 UNK        -0.1800 
     77 C          -3.5581  -25.9182  -46.3114 C.2       13 UNK         0.5000 
     78 O          -3.3800  -26.2789  -47.4767 O.2       13 UNK        -0.5000 
     79 N          -4.1177  -24.7411  -45.9815 N.am      14 UNK        -0.5000 
     80 CA         -4.5991  -23.6875  -46.8851 C.3       14 UNK         0.1400 
     81 CB         -5.8666  -24.1594  -47.6270 C.3       14 UNK        -0.1800 
     82 C          -3.5167  -23.1578  -47.8504 C.2       14 UNK         0.5000 
     83 O          -3.8445  -22.7218  -48.9551 O.2       14 UNK        -0.5000 
     84 N          -2.2405  -23.2626  -47.4437 N.am      15 UNK        -0.5000 
     85 CA         -1.0339  -22.9750  -48.2264 C.3       15 UNK         0.1400 
     86 CB         -0.8986  -21.4577  -48.4546 C.3       15 UNK        -0.1800 
     87 C          -0.9430  -23.7904  -49.5364 C.2       15 UNK         0.5000 
     88 O          -0.3640  -23.3158  -50.5147 O.2       15 UNK        -0.5000 
     89 N          -1.5638  -24.9832  -49.5508 N.am      16 UNK        -0.5000 
     90 CA         -1.7700  -25.8580  -50.7125 C.3       16 UNK         0.1400 
     91 CB         -0.4330  -26.4737  -51.1740 C.3       16 UNK        -0.1800 
     92 C          -2.5420  -25.1610  -51.8578 C.2       16 UNK         0.5000 
     93 O          -2.2862  -25.4332  -53.0315 O.2       16 UNK        -0.5000 
     94 N          -3.4426  -24.2382  -51.4833 N.am      17 UNK        -0.5000 
     95 CA         -4.2222  -23.3224  -52.3235 C.3       17 UNK         0.1400 
     96 CB         -5.0883  -24.0820  -53.3490 C.3       17 UNK        -0.1800 
     97 C          -3.3922  -22.1988  -52.9804 C.2       17 UNK         0.5000 
     98 O          -3.9633  -21.4070  -53.7303 O.2       17 UNK        -0.5000 
     99 N          -2.0825  -22.1266  -52.6861 N.am      18 UNK        -0.5000 
    100 CA        -1.1196  -21.0867  -53.0740 C.3       18 UNK         0.1400 
    101 CB        -1.3221  -19.8475  -52.1850 C.3       18 UNK        -0.1800 
    102 C         -1.1080  -20.7346  -54.5777 C.2       18 UNK         0.5000 
    103 O         -0.9109  -19.5713  -54.9349 O.2       18 UNK        -0.5000 
    104 N         -1.3721  -21.7375  -55.4278 N.am      19 UNK        -0.5000 
    105 CA        -1.5346  -21.7009  -56.8888 C.3       19 UNK         0.1400 
    106 CB        -0.2338  -21.2547  -57.5831 C.3       19 UNK        -0.1800 
    107 C         -2.7406  -20.8800  -57.3994 C.2       19 UNK         0.5000 
    108 O         -3.3994  -21.3131  -58.3459 O.2       19 UNK        -0.5000 
    109 N         -3.0097  -19.7245  -56.7834 N.am      20 UNK        -0.5000 
    110 CA        -4.0520  -18.7722  -57.1600 C.3       20 UNK         0.1400 
    111 CB        -3.4738  -17.7493  -58.1568 C.3       20 UNK        -0.1800 
    112 C         -4.6860  -18.1125  -55.9205 C.2       20 UNK         0.5000 
    113 O         -5.0283  -16.9287  -55.9642 O.2       20 UNK        -0.5000 
    114 N         -4.8269  -18.8809  -54.8283 N.am      21 UNK        -0.5000 
    115 CA        -5.5157  -18.5254  -53.5787 C.3       21 UNK         0.1400 
    116 CB        -7.0383  -18.4509  -53.8154 C.3       21 UNK        -0.1800 
    117 C         -4.9572  -17.2650  -52.8853 C.2       21 UNK         0.5000 
    118 O         -5.7135  -16.5219  -52.2581 O.2       21 UNK        -0.5000 
    119 N         -3.6405  -17.0527  -53.0169 N.am      22 UNK        -0.5000 
    120 CA        -2.8956  -15.8778  -52.5305 C.3       22 UNK         0.1400 
    121 C         -3.2560  -14.5423  -53.2558 C.2       22 UNK         0.5000 
    122 N         -3.9525  -14.5611  -54.3878 N.am      22 UNK        -0.7600 
    123 O         -2.8610  -13.4669  -52.8142 O.2       22 UNK        -0.5000 
    124 C124       -2.8959  -15.7467  -50.9774 C.3       23 UNK        -0.0398 
    125 S125       -2.0141  -17.1205  -50.1583 S.3       23 UNK        -0.2404 
    126 C126       -3.3792  -18.1989  -49.6242 C.3       23 UNK        -0.0205 
    127 H127       -1.6488  -10.1689  -44.3273 H         1 UNK         0.0600 
    128 H128       -3.1148  -10.6219  -43.4535 H         1 UNK         0.0600 
    129 H129       -3.0392   -9.0787  -44.3083 H         1 UNK         0.0600 
    130 H130       -4.3198  -12.1403  -44.5483 H         1 UNK         0.3000 
    131 H131       -4.9920  -11.8955  -47.3360 H         1 UNK         0.0600 
    132 H132       -5.5471  -14.2359  -45.4465 H         1 UNK         0.0800 
    133 H133       -6.5249  -12.8019  -45.5305 H         1 UNK         0.0800 
    134 H134       -7.7450  -16.3242  -47.7113 H         1 UNK         0.0800 
    135 H135       -7.5026  -15.9097  -46.0362 H         1 UNK         0.0800 
    136 H136       -5.6414  -16.7158  -49.1994 H         1 UNK         0.1150 
    137 H137       -2.4686  -18.7207  -47.1248 H         1 UNK         0.1150 
    138 H138       -5.5432  -16.7211  -44.9103 H         1 UNK         0.1150 
    139 H139       -2.2200  -18.4115  -44.7782 H         1 UNK         0.0800 
    140 H140       -3.2770  -17.3638  -43.8640 H         1 UNK         0.0800 
    141 H141       -2.9494  -20.5724  -41.9548 H         1 UNK         0.0800 
    142 H142       -1.8534  -19.8265  -43.0700 H         1 UNK         0.0800 
    143 H143       -2.6364  -21.7788  -44.7311 H         1 UNK         0.0600 
    144 H144       -0.3728  -21.4953  -43.1388 H         1 UNK         0.3000 
    145 H145        1.3632  -24.2220  -43.5987 H         1 UNK         0.0600 
    146 H146        2.8650  -23.6269  -45.4928 H         1 UNK         0.0600 
    147 H147        1.3807  -24.3620  -46.0692 H         1 UNK         0.0600 
    148 H148        1.6028  -22.6167  -46.1910 H         1 UNK         0.0600 
    149 H149        2.2745  -21.5120  -44.1041 H         1 UNK         0.3000 
    150 H150        2.4139  -20.6238  -40.6334 H         1 UNK         0.0600 
    151 H151        4.5175  -21.8430  -41.2057 H         1 UNK         0.0600 
    152 H152        4.7243  -20.1044  -41.3589 H         1 UNK         0.0600 
    153 H153        4.5304  -21.0982  -42.8001 H         1 UNK         0.0600 
    154 H154        2.9984  -19.1611  -43.0209 H         1 UNK         0.3000 
    155 H155       -0.2727  -17.7274  -43.4283 H         1 UNK         0.0600 
    156 H156        0.8529  -16.2611  -41.8218 H         1 UNK         0.0600 
    157 H157        1.2079  -15.6889  -43.4454 H         1 UNK         0.0600 
    158 H158        2.4230  -16.5842  -42.5372 H         1 UNK         0.0600 
    159 H159        2.1217  -17.4610  -44.9568 H         1 UNK         0.3000 
    160 H160        1.5927  -20.2409  -47.1210 H         1 UNK         0.0600 
    161 H161        1.3297  -17.2434  -47.7012 H         1 UNK         0.0600 
    162 H162        0.1175  -18.4593  -48.0742 H         1 UNK         0.0600 
    163 H163        1.6795  -18.5087  -48.8743 H         1 UNK         0.0600 
    164 H164        3.5285  -18.0981  -46.9643 H         1 UNK         0.3000 
    165 H165        5.8505  -19.8950  -44.9072 H         1 UNK         0.0600 
    166 H166        7.3057  -19.3834  -46.8465 H         1 UNK         0.0600 
    167 H167        6.2064  -20.6917  -47.2517 H         1 UNK         0.0600 
    168 H168        5.8986  -19.0703  -47.8625 H         1 UNK         0.0600 
    169 H169        5.9406  -17.3083  -46.1205 H         1 UNK         0.3000 
    170 H170        4.2739  -15.4769  -43.5948 H         1 UNK         0.0600 
    171 H171        6.5282  -15.8054  -42.5656 H         1 UNK         0.0600 
    172 H172        7.2870  -15.6225  -44.1427 H         1 UNK         0.0600 
    173 H173        6.4278  -14.2679  -43.4080 H         1 UNK         0.0600 
    174 H174        5.7637  -14.5966  -45.8282 H         1 UNK         0.3000 
    175 H175        4.3435  -13.5460  -47.5440 H         1 UNK         0.0600 
    176 H176        4.7250  -16.3578  -48.7604 H         1 UNK         0.0600 
    177 H177        5.1263  -14.8439  -49.5651 H         1 UNK         0.0600 
    178 H178        6.0218  -15.3395  -48.1439 H         1 UNK         0.0600 
    179 H179        2.0368  -15.2016  -47.8889 H         1 UNK         0.3000 
    180 H180        0.4974  -13.0288  -50.1502 H         1 UNK         0.0600 
    181 H181        1.2181  -15.9051  -50.9306 H         1 UNK         0.0600 
    182 H182        1.6093  -14.4798  -51.8862 H         1 UNK         0.0600 
    183 H183       -0.0675  -14.9141  -51.6217 H         1 UNK         0.0600 
    184 H184       -0.3489  -15.5548  -49.1222 H         1 UNK         0.3000 
    185 H185       -1.8907  -15.6314  -47.5373 H         1 UNK         0.0600 
    186 H186        0.0876  -16.0057  -46.0513 H         1 UNK         0.0600 
    187 H187       -0.3415  -14.5924  -45.1018 H         1 UNK         0.0600 
    188 H188       -1.4047  -15.9989  -45.1279 H         1 UNK         0.0600 
    189 H189       -2.6110  -13.7517  -45.5054 H         1 UNK         0.3000 
    190 H190       -1.7728  -23.6463  -41.9372 H         1 UNK         0.3000 
    191 H191       -4.2987  -24.7891  -41.2628 H         1 UNK         0.0600 
    192 H192       -2.2911  -24.9587  -39.8106 H         1 UNK         0.0600 
    193 H193       -2.8758  -26.5636  -40.2186 H         1 UNK         0.0600 
    194 H194       -1.4552  -25.9184  -41.0324 H         1 UNK         0.0600 
    195 H195       -2.1719  -25.3057  -43.9987 H         1 UNK         0.3000 
    196 H196       -3.8283  -27.5846  -45.0021 H         1 UNK         0.0600 
    197 H197       -1.8420  -28.1534  -46.3659 H         1 UNK         0.0600 
    198 H198       -1.3915  -28.1241  -44.6699 H         1 UNK         0.0600 
    199 H199       -0.9558  -26.7761  -45.7194 H         1 UNK         0.0600 
    200 H200       -4.2126  -24.5225  -44.9962 H         1 UNK         0.3000 
    201 H201       -4.8785  -22.8428  -46.2540 H         1 UNK         0.0600 
    202 H202       -6.6209  -24.5197  -46.9276 H         1 UNK         0.0600 
    203 H203       -5.6480  -24.9644  -48.3294 H         1 UNK         0.0600 
    204 H204       -6.3168  -23.3437  -48.1941 H         1 UNK         0.0600 
    205 H205       -2.0613  -23.6504  -46.5223 H         1 UNK         0.3000 
    206 H206       -0.1909  -23.2974  -47.6183 H         1 UNK         0.0600 
    207 H207       -0.9492  -20.9135  -47.5124 H         1 UNK         0.0600 
    208 H208        0.0522  -21.2093  -48.9270 H         1 UNK         0.0600 
    209 H209       -1.6936  -21.0832  -49.0968 H         1 UNK         0.0600 
    210 H210       -2.0425  -25.2821  -48.7067 H         1 UNK         0.3000 
    211 H211       -2.4089  -26.6729  -50.3692 H         1 UNK         0.0600 
    212 H212        0.0824  -26.9608  -50.3463 H         1 UNK         0.0600 
    213 H213        0.2376  -25.7222  -51.5914 H         1 UNK         0.0600 
    214 H214       -0.5953  -27.2297  -51.9431 H         1 UNK         0.0600 
    215 H215       -3.5276  -24.0448  -50.4905 H         1 UNK         0.3000 
    216 H216       -4.9038  -22.8162  -51.6386 H         1 UNK         0.0600 
    217 H217       -5.7962  -23.4089  -53.8340 H         1 UNK         0.0600 
    218 H218       -5.6689  -24.8701  -52.8696 H         1 UNK         0.0600 
    219 H219       -4.4865  -24.5364  -54.1360 H         1 UNK         0.0600 
    220 H220       -1.7061  -22.8228  -52.0526 H         1 UNK         0.3000 
    221 H221       -0.1297  -21.4896  -52.8559 H         1 UNK         0.0600 
    222 H222       -2.3197  -19.4277  -52.3080 H         1 UNK         0.0600 
    223 H223       -1.1929  -20.0980  -51.1339 H         1 UNK         0.0600 
    224 H224       -0.5994  -19.0628  -52.4121 H         1 UNK         0.0600 
    225 H225       -1.5634  -22.6364  -55.0073 H         1 UNK         0.3000 
    226 H226       -1.7210  -22.7347  -57.1839 H         1 UNK         0.0600 
    227 H227        0.6083  -21.8772  -57.2808 H         1 UNK         0.0600 
    228 H228       -0.3252  -21.3357  -58.6670 H         1 UNK         0.0600 
    229 H229        0.0161  -20.2179  -57.3562 H         1 UNK         0.0600 
    230 H230       -2.3878  -19.4474  -56.0271 H         1 UNK         0.3000 
    231 H231       -4.8654  -19.3058  -57.6555 H         1 UNK         0.0600 
    232 H232       -2.6725  -17.1627  -57.7059 H         1 UNK         0.0600 
    233 H233       -4.2410  -17.0541  -58.4997 H         1 UNK         0.0600 
    234 H234       -3.0705  -18.2436  -59.0407 H         1 UNK         0.0600 
    235 H235       -4.4733  -19.8335  -54.8505 H         1 UNK         0.3000 
    236 H236       -5.3366  -19.3446  -52.8818 H         1 UNK         0.0600 
    237 H237       -7.4099  -19.3662  -54.2761 H         1 UNK         0.0600 
    238 H238       -7.5770  -18.3219  -52.8760 H         1 UNK         0.0600 
    239 H239       -7.3052  -17.6159  -54.4640 H         1 UNK         0.0600 
    240 H240       -3.1076  -17.7112  -53.5654 H         1 UNK         0.3000 
    241 H241       -1.8641  -16.0613  -52.8322 H         1 UNK         0.0600 
    242 H242       -4.1619  -13.6907  -54.8496 H         1 UNK         0.3800 
    243 H243       -4.2893  -15.4304  -54.7876 H         1 UNK         0.3800 
    244 H244       -2.3869  -14.8319  -50.6718 H         1 UNK         0.0800 
    245 H245       -3.9081  -15.6566  -50.5841 H         1 UNK         0.0800 
    246 H246       -4.1466  -18.2525  -50.3940 H         1 UNK         0.0800 
    247 H247       -2.9994  -19.2146  -49.5176 H         1 UNK         0.0800 
@<TRIPOS>BOND
     1    1    2 1    
     2    1  127 1    
     3    1  128 1    
     4    1  129 1    
     5    2    3 2    
     6    2    4 am   BACKBONE|DICT|INTERRES
     7    4    5 1    
     8    4  130 1    
     9    5    6 1    
    10    5   65 1    
    11    5  131 1    
    12    6    7 1    
    13    6  132 1    
    14    6  133 1    
    15    7    8 1    
    16    8    9 1    
    17    8  134 1    
    18    8  135 1    
    19    9   10 ar   
    20    9   14 ar   
    21   10   11 ar   
    22   10  136 1    
    23   11   12 ar   
    24   11  126 1    
    25   12   13 ar   
    26   12  137 1    
    27   13   14 ar   
    28   13   15 1    
    29   14  138 1    
    30   15   16 1    
    31   15  139 1    
    32   15  140 1    
    33   16   17 1    
    34   17   18 1    
    35   17  141 1    
    36   17  142 1    
    37   18   19 1    
    38   18   67 1    
    39   18  143 1    
    40   19   20 am   BACKBONE|DICT|INTERRES
    41   19  144 1    
    42   20   21 2    
    43   20   22 1    
    44   22   23 1    
    45   22   24 1    
    46   22  145 1    
    47   23  146 1    
    48   23  147 1    
    49   23  148 1    
    50   24   25 am   BACKBONE|DICT|INTERRES
    51   24  149 1    
    52   25   26 2    
    53   25   27 1    
    54   27   28 1    
    55   27   29 1    
    56   27  150 1    
    57   28  151 1    
    58   28  152 1    
    59   28  153 1    
    60   29   30 am   BACKBONE|DICT|INTERRES
    61   29  154 1    
    62   30   31 2    
    63   30   32 1    
    64   32   33 1    
    65   32   34 1    
    66   32  155 1    
    67   33  156 1    
    68   33  157 1    
    69   33  158 1    
    70   34   35 am   BACKBONE|DICT|INTERRES
    71   34  159 1    
    72   35   36 2    
    73   35   37 1    
    74   37   38 1    
    75   37   39 1    
    76   37  160 1    
    77   38  161 1    
    78   38  162 1    
    79   38  163 1    
    80   39   40 am   BACKBONE|DICT|INTERRES
    81   39  164 1    
    82   40   41 2    
    83   40   42 1    
    84   42   43 1    
    85   42   44 1    
    86   42  165 1    
    87   43  166 1    
    88   43  167 1    
    89   43  168 1    
    90   44   45 am   BACKBONE|DICT|INTERRES
    91   44  169 1    
    92   45   46 2    
    93   45   47 1    
    94   47   48 1    
    95   47   49 1    
    96   47  170 1    
    97   48  171 1    
    98   48  172 1    
    99   48  173 1    
   100   49   50 am   BACKBONE|DICT|INTERRES
   101   49  174 1    
   102   50   51 2    
   103   50   52 1    
   104   52   53 1    
   105   52   54 1    
   106   52  175 1    
   107   53  176 1    
   108   53  177 1    
   109   53  178 1    
   110   54   55 am   BACKBONE|DICT|INTERRES
   111   54  179 1    
   112   55   56 2    
   113   55   57 1    
   114   57   58 1    
   115   57   59 1    
   116   57  180 1    
   117   58  181 1    
   118   58  182 1    
   119   58  183 1    
   120   59   60 am   BACKBONE|DICT|INTERRES
   121   59  184 1    
   122   60   61 2    
   123   60   62 1    
   124   62   63 1    
   125   62   64 1    
   126   62  185 1    
   127   63  186 1    
   128   63  187 1    
   129   63  188 1    
   130   64   65 am   BACKBONE|DICT|INTERRES
   131   64  189 1    
   132   65   66 2    
   133   67   68 2    
   134   67   69 am   BACKBONE|DICT|INTERRES
   135   69   70 1    
   136   69  190 1    
   137   70   71 1    
   138   70   72 1    
   139   70  191 1    
   140   71  192 1    
   141   71  193 1    
   142   71  194 1    
   143   72   73 2    
   144   72   74 am   BACKBONE|DICT|INTERRES
   145   74   75 1    
   146   74  195 1    
   147   75   76 1    
   148   75   77 1    
   149   75  196 1    
   150   76  197 1    
   151   76  198 1    
   152   76  199 1    
   153   77   78 2    
   154   77   79 am   BACKBONE|DICT|INTERRES
   155   79   80 1    
   156   79  200 1    
   157   80   81 1    
   158   80   82 1    
   159   80  201 1    
   160   81  202 1    
   161   81  203 1    
   162   81  204 1    
   163   82   83 2    
   164   82   84 am   BACKBONE|DICT|INTERRES
   165   84   85 1    
   166   84  205 1    
   167   85   86 1    
   168   85   87 1    
   169   85  206 1    
   170   86  207 1    
   171   86  208 1    
   172   86  209 1    
   173   87   88 2    
   174   87   89 am   BACKBONE|DICT|INTERRES
   175   89   90 1    
   176   89  210 1    
   177   90   91 1    
   178   90   92 1    
   179   90  211 1    
   180   91  212 1    
   181   91  213 1    
   182   91  214 1    
   183   92   93 2    
   184   92   94 am   BACKBONE|DICT|INTERRES
   185   94   95 1    
   186   94  215 1    
   187   95   96 1    
   188   95   97 1    
   189   95  216 1    
   190   96  217 1    
   191   96  218 1    
   192   96  219 1    
   193   97   98 2    
   194   97   99 am   BACKBONE|DICT|INTERRES
   195   99  100 1    
   196   99  220 1    
   197  100  101 1    
   198  100  102 1    
   199  100  221 1    
   200  101  222 1    
   201  101  223 1    
   202  101  224 1    
   203  102  103 2    
   204  102  104 am   BACKBONE|DICT|INTERRES
   205  104  105 1    
   206  104  225 1    
   207  105  106 1    
   208  105  107 1    
   209  105  226 1    
   210  106  227 1    
   211  106  228 1    
   212  106  229 1    
   213  107  108 2    
   214  107  109 am   BACKBONE|DICT|INTERRES
   215  109  110 1    
   216  109  230 1    
   217  110  111 1    
   218  110  112 1    
   219  110  231 1    
   220  111  232 1    
   221  111  233 1    
   222  111  234 1    
   223  112  113 2    
   224  112  114 am   BACKBONE|DICT|INTERRES
   225  114  115 1    
   226  114  235 1    
   227  115  116 1    
   228  115  117 1    
   229  115  236 1    
   230  116  237 1    
   231  116  238 1    
   232  116  239 1    
   233  117  118 2    
   234  117  119 am   BACKBONE|DICT|INTERRES
   235  119  120 1    
   236  119  240 1    
   237  120  121 1    
   238  120  124 1    
   239  120  241 1    
   240  121  122 am   BACKBONE|DICT|INTERRES
   241  121  123 2    
   242  122  242 1    
   243  122  243 1    
   244  124  125 1    
   245  124  244 1    
   246  124  245 1    
   247  125  126 1    
   248  126  246 1    
   249  126  247 1    
@<TRIPOS>SUBSTRUCTURE
     1 UNK         1 GROUP             0       ****    0 ROOT    
