@<TRIPOS>MOLECULE
3R540
247   249    1
SMALL
USER_CHARGES


@<TRIPOS>ATOM
      1 CA          3.6566  -16.4648  -48.0841 C.3       0 UNK        -0.1800 
      2 C           2.9783  -15.2031  -47.5769 C.2       0 UNK         0.5000 
      3 O           3.6019  -14.4103  -46.8730 O.2       0 UNK        -0.5000 
      4 N           1.7124  -14.9935  -47.9605 N.am      1 UNK        -0.5000 
      5 CA          0.8694  -13.8587  -47.5475 C.3       1 UNK         0.1400 
      6 C6         -0.6283  -14.1175  -47.8368 C.3       23 UNK        -0.0398 
      7 S7         -1.2659  -15.5475  -46.9020 S.3       23 UNK        -0.2404 
      8 C8         -1.9607  -16.5788  -48.2311 C.3       23 UNK        -0.0205 
      9 C9         -0.8969  -17.2457  -49.0930 C.ar      23 UNK        -0.0193 
     10 C10        -0.9026  -17.0643  -50.4789 C.ar      23 UNK        -0.1150 
     11 C11         0.0327  -17.7219  -51.2812 C.ar      23 UNK        -0.0193 
     12 C12         0.9791  -18.5596  -50.6883 C.ar      23 UNK        -0.1150 
     13 C13         0.9923  -18.7681  -49.3077 C.ar      23 UNK        -0.0193 
     14 C14         0.0568  -18.0899  -48.5137 C.ar      23 UNK        -0.1150 
     15 C15         2.0306  -19.7375  -48.7366 C.3       23 UNK        -0.0205 
     16 S16         1.6647  -20.3987  -47.0775 S.3       23 UNK        -0.2404 
     17 C17         0.0901  -21.2672  -47.3794 C.3       23 UNK        -0.0398 
     18 CA          0.0481  -22.6547  -46.7092 C.3       11 UNK         0.1400 
     19 N           0.0622  -22.5420  -45.2473 N.am      11 UNK        -0.5000 
     20 C           0.1670  -23.5624  -44.3861 C.2       10 UNK         0.5000 
     21 O           0.1874  -24.7455  -44.7250 O.2       10 UNK        -0.5000 
     22 CA          0.2387  -23.1931  -42.8969 C.3       10 UNK         0.1400 
     23 CB          1.6319  -22.6544  -42.5347 C.3       10 UNK        -0.1800 
     24 N          -0.7707  -22.1897  -42.5668 N.am      10 UNK        -0.5000 
     25 C          -2.0149  -22.4762  -42.1617 C.2       9 UNK         0.5000 
     26 O          -2.4183  -23.6196  -41.9459 O.2       9 UNK        -0.5000 
     27 CA         -2.9815  -21.2901  -41.9725 C.3       9 UNK         0.1400 
     28 CB         -2.9447  -20.7920  -40.5198 C.3       9 UNK        -0.1800 
     29 N          -2.7178  -20.1614  -42.8659 N.am      9 UNK        -0.5000 
     30 C          -2.8186  -20.1997  -44.2017 C.2       8 UNK         0.5000 
     31 O          -3.1243  -21.2043  -44.8415 O.2       8 UNK        -0.5000 
     32 CA         -2.4733  -18.9040  -44.9558 C.3       8 UNK         0.1400 
     33 CB         -3.7024  -17.9829  -44.9977 C.3       8 UNK        -0.1800 
     34 N          -1.3336  -18.1619  -44.4124 N.am      8 UNK        -0.5000 
     35 C          -0.1274  -18.6560  -44.0936 C.2       7 UNK         0.5000 
     36 O           0.1682  -19.8496  -44.1602 O.2       7 UNK        -0.5000 
     37 CA          0.9192  -17.6484  -43.5842 C.3       7 UNK         0.1400 
     38 CB          1.8269  -17.1976  -44.7371 C.3       7 UNK        -0.1800 
     39 N           0.3420  -16.4631  -42.9446 N.am      7 UNK        -0.5000 
     40 C          -0.3919  -16.4607  -41.8240 C.2       6 UNK         0.5000 
     41 O          -0.7066  -17.4847  -41.2140 O.2       6 UNK        -0.5000 
     42 CA         -0.8162  -15.0735  -41.2979 C.3       6 UNK         0.1400 
     43 CB         -1.7091  -15.1609  -40.0467 C.3       6 UNK        -0.1800 
     44 N           0.3506  -14.2435  -40.9886 N.am      6 UNK        -0.5000 
     45 C           1.0734  -13.5594  -41.8833 C.2       5 UNK         0.5000 
     46 O           0.8248  -13.5405  -43.0919 O.2       5 UNK        -0.5000 
     47 CA          2.2995  -12.8140  -41.3417 C.3       5 UNK         0.1400 
     48 CB          3.5322  -13.7345  -41.3210 C.3       5 UNK        -0.1800 
     49 N           2.5679  -11.6566  -42.1867 N.am      5 UNK        -0.5000 
     50 C           3.1402  -10.5161  -41.7907 C.2       4 UNK         0.5000 
     51 O           3.5442  -10.3240  -40.6418 O.2       4 UNK        -0.5000 
     52 CA          3.3055   -9.4212  -42.8677 C.3       4 UNK         0.1400 
     53 CB          3.8627   -8.1041  -42.2966 C.3       4 UNK        -0.1800 
     54 N           4.1753   -9.8613  -43.9607 N.am      4 UNK        -0.5000 
     55 C           3.8067  -10.6706  -44.9601 C.2       3 UNK         0.5000 
     56 O           2.6702  -11.1384  -45.0694 O.2       3 UNK        -0.5000 
     57 CA          4.9026  -11.0455  -45.9732 C.3       3 UNK         0.1400 
     58 CB          5.7809  -12.1778  -45.4170 C.3       3 UNK        -0.1800 
     59 N           4.3041  -11.4846  -47.2315 N.am      3 UNK        -0.5000 
     60 C           3.8986  -10.6604  -48.2092 C.2       2 UNK         0.5000 
     61 O           4.1227   -9.4489  -48.2159 O.2       2 UNK        -0.5000 
     62 CA          3.0949  -11.2847  -49.3706 C.3       2 UNK         0.1400 
     63 CB          4.0237  -11.6390  -50.5419 C.3       2 UNK        -0.1800 
     64 N           2.3645  -12.4848  -48.9626 N.am      2 UNK        -0.5000 
     65 C           1.3178  -12.4935  -48.1248 C.2       1 UNK         0.5000 
     66 O           0.7211  -11.4696  -47.7883 O.2       1 UNK        -0.5000 
     67 C          -1.1357  -23.4819  -47.2508 C.2       11 UNK         0.5000 
     68 O          -0.9702  -24.1588  -48.2637 O.2       11 UNK        -0.5000 
     69 N          -2.2819  -23.4607  -46.5540 N.am      12 UNK        -0.5000 
     70 CA         -3.4838  -24.2380  -46.8739 C.3       12 UNK         0.1400 
     71 CB         -4.6135  -23.8201  -45.9198 C.3       12 UNK        -0.1800 
     72 C          -3.2978  -25.7708  -46.8417 C.2       12 UNK         0.5000 
     73 O          -4.1365  -26.4850  -47.3924 O.2       12 UNK        -0.5000 
     74 N          -2.2187  -26.2587  -46.2111 N.am      13 UNK        -0.5000 
     75 CA         -1.8214  -27.6686  -46.2322 C.3       13 UNK         0.1400 
     76 CB         -0.8585  -27.9349  -45.0650 C.3       13 UNK        -0.1800 
     77 C          -1.1786  -28.0944  -47.5702 C.2       13 UNK         0.5000 
     78 O          -1.0822  -29.2940  -47.8339 O.2       13 UNK        -0.5000 
     79 N          -0.7466  -27.1205  -48.3803 N.am      14 UNK        -0.5000 
     80 CA         -0.1759  -27.2971  -49.7116 C.3       14 UNK         0.1400 
     81 CB          1.1822  -26.5713  -49.7459 C.3       14 UNK        -0.1800 
     82 C          -1.1403  -26.7294  -50.7701 C.2       14 UNK         0.5000 
     83 O          -2.2419  -26.2814  -50.4420 O.2       14 UNK        -0.5000 
     84 N          -0.7057  -26.7354  -52.0363 N.am      15 UNK        -0.5000 
     85 CA         -1.4048  -26.1241  -53.1692 C.3       15 UNK         0.1400 
     86 CB         -0.9503  -26.8198  -54.4650 C.3       15 UNK        -0.1800 
     87 C          -1.1840  -24.5952  -53.2008 C.2       15 UNK         0.5000 
     88 O          -0.6226  -24.0648  -54.1611 O.2       15 UNK        -0.5000 
     89 N          -1.6070  -23.9198  -52.1297 N.am      16 UNK        -0.5000 
     90 CA         -1.5001  -22.4836  -51.9119 C.3       16 UNK         0.1400 
     91 CB         -0.1139  -22.1636  -51.3257 C.3       16 UNK        -0.1800 
     92 C          -2.6335  -22.0314  -50.9772 C.2       16 UNK         0.5000 
     93 O          -3.3588  -22.8739  -50.4415 O.2       16 UNK        -0.5000 
     94 N          -2.7660  -20.7079  -50.8026 N.am      17 UNK        -0.5000 
     95 CA         -3.7177  -20.0199  -49.9211 C.3       17 UNK         0.1400 
     96 CB         -3.2808  -20.1756  -48.4516 C.3       17 UNK        -0.1800 
     97 C          -5.1804  -20.4429  -50.1647 C.2       17 UNK         0.5000 
     98 O          -5.7948  -19.9646  -51.1170 O.2       17 UNK        -0.5000 
     99 N          -5.6995  -21.3530  -49.3289 N.am      18 UNK        -0.5000 
    100 CA        -7.0424  -21.9322  -49.4162 C.3       18 UNK         0.1400 
    101 CB        -7.2634  -22.8559  -48.2096 C.3       18 UNK        -0.1800 
    102 C         -7.3237  -22.6927  -50.7284 C.2       18 UNK         0.5000 
    103 O         -8.4908  -22.8495  -51.0913 O.2       18 UNK        -0.5000 
    104 N         -6.2677  -23.1321  -51.4281 N.am      19 UNK        -0.5000 
    105 CA        -6.3252  -23.7346  -52.7584 C.3       19 UNK         0.1400 
    106 CB        -4.9855  -24.4321  -53.0459 C.3       19 UNK        -0.1800 
    107 C         -6.6789  -22.6876  -53.8370 C.2       19 UNK         0.5000 
    108 O         -5.7967  -22.2190  -54.5590 O.2       19 UNK        -0.5000 
    109 N         -7.9688  -22.3308  -53.9051 N.am      20 UNK        -0.5000 
    110 CA        -8.6049  -21.4509  -54.8928 C.3       20 UNK         0.1400 
    111 CB        -8.6167  -22.1305  -56.2785 C.3       20 UNK        -0.1800 
    112 C         -8.0154  -20.0239  -54.9295 C.2       20 UNK         0.5000 
    113 O         -7.8225  -19.4677  -56.0121 O.2       20 UNK        -0.5000 
    114 N         -7.7440  -19.4632  -53.7402 N.am      21 UNK        -0.5000 
    115 CA        -7.1189  -18.1538  -53.5072 C.3       21 UNK         0.1400 
    116 CB        -8.0227  -17.0050  -54.0041 C.3       21 UNK        -0.1800 
    117 C         -5.6834  -18.0956  -54.0718 C.2       21 UNK         0.5000 
    118 O         -5.3241  -17.1519  -54.7787 O.2       21 UNK        -0.5000 
    119 N         -4.8990  -19.1290  -53.7418 N.am      22 UNK        -0.5000 
    120 CA        -3.5315  -19.3762  -54.2151 C.3       22 UNK         0.1400 
    121 C         -3.4655  -19.6351  -55.7509 C.2       22 UNK         0.5000 
    122 N         -4.2576  -20.5689  -56.2612 N.am      22 UNK        -0.7600 
    123 O         -2.7140  -19.0001  -56.4865 O.2       22 UNK        -0.5000 
    124 C124       -2.5294  -18.3097  -53.6906 C.3       23 UNK        -0.0398 
    125 S125       -0.8193  -18.9366  -53.6105 S.3       23 UNK        -0.2404 
    126 C126        0.0261  -17.5490  -52.7909 C.3       23 UNK        -0.0205 
    127 H127        4.7062  -16.2698  -48.3035 H         1 UNK         0.0600 
    128 H128        3.1848  -16.8268  -48.9973 H         1 UNK         0.0600 
    129 H129        3.6039  -17.2480  -47.3282 H         1 UNK         0.0600 
    130 H130        1.2504  -15.6861  -48.5337 H         1 UNK         0.3000 
    131 H131        0.9791  -13.7610  -46.4645 H         1 UNK         0.0600 
    132 H132       -1.2348  -13.2571  -47.5487 H         1 UNK         0.0800 
    133 H133       -0.7911  -14.2601  -48.9063 H         1 UNK         0.0800 
    134 H134       -2.5774  -17.3557  -47.7817 H         1 UNK         0.0800 
    135 H135       -2.6357  -15.9723  -48.8369 H         1 UNK         0.0800 
    136 H136       -1.6429  -16.4232  -50.9366 H         1 UNK         0.1150 
    137 H137        1.6968  -19.0728  -51.3135 H         1 UNK         0.1150 
    138 H138        0.0485  -18.2238  -47.4418 H         1 UNK         0.1150 
    139 H139        2.1501  -20.5833  -49.4156 H         1 UNK         0.0800 
    140 H140        2.9984  -19.2385  -48.7028 H         1 UNK         0.0800 
    141 H141       -0.0697  -21.3479  -48.4553 H         1 UNK         0.0800 
    142 H142       -0.7151  -20.6452  -46.9934 H         1 UNK         0.0800 
    143 H143        0.9532  -23.1949  -46.9955 H         1 UNK         0.0600 
    144 H144        0.0790  -21.5943  -44.8785 H         1 UNK         0.3000 
    145 H145        0.0682  -24.1004  -42.3132 H         1 UNK         0.0600 
    146 H146        1.7011  -22.4295  -41.4703 H         1 UNK         0.0600 
    147 H147        2.4046  -23.3894  -42.7631 H         1 UNK         0.0600 
    148 H148        1.8727  -21.7437  -43.0846 H         1 UNK         0.0600 
    149 H149       -0.5388  -21.2279  -42.7866 H         1 UNK         0.3000 
    150 H150       -3.9892  -21.6534  -42.1850 H         1 UNK         0.0600 
    151 H151       -3.6924  -20.0172  -40.3492 H         1 UNK         0.0600 
    152 H152       -1.9686  -20.3786  -40.2620 H         1 UNK         0.0600 
    153 H153       -3.1537  -21.6037  -39.8217 H         1 UNK         0.0600 
    154 H154       -2.4153  -19.3002  -42.4321 H         1 UNK         0.3000 
    155 H155       -2.2129  -19.1754  -45.9775 H         1 UNK         0.0600 
    156 H156       -3.5139  -17.0849  -45.5842 H         1 UNK         0.0600 
    157 H157       -4.0010  -17.6671  -43.9973 H         1 UNK         0.0600 
    158 H158       -4.5556  -18.4907  -45.4496 H         1 UNK         0.0600 
    159 H159       -1.4586  -17.1646  -44.3208 H         1 UNK         0.3000 
    160 H160        1.5337  -18.1619  -42.8421 H         1 UNK         0.0600 
    161 H161        1.2592  -16.6877  -45.5158 H         1 UNK         0.0600 
    162 H162        2.3244  -18.0509  -45.1992 H         1 UNK         0.0600 
    163 H163        2.6048  -16.5175  -44.3896 H         1 UNK         0.0600 
    164 H164        0.5660  -15.5641  -43.3585 H         1 UNK         0.3000 
    165 H165       -1.3991  -14.5920  -42.0862 H         1 UNK         0.0600 
    166 H166       -2.0360  -14.1713  -39.7265 H         1 UNK         0.0600 
    167 H167       -2.6063  -15.7482  -40.2466 H         1 UNK         0.0600 
    168 H168       -1.1886  -15.6291  -39.2103 H         1 UNK         0.0600 
    169 H169        0.6463  -14.2426  -40.0228 H         1 UNK         0.3000 
    170 H170        2.0765  -12.4799  -40.3261 H         1 UNK         0.0600 
    171 H171        3.3534  -14.6175  -40.7062 H         1 UNK         0.0600 
    172 H172        3.7915  -14.0781  -42.3235 H         1 UNK         0.0600 
    173 H173        4.4014  -13.2223  -40.9081 H         1 UNK         0.0600 
    174 H174        2.2595  -11.7447  -43.1522 H         1 UNK         0.3000 
    175 H175        2.3116   -9.2104  -43.2685 H         1 UNK         0.0600 
    176 H176        4.8655   -8.2330  -41.8873 H         1 UNK         0.0600 
    177 H177        3.9108   -7.3313  -43.0640 H         1 UNK         0.0600 
    178 H178        3.2262   -7.7244  -41.4963 H         1 UNK         0.0600 
    179 H179        5.1354   -9.5517  -43.9134 H         1 UNK         0.3000 
    180 H180        5.5326  -10.1719  -46.1541 H         1 UNK         0.0600 
    181 H181        6.5368  -12.4835  -46.1404 H         1 UNK         0.0600 
    182 H182        5.1894  -13.0571  -45.1584 H         1 UNK         0.0600 
    183 H183        6.3044  -11.8607  -44.5144 H         1 UNK         0.0600 
    184 H184        4.0215  -12.4591  -47.2617 H         1 UNK         0.3000 
    185 H185        2.3735  -10.5412  -49.7160 H         1 UNK         0.0600 
    186 H186        3.4591  -12.0261  -51.3905 H         1 UNK         0.0600 
    187 H187        4.5671  -10.7589  -50.8883 H         1 UNK         0.0600 
    188 H188        4.7618  -12.3900  -50.2575 H         1 UNK         0.0600 
    189 H189        2.7850  -13.3723  -49.1950 H         1 UNK         0.3000 
    190 H190       -2.3563  -22.8373  -45.7560 H         1 UNK         0.3000 
    191 H191       -3.7815  -23.9794  -47.8922 H         1 UNK         0.0600 
    192 H192       -5.5132  -24.4149  -46.0823 H         1 UNK         0.0600 
    193 H193       -4.8875  -22.7759  -46.0689 H         1 UNK         0.0600 
    194 H194       -4.3222  -23.9451  -44.8760 H         1 UNK         0.0600 
    195 H195       -1.5706  -25.6140  -45.7739 H         1 UNK         0.3000 
    196 H196       -2.7112  -28.2837  -46.0828 H         1 UNK         0.0600 
    197 H197        0.0801  -27.3934  -45.1871 H         1 UNK         0.0600 
    198 H198       -1.2973  -27.6373  -44.1124 H         1 UNK         0.0600 
    199 H199       -0.6159  -28.9959  -44.9945 H         1 UNK         0.0600 
    200 H200       -0.9451  -26.1555  -48.1342 H         1 UNK         0.3000 
    201 H201       -0.0196  -28.3549  -49.9309 H         1 UNK         0.0600 
    202 H202        1.0645  -25.4925  -49.6333 H         1 UNK         0.0600 
    203 H203        1.7085  -26.7492  -50.6839 H         1 UNK         0.0600 
    204 H204        1.8336  -26.9197  -48.9441 H         1 UNK         0.0600 
    205 H205        0.2160  -27.0987  -52.2311 H         1 UNK         0.3000 
    206 H206       -2.4780  -26.2958  -53.0632 H         1 UNK         0.0600 
    207 H207       -1.1641  -27.8883  -54.4340 H         1 UNK         0.0600 
    208 H208       -1.4721  -26.4111  -55.3314 H         1 UNK         0.0600 
    209 H209        0.1198  -26.6965  -54.6363 H         1 UNK         0.0600 
    210 H210       -2.0803  -24.4237  -51.3828 H         1 UNK         0.3000 
    211 H211       -1.6246  -21.9622  -52.8627 H         1 UNK         0.0600 
    212 H212       -0.0181  -21.1058  -51.0871 H         1 UNK         0.0600 
    213 H213        0.6778  -22.4055  -52.0347 H         1 UNK         0.0600 
    214 H214        0.0739  -22.7297  -50.4131 H         1 UNK         0.0600 
    215 H215       -2.1265  -20.1003  -51.2952 H         1 UNK         0.3000 
    216 H216       -3.6613  -18.9589  -50.1697 H         1 UNK         0.0600 
    217 H217       -3.9757  -19.6758  -47.7757 H         1 UNK         0.0600 
    218 H218       -3.2067  -21.2187  -48.1445 H         1 UNK         0.0600 
    219 H219       -2.3048  -19.7201  -48.3067 H         1 UNK         0.0600 
    220 H220       -5.0976  -21.7267  -48.6107 H         1 UNK         0.3000 
    221 H221       -7.7592  -21.1108  -49.3574 H         1 UNK         0.0600 
    222 H222       -7.1335  -22.3194  -47.2696 H         1 UNK         0.0600 
    223 H223       -6.5698  -23.6975  -48.2202 H         1 UNK         0.0600 
    224 H224       -8.2744  -23.2655  -48.2107 H         1 UNK         0.0600 
    225 H225       -5.3409  -22.9701  -51.0476 H         1 UNK         0.3000 
    226 H226       -7.1044  -24.4996  -52.7603 H         1 UNK         0.0600 
    227 H227       -4.1690  -23.7135  -53.1046 H         1 UNK         0.0600 
    228 H228       -4.7394  -25.1575  -52.2699 H         1 UNK         0.0600 
    229 H229       -5.0194  -24.9658  -53.9963 H         1 UNK         0.0600 
    230 H230       -8.5822  -22.6998  -53.1862 H         1 UNK         0.3000 
    231 H231       -9.6426  -21.3376  -54.5760 H         1 UNK         0.0600 
    232 H232       -7.6102  -22.2390  -56.6840 H         1 UNK         0.0600 
    233 H233       -9.1979  -21.5499  -56.9959 H         1 UNK         0.0600 
    234 H234       -9.0663  -23.1222  -56.2277 H         1 UNK         0.0600 
    235 H235       -7.9043  -20.0181  -52.9110 H         1 UNK         0.3000 
    236 H236       -7.0283  -18.0411  -52.4264 H         1 UNK         0.0600 
    237 H237       -7.6138  -16.0369  -53.7126 H         1 UNK         0.0600 
    238 H238       -8.1222  -17.0008  -55.0897 H         1 UNK         0.0600 
    239 H239       -9.0223  -17.0767  -53.5754 H         1 UNK         0.0600 
    240 H240       -5.2897  -19.8284  -53.1215 H         1 UNK         0.3000 
    241 H241       -3.2568  -20.3270  -53.7583 H         1 UNK         0.0600 
    242 H242       -4.8710  -21.1184  -55.6601 H         1 UNK         0.3800 
    243 H243       -4.2404  -20.7476  -57.2519 H         1 UNK         0.3800 
    244 H244       -2.8114  -18.0017  -52.6831 H         1 UNK         0.0800 
    245 H245       -2.5609  -17.4066  -54.3024 H         1 UNK         0.0800 
    246 H246        1.0541  -17.5023  -53.1533 H         1 UNK         0.0800 
    247 H247       -0.4368  -16.6022  -53.0734 H         1 UNK         0.0800 
@<TRIPOS>BOND
     1    1    2 1    
     2    1  127 1    
     3    1  128 1    
     4    1  129 1    
     5    2    3 2    
     6    2    4 am   BACKBONE|DICT|INTERRES
     7    4    5 1    
     8    4  130 1    
     9    5    6 1    
    10    5   65 1    
    11    5  131 1    
    12    6    7 1    
    13    6  132 1    
    14    6  133 1    
    15    7    8 1    
    16    8    9 1    
    17    8  134 1    
    18    8  135 1    
    19    9   10 ar   
    20    9   14 ar   
    21   10   11 ar   
    22   10  136 1    
    23   11   12 ar   
    24   11  126 1    
    25   12   13 ar   
    26   12  137 1    
    27   13   14 ar   
    28   13   15 1    
    29   14  138 1    
    30   15   16 1    
    31   15  139 1    
    32   15  140 1    
    33   16   17 1    
    34   17   18 1    
    35   17  141 1    
    36   17  142 1    
    37   18   19 1    
    38   18   67 1    
    39   18  143 1    
    40   19   20 am   BACKBONE|DICT|INTERRES
    41   19  144 1    
    42   20   21 2    
    43   20   22 1    
    44   22   23 1    
    45   22   24 1    
    46   22  145 1    
    47   23  146 1    
    48   23  147 1    
    49   23  148 1    
    50   24   25 am   BACKBONE|DICT|INTERRES
    51   24  149 1    
    52   25   26 2    
    53   25   27 1    
    54   27   28 1    
    55   27   29 1    
    56   27  150 1    
    57   28  151 1    
    58   28  152 1    
    59   28  153 1    
    60   29   30 am   BACKBONE|DICT|INTERRES
    61   29  154 1    
    62   30   31 2    
    63   30   32 1    
    64   32   33 1    
    65   32   34 1    
    66   32  155 1    
    67   33  156 1    
    68   33  157 1    
    69   33  158 1    
    70   34   35 am   BACKBONE|DICT|INTERRES
    71   34  159 1    
    72   35   36 2    
    73   35   37 1    
    74   37   38 1    
    75   37   39 1    
    76   37  160 1    
    77   38  161 1    
    78   38  162 1    
    79   38  163 1    
    80   39   40 am   BACKBONE|DICT|INTERRES
    81   39  164 1    
    82   40   41 2    
    83   40   42 1    
    84   42   43 1    
    85   42   44 1    
    86   42  165 1    
    87   43  166 1    
    88   43  167 1    
    89   43  168 1    
    90   44   45 am   BACKBONE|DICT|INTERRES
    91   44  169 1    
    92   45   46 2    
    93   45   47 1    
    94   47   48 1    
    95   47   49 1    
    96   47  170 1    
    97   48  171 1    
    98   48  172 1    
    99   48  173 1    
   100   49   50 am   BACKBONE|DICT|INTERRES
   101   49  174 1    
   102   50   51 2    
   103   50   52 1    
   104   52   53 1    
   105   52   54 1    
   106   52  175 1    
   107   53  176 1    
   108   53  177 1    
   109   53  178 1    
   110   54   55 am   BACKBONE|DICT|INTERRES
   111   54  179 1    
   112   55   56 2    
   113   55   57 1    
   114   57   58 1    
   115   57   59 1    
   116   57  180 1    
   117   58  181 1    
   118   58  182 1    
   119   58  183 1    
   120   59   60 am   BACKBONE|DICT|INTERRES
   121   59  184 1    
   122   60   61 2    
   123   60   62 1    
   124   62   63 1    
   125   62   64 1    
   126   62  185 1    
   127   63  186 1    
   128   63  187 1    
   129   63  188 1    
   130   64   65 am   BACKBONE|DICT|INTERRES
   131   64  189 1    
   132   65   66 2    
   133   67   68 2    
   134   67   69 am   BACKBONE|DICT|INTERRES
   135   69   70 1    
   136   69  190 1    
   137   70   71 1    
   138   70   72 1    
   139   70  191 1    
   140   71  192 1    
   141   71  193 1    
   142   71  194 1    
   143   72   73 2    
   144   72   74 am   BACKBONE|DICT|INTERRES
   145   74   75 1    
   146   74  195 1    
   147   75   76 1    
   148   75   77 1    
   149   75  196 1    
   150   76  197 1    
   151   76  198 1    
   152   76  199 1    
   153   77   78 2    
   154   77   79 am   BACKBONE|DICT|INTERRES
   155   79   80 1    
   156   79  200 1    
   157   80   81 1    
   158   80   82 1    
   159   80  201 1    
   160   81  202 1    
   161   81  203 1    
   162   81  204 1    
   163   82   83 2    
   164   82   84 am   BACKBONE|DICT|INTERRES
   165   84   85 1    
   166   84  205 1    
   167   85   86 1    
   168   85   87 1    
   169   85  206 1    
   170   86  207 1    
   171   86  208 1    
   172   86  209 1    
   173   87   88 2    
   174   87   89 am   BACKBONE|DICT|INTERRES
   175   89   90 1    
   176   89  210 1    
   177   90   91 1    
   178   90   92 1    
   179   90  211 1    
   180   91  212 1    
   181   91  213 1    
   182   91  214 1    
   183   92   93 2    
   184   92   94 am   BACKBONE|DICT|INTERRES
   185   94   95 1    
   186   94  215 1    
   187   95   96 1    
   188   95   97 1    
   189   95  216 1    
   190   96  217 1    
   191   96  218 1    
   192   96  219 1    
   193   97   98 2    
   194   97   99 am   BACKBONE|DICT|INTERRES
   195   99  100 1    
   196   99  220 1    
   197  100  101 1    
   198  100  102 1    
   199  100  221 1    
   200  101  222 1    
   201  101  223 1    
   202  101  224 1    
   203  102  103 2    
   204  102  104 am   BACKBONE|DICT|INTERRES
   205  104  105 1    
   206  104  225 1    
   207  105  106 1    
   208  105  107 1    
   209  105  226 1    
   210  106  227 1    
   211  106  228 1    
   212  106  229 1    
   213  107  108 2    
   214  107  109 am   BACKBONE|DICT|INTERRES
   215  109  110 1    
   216  109  230 1    
   217  110  111 1    
   218  110  112 1    
   219  110  231 1    
   220  111  232 1    
   221  111  233 1    
   222  111  234 1    
   223  112  113 2    
   224  112  114 am   BACKBONE|DICT|INTERRES
   225  114  115 1    
   226  114  235 1    
   227  115  116 1    
   228  115  117 1    
   229  115  236 1    
   230  116  237 1    
   231  116  238 1    
   232  116  239 1    
   233  117  118 2    
   234  117  119 am   BACKBONE|DICT|INTERRES
   235  119  120 1    
   236  119  240 1    
   237  120  121 1    
   238  120  124 1    
   239  120  241 1    
   240  121  122 am   BACKBONE|DICT|INTERRES
   241  121  123 2    
   242  122  242 1    
   243  122  243 1    
   244  124  125 1    
   245  124  244 1    
   246  124  245 1    
   247  125  126 1    
   248  126  246 1    
   249  126  247 1    
@<TRIPOS>SUBSTRUCTURE
     1 UNK         1 GROUP             0       ****    0 ROOT    
