@<TRIPOS>MOLECULE
3R540
247   249    1
SMALL
USER_CHARGES


@<TRIPOS>ATOM
      1 CA         -2.5047  -12.6085  -51.1878 C.3       0 UNK        -0.1800 
      2 C          -1.9286  -13.1184  -49.8748 C.2       0 UNK         0.5000 
      3 O          -1.5567  -12.3246  -49.0101 O.2       0 UNK        -0.5000 
      4 N          -1.8780  -14.4427  -49.7084 N.am      1 UNK        -0.5000 
      5 CA         -1.3811  -15.1489  -48.5254 C.3       1 UNK         0.1400 
      6 C6         -0.7505  -16.5149  -48.9090 C.3       23 UNK        -0.0398 
      7 S7          0.6570  -16.3404  -50.0632 S.3       23 UNK        -0.2404 
      8 C8          2.0290  -17.1899  -49.1991 C.3       23 UNK        -0.0205 
      9 C9          2.3862  -18.5906  -49.7102 C.ar      23 UNK        -0.0193 
     10 C10         2.0304  -19.0363  -50.9893 C.ar      23 UNK        -0.1150 
     11 C11         2.4319  -20.2935  -51.4481 C.ar      23 UNK        -0.0193 
     12 C12         3.1941  -21.1202  -50.6208 C.ar      23 UNK        -0.1150 
     13 C13         3.5677  -20.6934  -49.3450 C.ar      23 UNK        -0.0193 
     14 C14         3.1591  -19.4312  -48.8987 C.ar      23 UNK        -0.1150 
     15 C15         4.4716  -21.5713  -48.4868 C.3       23 UNK        -0.0205 
     16 S16         3.6116  -23.0205  -47.7911 S.3       23 UNK        -0.2404 
     17 C17         2.6557  -22.2470  -46.4446 C.3       23 UNK        -0.0398 
     18 CA          1.2505  -22.8528  -46.2073 C.3       11 UNK         0.1400 
     19 N           0.6082  -22.2329  -45.0446 N.am      11 UNK        -0.5000 
     20 C          -0.5423  -22.6311  -44.4851 C.2       10 UNK         0.5000 
     21 O          -1.1709  -23.6241  -44.8477 O.2       10 UNK        -0.5000 
     22 CA         -1.1153  -21.7408  -43.3650 C.3       10 UNK         0.1400 
     23 CB         -0.4765  -22.0812  -42.0108 C.3       10 UNK        -0.1800 
     24 N          -0.9590  -20.3113  -43.6431 N.am      10 UNK        -0.5000 
     25 C          -1.5251  -19.6776  -44.6807 C.2       9 UNK         0.5000 
     26 O          -2.2886  -20.2216  -45.4749 O.2       9 UNK        -0.5000 
     27 CA         -1.1225  -18.2133  -44.9156 C.3       9 UNK         0.1400 
     28 CB         -1.9132  -17.2627  -44.0114 C.3       9 UNK        -0.1800 
     29 N           0.3084  -17.9892  -44.7338 N.am      9 UNK        -0.5000 
     30 C           1.2593  -18.5467  -45.4924 C.2       8 UNK         0.5000 
     31 O           1.0170  -19.2461  -46.4742 O.2       8 UNK        -0.5000 
     32 CA          2.7160  -18.3382  -45.0400 C.3       8 UNK         0.1400 
     33 CB          3.2769  -16.9973  -45.5374 C.3       8 UNK        -0.1800 
     34 N           2.8314  -18.4024  -43.5839 N.am      8 UNK        -0.5000 
     35 C           2.7141  -19.5288  -42.8680 C.2       7 UNK         0.5000 
     36 O           2.5422  -20.6393  -43.3708 O.2       7 UNK        -0.5000 
     37 CA          2.7601  -19.3791  -41.3355 C.3       7 UNK         0.1400 
     38 CB          4.2116  -19.4042  -40.8347 C.3       7 UNK        -0.1800 
     39 N           2.1083  -18.1518  -40.8706 N.am      7 UNK        -0.5000 
     40 C           0.7877  -17.9294  -40.9348 C.2       6 UNK         0.5000 
     41 O          -0.0207  -18.7576  -41.3520 O.2       6 UNK        -0.5000 
     42 CA          0.2954  -16.5284  -40.5172 C.3       6 UNK         0.1400 
     43 CB          0.0470  -16.4706  -39.0032 C.3       6 UNK        -0.1800 
     44 N           1.2101  -15.4472  -40.9035 N.am      6 UNK        -0.5000 
     45 C           1.5554  -15.1659  -42.1666 C.2       5 UNK         0.5000 
     46 O           1.1154  -15.7878  -43.1353 O.2       5 UNK        -0.5000 
     47 CA          2.5705  -14.0255  -42.3785 C.3       5 UNK         0.1400 
     48 CB          3.8996  -14.3484  -41.6726 C.3       5 UNK        -0.1800 
     49 N           2.8562  -13.8402  -43.8051 N.am      5 UNK        -0.5000 
     50 C           2.2024  -13.0947  -44.7076 C.2       4 UNK         0.5000 
     51 O           2.4748  -13.1775  -45.9046 O.2       4 UNK        -0.5000 
     52 CA          1.0843  -12.1338  -44.2586 C.3       4 UNK         0.1400 
     53 CB          0.7719  -11.0521  -45.3126 C.3       4 UNK        -0.1800 
     54 N          -0.1348  -12.8906  -43.9882 N.am      4 UNK        -0.5000 
     55 C          -0.9946  -12.6169  -42.9994 C.2       3 UNK         0.5000 
     56 O          -0.8080  -11.7264  -42.1674 O.2       3 UNK        -0.5000 
     57 CA         -2.2907  -13.4476  -42.9720 C.3       3 UNK         0.1400 
     58 CB         -3.3212  -12.8937  -41.9616 C.3       3 UNK        -0.1800 
     59 N          -2.8466  -13.4945  -44.3267 N.am      3 UNK        -0.5000 
     60 C          -3.8808  -14.2386  -44.7393 C.2       2 UNK         0.5000 
     61 O          -4.5036  -15.0191  -44.0196 O.2       2 UNK        -0.5000 
     62 CA         -4.2777  -14.0885  -46.2171 C.3       2 UNK         0.1400 
     63 CB         -5.0237  -12.7662  -46.4537 C.3       2 UNK        -0.1800 
     64 N          -3.1193  -14.1551  -47.1079 N.am      2 UNK        -0.5000 
     65 C          -2.5401  -15.2927  -47.5145 C.2       1 UNK         0.5000 
     66 O          -2.9258  -16.4078  -47.1657 O.2       1 UNK        -0.5000 
     67 C           0.3436  -22.7926  -47.4581 C.2       11 UNK         0.5000 
     68 O           0.1039  -23.8251  -48.0859 O.2       11 UNK        -0.5000 
     69 N          -0.1910  -21.6031  -47.7647 N.am      12 UNK        -0.5000 
     70 CA         -1.1143  -21.3894  -48.8801 C.3       12 UNK         0.1400 
     71 CB         -1.2944  -19.8863  -49.1026 C.3       12 UNK        -0.1800 
     72 C          -2.4759  -22.0859  -48.6827 C.2       12 UNK         0.5000 
     73 O          -3.0554  -22.5713  -49.6531 O.2       12 UNK        -0.5000 
     74 N          -2.9533  -22.1572  -47.4316 N.am      13 UNK        -0.5000 
     75 CA         -4.1564  -22.8943  -47.0481 C.3       13 UNK         0.1400 
     76 CB         -4.5586  -22.5493  -45.6075 C.3       13 UNK        -0.1800 
     77 C          -3.9920  -24.4144  -47.2242 C.2       13 UNK         0.5000 
     78 O          -4.8954  -25.0635  -47.7527 O.2       13 UNK        -0.5000 
     79 N          -2.8303  -24.9496  -46.8204 N.am      14 UNK        -0.5000 
     80 CA         -2.4495  -26.3512  -47.0116 C.3       14 UNK         0.1400 
     81 CB         -1.1469  -26.6435  -46.2523 C.3       14 UNK        -0.1800 
     82 C          -2.3189  -26.7381  -48.4970 C.2       14 UNK         0.5000 
     83 O          -2.6481  -27.8682  -48.8610 O.2       14 UNK        -0.5000 
     84 N          -1.9051  -25.7825  -49.3399 N.am      15 UNK        -0.5000 
     85 CA         -1.8704  -25.8790  -50.7995 C.3       15 UNK         0.1400 
     86 CB         -0.8795  -24.8343  -51.3441 C.3       15 UNK        -0.1800 
     87 C          -3.2788  -25.7539  -51.4271 C.2       15 UNK         0.5000 
     88 O          -3.5103  -24.8858  -52.2686 O.2       15 UNK        -0.5000 
     89 N          -4.1962  -26.6362  -51.0054 N.am      16 UNK        -0.5000 
     90 CA         -5.5669  -26.8128  -51.5003 C.3       16 UNK         0.1400 
     91 CB         -5.5422  -27.4077  -52.9240 C.3       16 UNK        -0.1800 
     92 C          -6.4450  -25.5457  -51.3966 C.2       16 UNK         0.5000 
     93 O          -7.2323  -25.2672  -52.3030 O.2       16 UNK        -0.5000 
     94 N          -6.2943  -24.8037  -50.2890 N.am      17 UNK        -0.5000 
     95 CA         -7.0158  -23.5743  -49.9340 C.3       17 UNK         0.1400 
     96 CB         -8.5227  -23.8535  -49.7529 C.3       17 UNK        -0.1800 
     97 C          -6.7490  -22.3738  -50.8692 C.2       17 UNK         0.5000 
     98 O          -7.5011  -21.3974  -50.8315 O.2       17 UNK        -0.5000 
     99 N          -5.6888  -22.4387  -51.6842 N.am      18 UNK        -0.5000 
    100 CA        -5.3326  -21.4270  -52.6753 C.3       18 UNK         0.1400 
    101 CB        -4.5747  -22.1073  -53.8248 C.3       18 UNK        -0.1800 
    102 C         -4.5546  -20.2565  -52.0419 C.2       18 UNK         0.5000 
    103 O         -3.3783  -20.0472  -52.3430 O.2       18 UNK        -0.5000 
    104 N         -5.2462  -19.4878  -51.1884 N.am      19 UNK        -0.5000 
    105 CA        -4.7349  -18.2936  -50.5046 C.3       19 UNK         0.1400 
    106 CB        -5.7987  -17.7745  -49.5273 C.3       19 UNK        -0.1800 
    107 C         -4.2798  -17.1684  -51.4569 C.2       19 UNK         0.5000 
    108 O         -3.4329  -16.3578  -51.0803 O.2       19 UNK        -0.5000 
    109 N         -4.8045  -17.1553  -52.6895 N.am      20 UNK        -0.5000 
    110 CA        -4.4025  -16.2740  -53.7873 C.3       20 UNK         0.1400 
    111 CB        -5.5323  -16.2481  -54.8322 C.3       20 UNK        -0.1800 
    112 C         -3.0398  -16.6838  -54.3934 C.2       20 UNK         0.5000 
    113 O         -2.9539  -16.9828  -55.5865 O.2       20 UNK        -0.5000 
    114 N         -2.0047  -16.7164  -53.5422 N.am      21 UNK        -0.5000 
    115 CA        -0.5959  -17.0045  -53.8353 C.3       21 UNK         0.1400 
    116 CB         0.0407  -15.8072  -54.5691 C.3       21 UNK        -0.1800 
    117 C         -0.3629  -18.3466  -54.5639 C.2       21 UNK         0.5000 
    118 O          0.5253  -18.4400  -55.4131 O.2       21 UNK        -0.5000 
    119 N         -1.1767  -19.3557  -54.2282 N.am      22 UNK        -0.5000 
    120 CA        -1.2168  -20.6878  -54.8549 C.3       22 UNK         0.1400 
    121 C         -1.7179  -20.6974  -56.3326 C.2       22 UNK         0.5000 
    122 N         -2.3339  -19.6336  -56.8376 N.am      22 UNK        -0.7600 
    123 O         -1.5782  -21.6979  -57.0309 O.2       22 UNK        -0.5000 
    124 C124        0.0754  -21.5259  -54.6456 C.3       23 UNK        -0.0398 
    125 S125        0.5257  -21.6794  -52.8819 S.3       23 UNK        -0.2404 
    126 C126        2.0764  -20.7352  -52.8558 C.3       23 UNK        -0.0205 
    127 H127       -3.3810  -11.9890  -50.9977 H         1 UNK         0.0600 
    128 H128       -2.8021  -13.4279  -51.8431 H         1 UNK         0.0600 
    129 H129       -1.7645  -12.0047  -51.7127 H         1 UNK         0.0600 
    130 H130       -2.3075  -15.0489  -50.4028 H         1 UNK         0.3000 
    131 H131       -0.6055  -14.5507  -48.0427 H         1 UNK         0.0600 
    132 H132       -1.4964  -17.1467  -49.3906 H         1 UNK         0.0800 
    133 H133       -0.4287  -17.0513  -48.0159 H         1 UNK         0.0800 
    134 H134        2.9184  -16.5661  -49.2937 H         1 UNK         0.0800 
    135 H135        1.8036  -17.2339  -48.1360 H         1 UNK         0.0800 
    136 H136        1.4576  -18.4029  -51.6485 H         1 UNK         0.1150 
    137 H137        3.5144  -22.0892  -50.9773 H         1 UNK         0.1150 
    138 H138        3.4643  -19.0911  -47.9208 H         1 UNK         0.1150 
    139 H139        5.3023  -21.9241  -49.0996 H         1 UNK         0.0800 
    140 H140        4.9211  -20.9927  -47.6782 H         1 UNK         0.0800 
    141 H141        2.5747  -21.1816  -46.6435 H         1 UNK         0.0800 
    142 H142        3.2490  -22.3328  -45.5332 H         1 UNK         0.0800 
    143 H143        1.3864  -23.9088  -45.9642 H         1 UNK         0.0600 
    144 H144        1.0814  -21.4312  -44.6439 H         1 UNK         0.3000 
    145 H145       -2.1847  -21.9467  -43.2919 H         1 UNK         0.0600 
    146 H146       -0.9229  -21.4964  -41.2064 H         1 UNK         0.0600 
    147 H147       -0.6206  -23.1343  -41.7664 H         1 UNK         0.0600 
    148 H148        0.5959  -21.8885  -42.0086 H         1 UNK         0.0600 
    149 H149       -0.3965  -19.7753  -42.9893 H         1 UNK         0.3000 
    150 H150       -1.3583  -17.9791  -45.9531 H         1 UNK         0.0600 
    151 H151       -2.9846  -17.3643  -44.1875 H         1 UNK         0.0600 
    152 H152       -1.6445  -16.2278  -44.2164 H         1 UNK         0.0600 
    153 H153       -1.7327  -17.4566  -42.9551 H         1 UNK         0.0600 
    154 H154        0.5868  -17.3630  -43.9831 H         1 UNK         0.3000 
    155 H155        3.3265  -19.1391  -45.4614 H         1 UNK         0.0600 
    156 H156        2.5822  -16.1764  -45.3620 H         1 UNK         0.0600 
    157 H157        3.4780  -17.0301  -46.6066 H         1 UNK         0.0600 
    158 H158        4.2199  -16.7529  -45.0484 H         1 UNK         0.0600 
    159 H159        2.9124  -17.5241  -43.0952 H         1 UNK         0.3000 
    160 H160        2.2343  -20.2323  -40.9017 H         1 UNK         0.0600 
    161 H161        4.7864  -18.5600  -41.2176 H         1 UNK         0.0600 
    162 H162        4.7176  -20.3171  -41.1518 H         1 UNK         0.0600 
    163 H163        4.2533  -19.3728  -39.7458 H         1 UNK         0.0600 
    164 H164        2.7050  -17.4239  -40.5066 H         1 UNK         0.3000 
    165 H165       -0.6563  -16.3521  -41.0225 H         1 UNK         0.0600 
    166 H166       -0.3910  -15.5159  -38.7116 H         1 UNK         0.0600 
    167 H167       -0.6462  -17.2531  -38.6913 H         1 UNK         0.0600 
    168 H168        0.9697  -16.6046  -38.4373 H         1 UNK         0.0600 
    169 H169        1.6003  -14.8989  -40.1504 H         1 UNK         0.3000 
    170 H170        2.1605  -13.1157  -41.9395 H         1 UNK         0.0600 
    171 H171        3.7729  -14.4248  -40.5920 H         1 UNK         0.0600 
    172 H172        4.3261  -15.2903  -42.0220 H         1 UNK         0.0600 
    173 H173        4.6368  -13.5647  -41.8494 H         1 UNK         0.0600 
    174 H174        3.5683  -14.4558  -44.1655 H         1 UNK         0.3000 
    175 H175        1.4323  -11.6140  -43.3646 H         1 UNK         0.0600 
    176 H176        1.6685  -10.4877  -45.5720 H         1 UNK         0.0600 
    177 H177        0.3759  -11.4848  -46.2328 H         1 UNK         0.0600 
    178 H178        0.0378  -10.3385  -44.9378 H         1 UNK         0.0600 
    179 H179       -0.3007  -13.6875  -44.5885 H         1 UNK         0.3000 
    180 H180       -2.0168  -14.4592  -42.6677 H         1 UNK         0.0600 
    181 H181       -3.6577  -11.8947  -42.2420 H         1 UNK         0.0600 
    182 H182       -2.8933  -12.8293  -40.9601 H         1 UNK         0.0600 
    183 H183       -4.2003  -13.5328  -41.8837 H         1 UNK         0.0600 
    184 H184       -2.4053  -12.8755  -44.9926 H         1 UNK         0.3000 
    185 H185       -4.9606  -14.9045  -46.4643 H         1 UNK         0.0600 
    186 H186       -5.8964  -12.6893  -45.8039 H         1 UNK         0.0600 
    187 H187       -4.3904  -11.9004  -46.2577 H         1 UNK         0.0600 
    188 H188       -5.3781  -12.6944  -47.4822 H         1 UNK         0.0600 
    189 H189       -2.7648  -13.2824  -47.4809 H         1 UNK         0.3000 
    190 H190        0.0748  -20.7856  -47.2225 H         1 UNK         0.3000 
    191 H191       -0.6512  -21.8059  -49.7773 H         1 UNK         0.0600 
    192 H192       -0.3296  -19.3921  -49.2062 H         1 UNK         0.0600 
    193 H193       -1.8508  -19.6998  -50.0207 H         1 UNK         0.0600 
    194 H194       -1.8290  -19.4153  -48.2765 H         1 UNK         0.0600 
    195 H195       -2.4735  -21.6501  -46.6924 H         1 UNK         0.3000 
    196 H196       -4.9605  -22.5602  -47.7028 H         1 UNK         0.0600 
    197 H197       -5.4734  -23.0707  -45.3231 H         1 UNK         0.0600 
    198 H198       -4.7458  -21.4813  -45.4951 H         1 UNK         0.0600 
    199 H199       -3.7856  -22.8318  -44.8937 H         1 UNK         0.0600 
    200 H200       -2.1555  -24.3582  -46.3427 H         1 UNK         0.3000 
    201 H201       -3.2386  -26.9702  -46.5802 H         1 UNK         0.0600 
    202 H202       -1.2612  -26.4494  -45.1857 H         1 UNK         0.0600 
    203 H203       -0.3211  -26.0320  -46.6161 H         1 UNK         0.0600 
    204 H204       -0.8558  -27.6887  -46.3633 H         1 UNK         0.0600 
    205 H205       -1.6282  -24.8912  -48.9458 H         1 UNK         0.3000 
    206 H206       -1.4870  -26.8646  -51.0704 H         1 UNK         0.0600 
    207 H207        0.1096  -24.9568  -50.9022 H         1 UNK         0.0600 
    208 H208       -0.7666  -24.9264  -52.4249 H         1 UNK         0.0600 
    209 H209       -1.2114  -23.8171  -51.1378 H         1 UNK         0.0600 
    210 H210       -3.9014  -27.2839  -50.2809 H         1 UNK         0.3000 
    211 H211       -6.0314  -27.5511  -50.8454 H         1 UNK         0.0600 
    212 H212       -5.1291  -26.7042  -53.6478 H         1 UNK         0.0600 
    213 H213       -6.5468  -27.6698  -53.2582 H         1 UNK         0.0600 
    214 H214       -4.9431  -28.3175  -52.9612 H         1 UNK         0.0600 
    215 H215       -5.6214  -25.1101  -49.5917 H         1 UNK         0.3000 
    216 H216       -6.6364  -23.2774  -48.9591 H         1 UNK         0.0600 
    217 H217       -9.0322  -22.9907  -49.3225 H         1 UNK         0.0600 
    218 H218       -8.6897  -24.6940  -49.0792 H         1 UNK         0.0600 
    219 H219       -9.0119  -24.0792  -50.7006 H         1 UNK         0.0600 
    220 H220       -5.0746  -23.2422  -51.6253 H         1 UNK         0.3000 
    221 H221       -6.2483  -21.0118  -53.1015 H         1 UNK         0.0600 
    222 H222       -3.6384  -22.5459  -53.4803 H         1 UNK         0.0600 
    223 H223       -5.1691  -22.9055  -54.2698 H         1 UNK         0.0600 
    224 H224       -4.3454  -21.3940  -54.6170 H         1 UNK         0.0600 
    225 H225       -6.1983  -19.7659  -50.9767 H         1 UNK         0.3000 
    226 H226       -3.8644  -18.5930  -49.9206 H         1 UNK         0.0600 
    227 H227       -6.0629  -18.5352  -48.7924 H         1 UNK         0.0600 
    228 H228       -5.4315  -16.9072  -48.9761 H         1 UNK         0.0600 
    229 H229       -6.7102  -17.4751  -50.0459 H         1 UNK         0.0600 
    230 H230       -5.4764  -17.8722  -52.9181 H         1 UNK         0.3000 
    231 H231       -4.2885  -15.2608  -53.3964 H         1 UNK         0.0600 
    232 H232       -6.4683  -15.9034  -54.3924 H         1 UNK         0.0600 
    233 H233       -5.7066  -17.2354  -55.2620 H         1 UNK         0.0600 
    234 H234       -5.2920  -15.5698  -55.6519 H         1 UNK         0.0600 
    235 H235       -2.2183  -16.5153  -52.5702 H         1 UNK         0.3000 
    236 H236       -0.1004  -17.0993  -52.8698 H         1 UNK         0.0600 
    237 H237        1.1162  -15.9442  -54.6868 H         1 UNK         0.0600 
    238 H238       -0.3857  -15.6731  -55.5638 H         1 UNK         0.0600 
    239 H239       -0.1066  -14.8816  -54.0125 H         1 UNK         0.0600 
    240 H240       -1.8800  -19.2104  -53.5120 H         1 UNK         0.3000 
    241 H241       -1.9965  -21.2143  -54.3126 H         1 UNK         0.0600 
    242 H242       -2.6599  -19.6609  -57.7903 H         1 UNK         0.3800 
    243 H243       -2.4599  -18.7866  -56.2925 H         1 UNK         0.3800 
    244 H244       -0.0666  -22.5387  -55.0256 H         1 UNK         0.0800 
    245 H245        0.9040  -21.1071  -55.2178 H         1 UNK         0.0800 
    246 H246        1.9922  -19.8594  -53.4998 H         1 UNK         0.0800 
    247 H247        2.8771  -21.3464  -53.2749 H         1 UNK         0.0800 
@<TRIPOS>BOND
     1    1    2 1    
     2    1  127 1    
     3    1  128 1    
     4    1  129 1    
     5    2    3 2    
     6    2    4 am   BACKBONE|DICT|INTERRES
     7    4    5 1    
     8    4  130 1    
     9    5    6 1    
    10    5   65 1    
    11    5  131 1    
    12    6    7 1    
    13    6  132 1    
    14    6  133 1    
    15    7    8 1    
    16    8    9 1    
    17    8  134 1    
    18    8  135 1    
    19    9   10 ar   
    20    9   14 ar   
    21   10   11 ar   
    22   10  136 1    
    23   11   12 ar   
    24   11  126 1    
    25   12   13 ar   
    26   12  137 1    
    27   13   14 ar   
    28   13   15 1    
    29   14  138 1    
    30   15   16 1    
    31   15  139 1    
    32   15  140 1    
    33   16   17 1    
    34   17   18 1    
    35   17  141 1    
    36   17  142 1    
    37   18   19 1    
    38   18   67 1    
    39   18  143 1    
    40   19   20 am   BACKBONE|DICT|INTERRES
    41   19  144 1    
    42   20   21 2    
    43   20   22 1    
    44   22   23 1    
    45   22   24 1    
    46   22  145 1    
    47   23  146 1    
    48   23  147 1    
    49   23  148 1    
    50   24   25 am   BACKBONE|DICT|INTERRES
    51   24  149 1    
    52   25   26 2    
    53   25   27 1    
    54   27   28 1    
    55   27   29 1    
    56   27  150 1    
    57   28  151 1    
    58   28  152 1    
    59   28  153 1    
    60   29   30 am   BACKBONE|DICT|INTERRES
    61   29  154 1    
    62   30   31 2    
    63   30   32 1    
    64   32   33 1    
    65   32   34 1    
    66   32  155 1    
    67   33  156 1    
    68   33  157 1    
    69   33  158 1    
    70   34   35 am   BACKBONE|DICT|INTERRES
    71   34  159 1    
    72   35   36 2    
    73   35   37 1    
    74   37   38 1    
    75   37   39 1    
    76   37  160 1    
    77   38  161 1    
    78   38  162 1    
    79   38  163 1    
    80   39   40 am   BACKBONE|DICT|INTERRES
    81   39  164 1    
    82   40   41 2    
    83   40   42 1    
    84   42   43 1    
    85   42   44 1    
    86   42  165 1    
    87   43  166 1    
    88   43  167 1    
    89   43  168 1    
    90   44   45 am   BACKBONE|DICT|INTERRES
    91   44  169 1    
    92   45   46 2    
    93   45   47 1    
    94   47   48 1    
    95   47   49 1    
    96   47  170 1    
    97   48  171 1    
    98   48  172 1    
    99   48  173 1    
   100   49   50 am   BACKBONE|DICT|INTERRES
   101   49  174 1    
   102   50   51 2    
   103   50   52 1    
   104   52   53 1    
   105   52   54 1    
   106   52  175 1    
   107   53  176 1    
   108   53  177 1    
   109   53  178 1    
   110   54   55 am   BACKBONE|DICT|INTERRES
   111   54  179 1    
   112   55   56 2    
   113   55   57 1    
   114   57   58 1    
   115   57   59 1    
   116   57  180 1    
   117   58  181 1    
   118   58  182 1    
   119   58  183 1    
   120   59   60 am   BACKBONE|DICT|INTERRES
   121   59  184 1    
   122   60   61 2    
   123   60   62 1    
   124   62   63 1    
   125   62   64 1    
   126   62  185 1    
   127   63  186 1    
   128   63  187 1    
   129   63  188 1    
   130   64   65 am   BACKBONE|DICT|INTERRES
   131   64  189 1    
   132   65   66 2    
   133   67   68 2    
   134   67   69 am   BACKBONE|DICT|INTERRES
   135   69   70 1    
   136   69  190 1    
   137   70   71 1    
   138   70   72 1    
   139   70  191 1    
   140   71  192 1    
   141   71  193 1    
   142   71  194 1    
   143   72   73 2    
   144   72   74 am   BACKBONE|DICT|INTERRES
   145   74   75 1    
   146   74  195 1    
   147   75   76 1    
   148   75   77 1    
   149   75  196 1    
   150   76  197 1    
   151   76  198 1    
   152   76  199 1    
   153   77   78 2    
   154   77   79 am   BACKBONE|DICT|INTERRES
   155   79   80 1    
   156   79  200 1    
   157   80   81 1    
   158   80   82 1    
   159   80  201 1    
   160   81  202 1    
   161   81  203 1    
   162   81  204 1    
   163   82   83 2    
   164   82   84 am   BACKBONE|DICT|INTERRES
   165   84   85 1    
   166   84  205 1    
   167   85   86 1    
   168   85   87 1    
   169   85  206 1    
   170   86  207 1    
   171   86  208 1    
   172   86  209 1    
   173   87   88 2    
   174   87   89 am   BACKBONE|DICT|INTERRES
   175   89   90 1    
   176   89  210 1    
   177   90   91 1    
   178   90   92 1    
   179   90  211 1    
   180   91  212 1    
   181   91  213 1    
   182   91  214 1    
   183   92   93 2    
   184   92   94 am   BACKBONE|DICT|INTERRES
   185   94   95 1    
   186   94  215 1    
   187   95   96 1    
   188   95   97 1    
   189   95  216 1    
   190   96  217 1    
   191   96  218 1    
   192   96  219 1    
   193   97   98 2    
   194   97   99 am   BACKBONE|DICT|INTERRES
   195   99  100 1    
   196   99  220 1    
   197  100  101 1    
   198  100  102 1    
   199  100  221 1    
   200  101  222 1    
   201  101  223 1    
   202  101  224 1    
   203  102  103 2    
   204  102  104 am   BACKBONE|DICT|INTERRES
   205  104  105 1    
   206  104  225 1    
   207  105  106 1    
   208  105  107 1    
   209  105  226 1    
   210  106  227 1    
   211  106  228 1    
   212  106  229 1    
   213  107  108 2    
   214  107  109 am   BACKBONE|DICT|INTERRES
   215  109  110 1    
   216  109  230 1    
   217  110  111 1    
   218  110  112 1    
   219  110  231 1    
   220  111  232 1    
   221  111  233 1    
   222  111  234 1    
   223  112  113 2    
   224  112  114 am   BACKBONE|DICT|INTERRES
   225  114  115 1    
   226  114  235 1    
   227  115  116 1    
   228  115  117 1    
   229  115  236 1    
   230  116  237 1    
   231  116  238 1    
   232  116  239 1    
   233  117  118 2    
   234  117  119 am   BACKBONE|DICT|INTERRES
   235  119  120 1    
   236  119  240 1    
   237  120  121 1    
   238  120  124 1    
   239  120  241 1    
   240  121  122 am   BACKBONE|DICT|INTERRES
   241  121  123 2    
   242  122  242 1    
   243  122  243 1    
   244  124  125 1    
   245  124  244 1    
   246  124  245 1    
   247  125  126 1    
   248  126  246 1    
   249  126  247 1    
@<TRIPOS>SUBSTRUCTURE
     1 UNK         1 GROUP             0       ****    0 ROOT    
