@<TRIPOS>MOLECULE
3R540
247   249    1
SMALL
USER_CHARGES


@<TRIPOS>ATOM
      1 CA          0.8759  -13.7912  -50.6557 C.3       0 UNK        -0.1800 
      2 C           2.1549  -14.6091  -50.5699 C.2       0 UNK         0.5000 
      3 O           3.2493  -14.0519  -50.6575 O.2       0 UNK        -0.5000 
      4 N           2.0207  -15.9294  -50.3910 N.am      1 UNK        -0.5000 
      5 CA          3.1413  -16.8735  -50.2666 C.3       1 UNK         0.1400 
      6 C6          2.7224  -18.3401  -50.5446 C.3       23 UNK        -0.0398 
      7 S7          2.0139  -18.5752  -52.2127 S.3       23 UNK        -0.2404 
      8 C8          0.3070  -19.0931  -51.8481 C.3       23 UNK        -0.0205 
      9 C9         -0.5150  -17.9651  -51.2509 C.ar      23 UNK        -0.0193 
     10 C10        -1.0955  -17.0049  -52.0821 C.ar      23 UNK        -0.1150 
     11 C11        -1.8485  -15.9623  -51.5393 C.ar      23 UNK        -0.0193 
     12 C12        -1.9954  -15.8743  -50.1515 C.ar      23 UNK        -0.1150 
     13 C13        -1.3961  -16.8098  -49.3017 C.ar      23 UNK        -0.0193 
     14 C14        -0.6802  -17.8724  -49.8677 C.ar      23 UNK        -0.1150 
     15 C15        -1.5245  -16.6016  -47.7910 C.3       23 UNK        -0.0205 
     16 S16        -0.5038  -17.6965  -46.7433 S.3       23 UNK        -0.2404 
     17 C17        -1.5989  -19.1457  -46.5878 C.3       23 UNK        -0.0398 
     18 CA         -0.8190  -20.4752  -46.4647 C.3       11 UNK         0.1400 
     19 N           0.1176  -20.5171  -45.3361 N.am      11 UNK        -0.5000 
     20 C           1.1328  -21.3893  -45.2599 C.2       10 UNK         0.5000 
     21 O           1.3701  -22.2308  -46.1273 O.2       10 UNK        -0.5000 
     22 CA          2.0107  -21.3431  -43.9988 C.3       10 UNK         0.1400 
     23 CB          3.0071  -20.1785  -44.0674 C.3       10 UNK        -0.1800 
     24 N           1.2558  -21.2595  -42.7492 N.am      10 UNK        -0.5000 
     25 C           0.4726  -22.2344  -42.2681 C.2       9 UNK         0.5000 
     26 O           0.1794  -23.2461  -42.9033 O.2       9 UNK        -0.5000 
     27 CA         -0.0677  -22.0556  -40.8411 C.3       9 UNK         0.1400 
     28 CB          1.0480  -22.2834  -39.8090 C.3       9 UNK        -0.1800 
     29 N          -0.6192  -20.7163  -40.6642 N.am      9 UNK        -0.5000 
     30 C          -1.9238  -20.4359  -40.5499 C.2       8 UNK         0.5000 
     31 O          -2.8063  -21.2906  -40.4652 O.2       8 UNK        -0.5000 
     32 CA         -2.3217  -18.9444  -40.5535 C.3       8 UNK         0.1400 
     33 CB         -2.4641  -18.4236  -39.1154 C.3       8 UNK        -0.1800 
     34 N          -1.3933  -18.0747  -41.2810 N.am      8 UNK        -0.5000 
     35 C          -1.0494  -18.2112  -42.5687 C.2       7 UNK         0.5000 
     36 O          -1.4843  -19.0936  -43.3079 O.2       7 UNK        -0.5000 
     37 CA          0.0080  -17.2369  -43.1115 C.3       7 UNK         0.1400 
     38 CB         -0.6750  -15.9688  -43.6441 C.3       7 UNK        -0.1800 
     39 N           1.0586  -16.8525  -42.1652 N.am      7 UNK        -0.5000 
     40 C           1.8036  -17.6578  -41.3929 C.2       6 UNK         0.5000 
     41 O           1.6278  -18.8732  -41.2925 O.2       6 UNK        -0.5000 
     42 CA          2.9416  -16.9963  -40.5995 C.3       6 UNK         0.1400 
     43 CB          4.2424  -17.0350  -41.4159 C.3       6 UNK        -0.1800 
     44 N           2.6369  -15.6049  -40.2628 N.am      6 UNK        -0.5000 
     45 C           2.1612  -15.1894  -39.0817 C.2       5 UNK         0.5000 
     46 O           1.9363  -15.9411  -38.1324 O.2       5 UNK        -0.5000 
     47 CA          1.8965  -13.6778  -38.9241 C.3       5 UNK         0.1400 
     48 CB          3.1281  -12.9793  -38.3275 C.3       5 UNK        -0.1800 
     49 N           1.5370  -13.0143  -40.1786 N.am      5 UNK        -0.5000 
     50 C           0.3713  -13.1784  -40.8182 C.2       4 UNK         0.5000 
     51 O          -0.5471  -13.8803  -40.3940 O.2       4 UNK        -0.5000 
     52 CA          0.2082  -12.4568  -42.1726 C.3       4 UNK         0.1400 
     53 CB         -0.4561  -11.0870  -41.9672 C.3       4 UNK        -0.1800 
     54 N           1.4407  -12.2764  -42.9528 N.am      4 UNK        -0.5000 
     55 C           2.2955  -13.2448  -43.3073 C.2       3 UNK         0.5000 
     56 O           2.2356  -14.4001  -42.8823 O.2       3 UNK        -0.5000 
     57 CA          3.4358  -12.8494  -44.2613 C.3       3 UNK         0.1400 
     58 CB          4.6257  -12.2946  -43.4634 C.3       3 UNK        -0.1800 
     59 N           3.8879  -14.0016  -45.0421 N.am      3 UNK        -0.5000 
     60 C           3.1882  -14.5778  -46.0273 C.2       2 UNK         0.5000 
     61 O           2.1318  -14.1290  -46.4817 O.2       2 UNK        -0.5000 
     62 CA          3.7629  -15.8895  -46.5779 C.3       2 UNK         0.1400 
     63 CB          3.4032  -17.0717  -45.6642 C.3       2 UNK        -0.1800 
     64 N           3.2271  -16.1305  -47.9117 N.am      2 UNK        -0.5000 
     65 C           3.8610  -16.7702  -48.9019 C.2       1 UNK         0.5000 
     66 O           4.9787  -17.2728  -48.7754 O.2       1 UNK        -0.5000 
     67 C          -1.7919  -21.6646  -46.4045 C.2       11 UNK         0.5000 
     68 O          -2.1664  -22.1814  -47.4550 O.2       11 UNK        -0.5000 
     69 N          -2.1492  -22.1029  -45.1879 N.am      12 UNK        -0.5000 
     70 CA         -2.9757  -23.2844  -44.9428 C.3       12 UNK         0.1400 
     71 CB         -3.3580  -23.3525  -43.4564 C.3       12 UNK        -0.1800 
     72 C          -2.2855  -24.5803  -45.4061 C.2       12 UNK         0.5000 
     73 O          -2.9099  -25.3815  -46.1013 O.2       12 UNK        -0.5000 
     74 N          -0.9959  -24.7325  -45.0704 N.am      13 UNK        -0.5000 
     75 CA         -0.1413  -25.8408  -45.5052 C.3       13 UNK         0.1400 
     76 CB          1.2033  -25.7681  -44.7661 C.3       13 UNK        -0.1800 
     77 C           0.0801  -25.8707  -47.0297 C.2       13 UNK         0.5000 
     78 O           0.1181  -26.9517  -47.6180 O.2       13 UNK        -0.5000 
     79 N           0.1865  -24.6850  -47.6444 N.am      14 UNK        -0.5000 
     80 CA          0.2907  -24.5001  -49.0935 C.3       14 UNK         0.1400 
     81 CB          0.8960  -23.1130  -49.3691 C.3       14 UNK        -0.1800 
     82 C          -1.0549  -24.6443  -49.8352 C.2       14 UNK         0.5000 
     83 O          -1.0598  -24.6041  -51.0665 O.2       14 UNK        -0.5000 
     84 N          -2.1717  -24.7382  -49.0938 N.am      15 UNK        -0.5000 
     85 CA         -3.5639  -24.7151  -49.5661 C.3       15 UNK         0.1400 
     86 CB         -3.8985  -26.0180  -50.3203 C.3       15 UNK        -0.1800 
     87 C          -3.8905  -23.4482  -50.3892 C.2       15 UNK         0.5000 
     88 O          -4.6475  -23.5125  -51.3596 O.2       15 UNK        -0.5000 
     89 N          -3.2406  -22.3324  -50.0232 N.am      16 UNK        -0.5000 
     90 CA         -3.1910  -21.0394  -50.7117 C.3       16 UNK         0.1400 
     91 CB         -4.5244  -20.2886  -50.5263 C.3       16 UNK        -0.1800 
     92 C          -2.7587  -21.1330  -52.1935 C.2       16 UNK         0.5000 
     93 O          -3.1322  -20.2678  -52.9806 O.2       16 UNK        -0.5000 
     94 N          -2.0053  -22.1858  -52.5527 N.am      17 UNK        -0.5000 
     95 CA         -1.6160  -22.5831  -53.9123 C.3       17 UNK         0.1400 
     96 CB         -0.6634  -21.5521  -54.5519 C.3       17 UNK        -0.1800 
     97 C          -2.8058  -22.9520  -54.8298 C.2       17 UNK         0.5000 
     98 O          -2.6560  -22.9342  -56.0532 O.2       17 UNK        -0.5000 
     99 N          -3.9486  -23.3170  -54.2275 N.am      18 UNK        -0.5000 
    100 CA        -5.2114  -23.6946  -54.8670 C.3       18 UNK         0.1400 
    101 CB        -5.0547  -25.0310  -55.6273 C.3       18 UNK        -0.1800 
    102 C         -5.8250  -22.5583  -55.7181 C.2       18 UNK         0.5000 
    103 O         -5.5724  -21.3828  -55.4408 O.2       18 UNK        -0.5000 
    104 N         -6.6586  -22.9327  -56.7043 N.am      19 UNK        -0.5000 
    105 CA        -7.4450  -22.0614  -57.5911 C.3       19 UNK         0.1400 
    106 CB        -6.5236  -21.2932  -58.5602 C.3       19 UNK        -0.1800 
    107 C         -8.3927  -21.1400  -56.7947 C.2       19 UNK         0.5000 
    108 O         -8.4043  -19.9251  -56.9986 O.2       19 UNK        -0.5000 
    109 N         -9.1196  -21.7523  -55.8475 N.am      20 UNK        -0.5000 
    110 CA        -9.8734  -21.1517  -54.7399 C.3       20 UNK         0.1400 
    111 CB       -10.9340  -20.1358  -55.2112 C.3       20 UNK        -0.1800 
    112 C         -8.9254  -20.5705  -53.6751 C.2       20 UNK         0.5000 
    113 O         -8.9065  -21.0677  -52.5488 O.2       20 UNK        -0.5000 
    114 N         -8.1167  -19.5832  -54.0686 N.am      21 UNK        -0.5000 
    115 CA        -6.9883  -19.0499  -53.3185 C.3       21 UNK         0.1400 
    116 CB        -7.4655  -18.1841  -52.1368 C.3       21 UNK        -0.1800 
    117 C         -6.1081  -18.2311  -54.2700 C.2       21 UNK         0.5000 
    118 O         -6.6326  -17.5440  -55.1503 O.2       21 UNK        -0.5000 
    119 N         -4.7944  -18.2928  -54.0409 N.am      22 UNK        -0.5000 
    120 CA        -3.7338  -17.5629  -54.7485 C.3       22 UNK         0.1400 
    121 C         -3.4438  -18.0754  -56.1909 C.2       22 UNK         0.5000 
    122 N         -3.8923  -19.2615  -56.5821 N.am      22 UNK        -0.7600 
    123 O         -2.7697  -17.4023  -56.9664 O.2       22 UNK        -0.5000 
    124 C124       -3.8691  -16.0145  -54.6683 C.3       23 UNK        -0.0398 
    125 S125       -4.1438  -15.3672  -52.9774 S.3       23 UNK        -0.2404 
    126 C126       -2.4660  -14.9040  -52.4413 C.3       23 UNK        -0.0205 
    127 H127        1.0904  -12.7274  -50.5526 H         1 UNK         0.0600 
    128 H128        0.1850  -14.0714  -49.8610 H         1 UNK         0.0600 
    129 H129        0.3890  -13.9497  -51.6176 H         1 UNK         0.0600 
    130 H130        1.0958  -16.3378  -50.3595 H         1 UNK         0.3000 
    131 H131        3.8819  -16.6023  -51.0223 H         1 UNK         0.0600 
    132 H132        3.5921  -18.9963  -50.4778 H         1 UNK         0.0800 
    133 H133        2.0285  -18.6968  -49.7837 H         1 UNK         0.0800 
    134 H134        0.3143  -19.9653  -51.1924 H         1 UNK         0.0800 
    135 H135       -0.1649  -19.4110  -52.7765 H         1 UNK         0.0800 
    136 H136       -0.9501  -17.0652  -53.1510 H         1 UNK         0.1150 
    137 H137       -2.5589  -15.0542  -49.7285 H         1 UNK         0.1150 
    138 H138       -0.2230  -18.6225  -49.2413 H         1 UNK         0.1150 
    139 H139       -1.2319  -15.5754  -47.5632 H         1 UNK         0.0800 
    140 H140       -2.5721  -16.6912  -47.5003 H         1 UNK         0.0800 
    141 H141       -2.2595  -18.9916  -45.7344 H         1 UNK         0.0800 
    142 H142       -2.2475  -19.1822  -47.4654 H         1 UNK         0.0800 
    143 H143       -0.2371  -20.5864  -47.3822 H         1 UNK         0.0600 
    144 H144       -0.0877  -19.9024  -44.5580 H         1 UNK         0.3000 
    145 H145        2.5862  -22.2709  -43.9721 H         1 UNK         0.0600 
    146 H146        2.4968  -19.2163  -44.0472 H         1 UNK         0.0600 
    147 H147        3.7025  -20.2041  -43.2283 H         1 UNK         0.0600 
    148 H148        3.5990  -20.2233  -44.9822 H         1 UNK         0.0600 
    149 H149        1.4365  -20.4421  -42.1712 H         1 UNK         0.3000 
    150 H150       -0.8344  -22.8164  -40.6807 H         1 UNK         0.0600 
    151 H151        0.6585  -22.2237  -38.7926 H         1 UNK         0.0600 
    152 H152        1.8460  -21.5457  -39.9038 H         1 UNK         0.0600 
    153 H153        1.4953  -23.2710  -39.9286 H         1 UNK         0.0600 
    154 H154        0.0342  -19.9454  -40.7549 H         1 UNK         0.3000 
    155 H155       -3.2935  -18.8692  -41.0452 H         1 UNK         0.0600 
    156 H156       -1.5109  -18.4435  -38.5853 H         1 UNK         0.0600 
    157 H157       -3.1693  -19.0316  -38.5469 H         1 UNK         0.0600 
    158 H158       -2.8356  -17.3988  -39.1010 H         1 UNK         0.0600 
    159 H159       -0.9640  -17.3280  -40.7539 H         1 UNK         0.3000 
    160 H160        0.5045  -17.7341  -43.9450 H         1 UNK         0.0600 
    161 H161       -1.4914  -16.2143  -44.3244 H         1 UNK         0.0600 
    162 H162        0.0265  -15.3446  -44.1977 H         1 UNK         0.0600 
    163 H163       -1.0967  -15.3745  -42.8336 H         1 UNK         0.0600 
    164 H164        1.3514  -15.8814  -42.2281 H         1 UNK         0.3000 
    165 H165        3.0952  -17.5823  -39.6910 H         1 UNK         0.0600 
    166 H166        5.0815  -16.6543  -40.8335 H         1 UNK         0.0600 
    167 H167        4.4895  -18.0547  -41.7146 H         1 UNK         0.0600 
    168 H168        4.1667  -16.4341  -42.3226 H         1 UNK         0.0600 
    169 H169        2.7308  -14.9322  -41.0156 H         1 UNK         0.3000 
    170 H170        1.0662  -13.5597  -38.2245 H         1 UNK         0.0600 
    171 H171        2.9304  -11.9241  -38.1383 H         1 UNK         0.0600 
    172 H172        3.4109  -13.4313  -37.3759 H         1 UNK         0.0600 
    173 H173        3.9905  -13.0466  -38.9921 H         1 UNK         0.0600 
    174 H174        2.2360  -12.4202  -40.5996 H         1 UNK         0.3000 
    175 H175       -0.4638  -13.0650  -42.7798 H         1 UNK         0.0600 
    176 H176        0.1885  -10.4081  -41.4073 H         1 UNK         0.0600 
    177 H177       -1.3911  -11.1836  -41.4133 H         1 UNK         0.0600 
    178 H178       -0.6942  -10.6155  -42.9208 H         1 UNK         0.0600 
    179 H179        1.5902  -11.3487  -43.3229 H         1 UNK         0.3000 
    180 H180        3.0750  -12.0798  -44.9470 H         1 UNK         0.0600 
    181 H181        4.3376  -11.4121  -42.8907 H         1 UNK         0.0600 
    182 H182        5.4400  -11.9982  -44.1248 H         1 UNK         0.0600 
    183 H183        5.0165  -13.0300  -42.7585 H         1 UNK         0.0600 
    184 H184        4.7248  -14.4576  -44.7103 H         1 UNK         0.3000 
    185 H185        4.8489  -15.7868  -46.6320 H         1 UNK         0.0600 
    186 H186        2.3233  -17.1989  -45.5843 H         1 UNK         0.0600 
    187 H187        3.8236  -18.0023  -46.0445 H         1 UNK         0.0600 
    188 H188        3.7922  -16.9262  -44.6565 H         1 UNK         0.0600 
    189 H189        2.3353  -15.6880  -48.0938 H         1 UNK         0.3000 
    190 H190       -1.7861  -21.6216  -44.3775 H         1 UNK         0.3000 
    191 H191       -3.8949  -23.1731  -45.5221 H         1 UNK         0.0600 
    192 H192       -2.4840  -23.4531  -42.8134 H         1 UNK         0.0600 
    193 H193       -4.0075  -24.2064  -43.2607 H         1 UNK         0.0600 
    194 H194       -3.8967  -22.4568  -43.1461 H         1 UNK         0.0600 
    195 H195       -0.5667  -24.0521  -44.4479 H         1 UNK         0.3000 
    196 H196       -0.6352  -26.7731  -45.2242 H         1 UNK         0.0600 
    197 H197        1.8601  -26.5860  -45.0650 H         1 UNK         0.0600 
    198 H198        1.0637  -25.8409  -43.6874 H         1 UNK         0.0600 
    199 H199        1.7254  -24.8330  -44.9727 H         1 UNK         0.0600 
    200 H200        0.2058  -23.8452  -47.0779 H         1 UNK         0.3000 
    201 H201        0.9691  -25.2549  -49.4961 H         1 UNK         0.0600 
    202 H202        0.2433  -22.3136  -49.0183 H         1 UNK         0.0600 
    203 H203        1.8613  -22.9977  -48.8757 H         1 UNK         0.0600 
    204 H204        1.0580  -22.9581  -50.4366 H         1 UNK         0.0600 
    205 H205       -2.0650  -24.7398  -48.0872 H         1 UNK         0.3000 
    206 H206       -4.1911  -24.6721  -48.6747 H         1 UNK         0.0600 
    207 H207       -4.9607  -26.0686  -50.5624 H         1 UNK         0.0600 
    208 H208       -3.3455  -26.0974  -51.2568 H         1 UNK         0.0600 
    209 H209       -3.6624  -26.8937  -49.7157 H         1 UNK         0.0600 
    210 H210       -2.6950  -22.3824  -49.1637 H         1 UNK         0.3000 
    211 H211       -2.4145  -20.4591  -50.2115 H         1 UNK         0.0600 
    212 H212       -4.7730  -20.1888  -49.4698 H         1 UNK         0.0600 
    213 H213       -5.3484  -20.8089  -51.0147 H         1 UNK         0.0600 
    214 H214       -4.4732  -19.2805  -50.9396 H         1 UNK         0.0600 
    215 H215       -1.7666  -22.8669  -51.8388 H         1 UNK         0.3000 
    216 H216       -1.0507  -23.5082  -53.7925 H         1 UNK         0.0600 
    217 H217       -0.2970  -21.9014  -55.5177 H         1 UNK         0.0600 
    218 H218        0.2121  -21.3875  -53.9248 H         1 UNK         0.0600 
    219 H219       -1.1540  -20.5931  -54.7203 H         1 UNK         0.0600 
    220 H220       -3.9879  -23.2751  -53.2136 H         1 UNK         0.3000 
    221 H221       -5.9118  -23.8627  -54.0478 H         1 UNK         0.0600 
    222 H222       -4.4649  -24.9141  -56.5372 H         1 UNK         0.0600 
    223 H223       -4.5605  -25.7781  -55.0060 H         1 UNK         0.0600 
    224 H224       -6.0222  -25.4474  -55.9089 H         1 UNK         0.0600 
    225 H225       -6.7930  -23.9238  -56.8470 H         1 UNK         0.3000 
    226 H226       -8.0805  -22.7149  -58.1905 H         1 UNK         0.0600 
    227 H227       -5.8681  -21.9728  -59.1045 H         1 UNK         0.0600 
    228 H228       -7.1077  -20.7426  -59.2984 H         1 UNK         0.0600 
    229 H229       -5.8982  -20.5710  -58.0367 H         1 UNK         0.0600 
    230 H230       -9.0083  -22.7538  -55.7747 H         1 UNK         0.3000 
    231 H231      -10.4104  -21.9768  -54.2690 H         1 UNK         0.0600 
    232 H232      -10.4915  -19.2349  -55.6359 H         1 UNK         0.0600 
    233 H233      -11.5907  -20.5732  -55.9629 H         1 UNK         0.0600 
    234 H234      -11.5602  -19.8211  -54.3757 H         1 UNK         0.0600 
    235 H235       -8.1638  -19.2753  -55.0367 H         1 UNK         0.3000 
    236 H236       -6.4019  -19.8907  -52.9430 H         1 UNK         0.0600 
    237 H237       -8.1077  -17.3694  -52.4732 H         1 UNK         0.0600 
    238 H238       -8.0210  -18.7711  -51.4059 H         1 UNK         0.0600 
    239 H239       -6.6176  -17.7393  -51.6141 H         1 UNK         0.0600 
    240 H240       -4.4348  -18.9717  -53.3756 H         1 UNK         0.3000 
    241 H241       -2.8286  -17.8222  -54.2033 H         1 UNK         0.0600 
    242 H242       -3.6761  -19.5845  -57.5102 H         1 UNK         0.3800 
    243 H243       -4.4443  -19.8515  -55.9654 H         1 UNK         0.3800 
    244 H244       -2.9867  -15.5337  -55.0920 H         1 UNK         0.0800 
    245 H245       -4.7041  -15.6835  -55.2870 H         1 UNK         0.0800 
    246 H246       -1.8206  -14.7139  -53.2995 H         1 UNK         0.0800 
    247 H247       -2.5263  -13.9572  -51.9026 H         1 UNK         0.0800 
@<TRIPOS>BOND
     1    1    2 1    
     2    1  127 1    
     3    1  128 1    
     4    1  129 1    
     5    2    3 2    
     6    2    4 am   BACKBONE|DICT|INTERRES
     7    4    5 1    
     8    4  130 1    
     9    5    6 1    
    10    5   65 1    
    11    5  131 1    
    12    6    7 1    
    13    6  132 1    
    14    6  133 1    
    15    7    8 1    
    16    8    9 1    
    17    8  134 1    
    18    8  135 1    
    19    9   10 ar   
    20    9   14 ar   
    21   10   11 ar   
    22   10  136 1    
    23   11   12 ar   
    24   11  126 1    
    25   12   13 ar   
    26   12  137 1    
    27   13   14 ar   
    28   13   15 1    
    29   14  138 1    
    30   15   16 1    
    31   15  139 1    
    32   15  140 1    
    33   16   17 1    
    34   17   18 1    
    35   17  141 1    
    36   17  142 1    
    37   18   19 1    
    38   18   67 1    
    39   18  143 1    
    40   19   20 am   BACKBONE|DICT|INTERRES
    41   19  144 1    
    42   20   21 2    
    43   20   22 1    
    44   22   23 1    
    45   22   24 1    
    46   22  145 1    
    47   23  146 1    
    48   23  147 1    
    49   23  148 1    
    50   24   25 am   BACKBONE|DICT|INTERRES
    51   24  149 1    
    52   25   26 2    
    53   25   27 1    
    54   27   28 1    
    55   27   29 1    
    56   27  150 1    
    57   28  151 1    
    58   28  152 1    
    59   28  153 1    
    60   29   30 am   BACKBONE|DICT|INTERRES
    61   29  154 1    
    62   30   31 2    
    63   30   32 1    
    64   32   33 1    
    65   32   34 1    
    66   32  155 1    
    67   33  156 1    
    68   33  157 1    
    69   33  158 1    
    70   34   35 am   BACKBONE|DICT|INTERRES
    71   34  159 1    
    72   35   36 2    
    73   35   37 1    
    74   37   38 1    
    75   37   39 1    
    76   37  160 1    
    77   38  161 1    
    78   38  162 1    
    79   38  163 1    
    80   39   40 am   BACKBONE|DICT|INTERRES
    81   39  164 1    
    82   40   41 2    
    83   40   42 1    
    84   42   43 1    
    85   42   44 1    
    86   42  165 1    
    87   43  166 1    
    88   43  167 1    
    89   43  168 1    
    90   44   45 am   BACKBONE|DICT|INTERRES
    91   44  169 1    
    92   45   46 2    
    93   45   47 1    
    94   47   48 1    
    95   47   49 1    
    96   47  170 1    
    97   48  171 1    
    98   48  172 1    
    99   48  173 1    
   100   49   50 am   BACKBONE|DICT|INTERRES
   101   49  174 1    
   102   50   51 2    
   103   50   52 1    
   104   52   53 1    
   105   52   54 1    
   106   52  175 1    
   107   53  176 1    
   108   53  177 1    
   109   53  178 1    
   110   54   55 am   BACKBONE|DICT|INTERRES
   111   54  179 1    
   112   55   56 2    
   113   55   57 1    
   114   57   58 1    
   115   57   59 1    
   116   57  180 1    
   117   58  181 1    
   118   58  182 1    
   119   58  183 1    
   120   59   60 am   BACKBONE|DICT|INTERRES
   121   59  184 1    
   122   60   61 2    
   123   60   62 1    
   124   62   63 1    
   125   62   64 1    
   126   62  185 1    
   127   63  186 1    
   128   63  187 1    
   129   63  188 1    
   130   64   65 am   BACKBONE|DICT|INTERRES
   131   64  189 1    
   132   65   66 2    
   133   67   68 2    
   134   67   69 am   BACKBONE|DICT|INTERRES
   135   69   70 1    
   136   69  190 1    
   137   70   71 1    
   138   70   72 1    
   139   70  191 1    
   140   71  192 1    
   141   71  193 1    
   142   71  194 1    
   143   72   73 2    
   144   72   74 am   BACKBONE|DICT|INTERRES
   145   74   75 1    
   146   74  195 1    
   147   75   76 1    
   148   75   77 1    
   149   75  196 1    
   150   76  197 1    
   151   76  198 1    
   152   76  199 1    
   153   77   78 2    
   154   77   79 am   BACKBONE|DICT|INTERRES
   155   79   80 1    
   156   79  200 1    
   157   80   81 1    
   158   80   82 1    
   159   80  201 1    
   160   81  202 1    
   161   81  203 1    
   162   81  204 1    
   163   82   83 2    
   164   82   84 am   BACKBONE|DICT|INTERRES
   165   84   85 1    
   166   84  205 1    
   167   85   86 1    
   168   85   87 1    
   169   85  206 1    
   170   86  207 1    
   171   86  208 1    
   172   86  209 1    
   173   87   88 2    
   174   87   89 am   BACKBONE|DICT|INTERRES
   175   89   90 1    
   176   89  210 1    
   177   90   91 1    
   178   90   92 1    
   179   90  211 1    
   180   91  212 1    
   181   91  213 1    
   182   91  214 1    
   183   92   93 2    
   184   92   94 am   BACKBONE|DICT|INTERRES
   185   94   95 1    
   186   94  215 1    
   187   95   96 1    
   188   95   97 1    
   189   95  216 1    
   190   96  217 1    
   191   96  218 1    
   192   96  219 1    
   193   97   98 2    
   194   97   99 am   BACKBONE|DICT|INTERRES
   195   99  100 1    
   196   99  220 1    
   197  100  101 1    
   198  100  102 1    
   199  100  221 1    
   200  101  222 1    
   201  101  223 1    
   202  101  224 1    
   203  102  103 2    
   204  102  104 am   BACKBONE|DICT|INTERRES
   205  104  105 1    
   206  104  225 1    
   207  105  106 1    
   208  105  107 1    
   209  105  226 1    
   210  106  227 1    
   211  106  228 1    
   212  106  229 1    
   213  107  108 2    
   214  107  109 am   BACKBONE|DICT|INTERRES
   215  109  110 1    
   216  109  230 1    
   217  110  111 1    
   218  110  112 1    
   219  110  231 1    
   220  111  232 1    
   221  111  233 1    
   222  111  234 1    
   223  112  113 2    
   224  112  114 am   BACKBONE|DICT|INTERRES
   225  114  115 1    
   226  114  235 1    
   227  115  116 1    
   228  115  117 1    
   229  115  236 1    
   230  116  237 1    
   231  116  238 1    
   232  116  239 1    
   233  117  118 2    
   234  117  119 am   BACKBONE|DICT|INTERRES
   235  119  120 1    
   236  119  240 1    
   237  120  121 1    
   238  120  124 1    
   239  120  241 1    
   240  121  122 am   BACKBONE|DICT|INTERRES
   241  121  123 2    
   242  122  242 1    
   243  122  243 1    
   244  124  125 1    
   245  124  244 1    
   246  124  245 1    
   247  125  126 1    
   248  126  246 1    
   249  126  247 1    
@<TRIPOS>SUBSTRUCTURE
     1 UNK         1 GROUP             0       ****    0 ROOT    
