@<TRIPOS>MOLECULE
3R540
247   249    1
SMALL
USER_CHARGES


@<TRIPOS>ATOM
      1 CA          2.0841  -13.2937  -47.9990 C.3       0 UNK        -0.1800 
      2 C           0.6429  -12.8543  -47.7821 C.2       0 UNK         0.5000 
      3 O           0.2508  -11.7861  -48.2507 O.2       0 UNK        -0.5000 
      4 N          -0.1406  -13.6790  -47.0743 N.am      1 UNK        -0.5000 
      5 CA         -1.5539  -13.4530  -46.7381 C.3       1 UNK         0.1400 
      6 C6         -2.4789  -13.4252  -47.9883 C.3       23 UNK        -0.0398 
      7 S7         -4.1833  -14.0231  -47.6903 S.3       23 UNK        -0.2404 
      8 C8         -3.9757  -15.7704  -47.1996 C.3       23 UNK        -0.0205 
      9 C9         -3.2728  -16.6116  -48.2547 C.ar      23 UNK        -0.0193 
     10 C10        -4.0090  -17.2766  -49.2389 C.ar      23 UNK        -0.1150 
     11 C11        -3.3662  -18.0917  -50.1763 C.ar      23 UNK        -0.0193 
     12 C12        -1.9732  -18.2100  -50.1462 C.ar      23 UNK        -0.1150 
     13 C13        -1.2270  -17.5420  -49.1718 C.ar      23 UNK        -0.0193 
     14 C14        -1.8847  -16.7606  -48.2207 C.ar      23 UNK        -0.1150 
     15 C15         0.2889  -17.6446  -49.1412 C.3       23 UNK        -0.0205 
     16 S16         0.8697  -18.7483  -47.8172 S.3       23 UNK        -0.2404 
     17 C17         0.6858  -20.3930  -48.5820 C.3       23 UNK        -0.0398 
     18 CA         -0.2564  -21.3690  -47.8373 C.3       11 UNK         0.1400 
     19 N           0.0617  -21.5285  -46.4149 N.am      11 UNK        -0.5000 
     20 C          -0.1429  -22.6694  -45.7411 C.2       10 UNK         0.5000 
     21 O          -0.5589  -23.7045  -46.2607 O.2       10 UNK        -0.5000 
     22 CA          0.1409  -22.6553  -44.2316 C.3       10 UNK         0.1400 
     23 CB          1.6300  -22.9065  -43.9476 C.3       10 UNK        -0.1800 
     24 N          -0.2823  -21.4071  -43.6004 N.am      10 UNK        -0.5000 
     25 C          -1.5599  -21.0804  -43.3620 C.2       9 UNK         0.5000 
     26 O          -2.5160  -21.7830  -43.6908 O.2       9 UNK        -0.5000 
     27 CA         -1.8155  -19.7392  -42.6482 C.3       9 UNK         0.1400 
     28 CB         -1.7959  -19.9291  -41.1243 C.3       9 UNK        -0.1800 
     29 N          -0.8550  -18.6979  -43.0143 N.am      9 UNK        -0.5000 
     30 C          -0.7808  -18.1443  -44.2314 C.2       8 UNK         0.5000 
     31 O          -1.5157  -18.4533  -45.1659 O.2       8 UNK        -0.5000 
     32 CA          0.3202  -17.0928  -44.4521 C.3       8 UNK         0.1400 
     33 CB         -0.1463  -15.7214  -43.9422 C.3       8 UNK        -0.1800 
     34 N           1.6104  -17.4128  -43.8368 N.am      8 UNK        -0.5000 
     35 C           2.2897  -18.5662  -43.9323 C.2       7 UNK         0.5000 
     36 O           1.8754  -19.5568  -44.5343 O.2       7 UNK        -0.5000 
     37 CA          3.6645  -18.6349  -43.2370 C.3       7 UNK         0.1400 
     38 CB          4.7801  -18.8390  -44.2738 C.3       7 UNK        -0.1800 
     39 N           3.9826  -17.4478  -42.4400 N.am      7 UNK        -0.5000 
     40 C           3.4764  -17.1396  -41.2411 C.2       6 UNK         0.5000 
     41 O           2.6584  -17.8450  -40.6507 O.2       6 UNK        -0.5000 
     42 CA          3.9293  -15.8070  -40.6087 C.3       6 UNK         0.1400 
     43 CB          5.2934  -15.9597  -39.9107 C.3       6 UNK        -0.1800 
     44 N           3.9239  -14.6530  -41.5214 N.am      6 UNK        -0.5000 
     45 C           4.6748  -14.4154  -42.6097 C.2       5 UNK         0.5000 
     46 O           5.5162  -15.1995  -43.0496 O.2       5 UNK        -0.5000 
     47 CA          4.4356  -13.0850  -43.3487 C.3       5 UNK         0.1400 
     48 CB          3.5697  -13.3136  -44.5979 C.3       5 UNK        -0.1800 
     49 N           3.8051  -12.0731  -42.4975 N.am      5 UNK        -0.5000 
     50 C           4.4686  -11.3432  -41.5869 C.2       4 UNK         0.5000 
     51 O           5.6852  -11.4215  -41.4117 O.2       4 UNK        -0.5000 
     52 CA          3.6520  -10.3632  -40.7192 C.3       4 UNK         0.1400 
     53 CB          3.7668   -8.9351  -41.2743 C.3       4 UNK        -0.1800 
     54 N           2.2351  -10.7095  -40.6044 N.am      4 UNK        -0.5000 
     55 C           1.7475  -11.7926  -39.9839 C.2       3 UNK         0.5000 
     56 O           2.4463  -12.6229  -39.4025 O.2       3 UNK        -0.5000 
     57 CA          0.2238  -12.0099  -40.0770 C.3       3 UNK         0.1400 
     58 CB         -0.4820  -11.3975  -38.8578 C.3       3 UNK        -0.1800 
     59 N          -0.3809  -11.4751  -41.3042 N.am      3 UNK        -0.5000 
     60 C          -0.0560  -11.8643  -42.5434 C.2       2 UNK         0.5000 
     61 O           0.8349  -12.6820  -42.7907 O.2       2 UNK        -0.5000 
     62 CA         -0.8181  -11.2089  -43.7008 C.3       2 UNK         0.1400 
     63 CB         -0.1445   -9.8937  -44.1266 C.3       2 UNK        -0.1800 
     64 N          -0.8105  -12.1488  -44.8124 N.am      2 UNK        -0.5000 
     65 C          -1.7454  -12.2684  -45.7607 C.2       1 UNK         0.5000 
     66 O          -2.7127  -11.5119  -45.8609 O.2       1 UNK        -0.5000 
     67 C          -1.7523  -21.0853  -48.0835 C.2       11 UNK         0.5000 
     68 O          -2.2382  -21.3967  -49.1695 O.2       11 UNK        -0.5000 
     69 N          -2.4745  -20.5514  -47.0864 N.am      12 UNK        -0.5000 
     70 CA         -3.9297  -20.3975  -47.1374 C.3       12 UNK         0.1400 
     71 CB         -4.4078  -19.4757  -46.0067 C.3       12 UNK        -0.1800 
     72 C          -4.6676  -21.7459  -47.0724 C.2       12 UNK         0.5000 
     73 O          -5.6575  -21.9228  -47.7846 O.2       12 UNK        -0.5000 
     74 N          -4.1722  -22.6679  -46.2314 N.am      13 UNK        -0.5000 
     75 CA         -4.7128  -24.0113  -46.0084 C.3       13 UNK         0.1400 
     76 CB         -3.8500  -24.7402  -44.9666 C.3       13 UNK        -0.1800 
     77 C          -4.8145  -24.8227  -47.3137 C.2       13 UNK         0.5000 
     78 O          -3.7886  -25.2090  -47.8784 O.2       13 UNK        -0.5000 
     79 N          -6.0537  -24.9967  -47.7989 N.am      14 UNK        -0.5000 
     80 CA         -6.4337  -25.6262  -49.0718 C.3       14 UNK         0.1400 
     81 CB         -6.1678  -27.1455  -49.0164 C.3       14 UNK        -0.1800 
     82 C          -5.7855  -24.9647  -50.3097 C.2       14 UNK         0.5000 
     83 O          -5.5888  -25.6337  -51.3252 O.2       14 UNK        -0.5000 
     84 N          -5.4101  -23.6814  -50.1873 N.am      15 UNK        -0.5000 
     85 CA         -4.5938  -22.9110  -51.1306 C.3       15 UNK         0.1400 
     86 CB         -5.4095  -22.5519  -52.3892 C.3       15 UNK        -0.1800 
     87 C          -3.2470  -23.5979  -51.4536 C.2       15 UNK         0.5000 
     88 O          -2.8366  -23.6291  -52.6146 O.2       15 UNK        -0.5000 
     89 N          -2.6137  -24.1790  -50.4222 N.am      16 UNK        -0.5000 
     90 CA         -1.3820  -24.9728  -50.4684 C.3       16 UNK         0.1400 
     91 CB         -0.1934  -24.1221  -50.9680 C.3       16 UNK        -0.1800 
     92 C          -1.5709  -26.2736  -51.2758 C.2       16 UNK         0.5000 
     93 O          -0.6921  -26.6535  -52.0487 O.2       16 UNK        -0.5000 
     94 N          -2.7437  -26.9059  -51.1142 N.am      17 UNK        -0.5000 
     95 CA         -3.2611  -28.0207  -51.9188 C.3       17 UNK         0.1400 
     96 CB         -2.4298  -29.3020  -51.7005 C.3       17 UNK        -0.1800 
     97 C          -3.3989  -27.6189  -53.4036 C.2       17 UNK         0.5000 
     98 O          -2.9160  -28.3194  -54.2943 O.2       17 UNK        -0.5000 
     99 N          -4.0228  -26.4518  -53.6146 N.am      18 UNK        -0.5000 
    100 CA        -4.2475  -25.7320  -54.8730 C.3       18 UNK         0.1400 
    101 CB        -5.0806  -26.5801  -55.8548 C.3       18 UNK        -0.1800 
    102 C         -2.9835  -25.1536  -55.5478 C.2       18 UNK         0.5000 
    103 O         -3.1194  -24.4835  -56.5728 O.2       18 UNK        -0.5000 
    104 N         -1.7881  -25.3739  -54.9806 N.am      19 UNK        -0.5000 
    105 CA        -0.5086  -24.9329  -55.5431 C.3       19 UNK         0.1400 
    106 CB         0.6459  -25.6414  -54.8206 C.3       19 UNK        -0.1800 
    107 C         -0.2995  -23.4064  -55.5203 C.2       19 UNK         0.5000 
    108 O          0.4543  -22.8979  -56.3514 O.2       19 UNK        -0.5000 
    109 N         -0.9650  -22.6963  -54.5967 N.am      20 UNK        -0.5000 
    110 CA        -0.9348  -21.2324  -54.5190 C.3       20 UNK         0.1400 
    111 CB        -1.3641  -20.7826  -53.1151 C.3       20 UNK        -0.1800 
    112 C         -1.8194  -20.5603  -55.5880 C.2       20 UNK         0.5000 
    113 O         -1.6248  -19.3777  -55.8697 O.2       20 UNK        -0.5000 
    114 N         -2.7688  -21.3222  -56.1555 N.am      21 UNK        -0.5000 
    115 CA        -3.7129  -20.9375  -57.2107 C.3       21 UNK         0.1400 
    116 CB        -2.9655  -20.6600  -58.5319 C.3       21 UNK        -0.1800 
    117 C         -4.6771  -19.7965  -56.8139 C.2       21 UNK         0.5000 
    118 O         -5.1462  -19.0601  -57.6844 O.2       21 UNK        -0.5000 
    119 N         -4.9684  -19.6758  -55.5118 N.am      22 UNK        -0.5000 
    120 CA        -5.9541  -18.7371  -54.9538 C.3       22 UNK         0.1400 
    121 C         -7.4060  -19.0648  -55.4049 C.2       22 UNK         0.5000 
    122 N         -8.2279  -18.0548  -55.6554 N.am      22 UNK        -0.7600 
    123 O         -7.8058  -20.2244  -55.4866 O.2       22 UNK        -0.5000 
    124 C124       -5.8821  -18.6798  -53.4076 C.3       23 UNK        -0.0398 
    125 S125       -4.3014  -18.0147  -52.7842 S.3       23 UNK        -0.2404 
    126 C126       -4.1837  -18.8775  -51.1881 C.3       23 UNK        -0.0205 
    127 H127        2.2726  -13.4475  -49.0614 H         1 UNK         0.0600 
    128 H128        2.3096  -14.2231  -47.4753 H         1 UNK         0.0600 
    129 H129        2.7688  -12.5262  -47.6383 H         1 UNK         0.0600 
    130 H130        0.2575  -14.5390  -46.7281 H         1 UNK         0.3000 
    131 H131       -1.8229  -14.3269  -46.1511 H         1 UNK         0.0600 
    132 H132       -2.0572  -14.0394  -48.7843 H         1 UNK         0.0800 
    133 H133       -2.5291  -12.4191  -48.4077 H         1 UNK         0.0800 
    134 H134       -3.4483  -15.8409  -46.2482 H         1 UNK         0.0800 
    135 H135       -4.9655  -16.1877  -47.0087 H         1 UNK         0.0800 
    136 H136       -5.0854  -17.1793  -49.2592 H         1 UNK         0.1150 
    137 H137       -1.4731  -18.8369  -50.8689 H         1 UNK         0.1150 
    138 H138       -1.3094  -16.2717  -47.4500 H         1 UNK         0.1150 
    139 H139        0.6798  -17.9742  -50.1050 H         1 UNK         0.0800 
    140 H140        0.7075  -16.6513  -48.9726 H         1 UNK         0.0800 
    141 H141        1.6830  -20.8328  -48.6216 H         1 UNK         0.0800 
    142 H142        0.3782  -20.2918  -49.6242 H         1 UNK         0.0800 
    143 H143       -0.0818  -22.3371  -48.3095 H         1 UNK         0.0600 
    144 H144        0.4300  -20.7177  -45.9308 H         1 UNK         0.3000 
    145 H145       -0.4261  -23.4727  -43.7802 H         1 UNK         0.0600 
    146 H146        1.8320  -22.9165  -42.8765 H         1 UNK         0.0600 
    147 H147        1.9419  -23.8726  -44.3461 H         1 UNK         0.0600 
    148 H148        2.2663  -22.1474  -44.4026 H         1 UNK         0.0600 
    149 H149        0.4441  -20.7307  -43.4035 H         1 UNK         0.3000 
    150 H150       -2.8121  -19.3969  -42.9347 H         1 UNK         0.0600 
    151 H151       -2.5167  -20.6878  -40.8162 H         1 UNK         0.0600 
    152 H152       -2.0577  -19.0052  -40.6083 H         1 UNK         0.0600 
    153 H153       -0.8139  -20.2455  -40.7702 H         1 UNK         0.0600 
    154 H154       -0.2017  -18.4008  -42.3040 H         1 UNK         0.3000 
    155 H155        0.4826  -17.0152  -45.5273 H         1 UNK         0.0600 
    156 H156       -1.1549  -15.4922  -44.2858 H         1 UNK         0.0600 
    157 H157        0.5107  -14.9292  -44.2969 H         1 UNK         0.0600 
    158 H158       -0.1610  -15.6794  -42.8524 H         1 UNK         0.0600 
    159 H159        2.0466  -16.6721  -43.3096 H         1 UNK         0.3000 
    160 H160        3.6483  -19.5030  -42.5750 H         1 UNK         0.0600 
    161 H161        5.7508  -18.9536  -43.7910 H         1 UNK         0.0600 
    162 H162        4.8455  -17.9962  -44.9631 H         1 UNK         0.0600 
    163 H163        4.6063  -19.7374  -44.8678 H         1 UNK         0.0600 
    164 H164        4.6473  -16.7893  -42.8416 H         1 UNK         0.3000 
    165 H165        3.1966  -15.5666  -39.8365 H         1 UNK         0.0600 
    166 H166        6.0876  -16.2117  -40.6139 H         1 UNK         0.0600 
    167 H167        5.5776  -15.0398  -39.3995 H         1 UNK         0.0600 
    168 H168        5.2599  -16.7513  -39.1612 H         1 UNK         0.0600 
    169 H169        3.2678  -13.9275  -41.2641 H         1 UNK         0.3000 
    170 H170        5.4068  -12.7103  -43.6792 H         1 UNK         0.0600 
    171 H171        4.0762  -13.9702  -45.3063 H         1 UNK         0.0600 
    172 H172        2.6166  -13.7789  -44.3506 H         1 UNK         0.0600 
    173 H173        3.3628  -12.3758  -45.1137 H         1 UNK         0.0600 
    174 H174        2.7976  -11.9874  -42.5689 H         1 UNK         0.3000 
    175 H175        4.0838  -10.3775  -39.7163 H         1 UNK         0.0600 
    176 H176        3.3296   -8.8546  -42.2704 H         1 UNK         0.0600 
    177 H177        3.2628   -8.2176  -40.6264 H         1 UNK         0.0600 
    178 H178        4.8105   -8.6263  -41.3478 H         1 UNK         0.0600 
    179 H179        1.5811  -10.0898  -41.0589 H         1 UNK         0.3000 
    180 H180        0.0496  -13.0879  -40.0667 H         1 UNK         0.0600 
    181 H181       -0.3705  -10.3128  -38.8309 H         1 UNK         0.0600 
    182 H182       -0.0703  -11.7931  -37.9282 H         1 UNK         0.0600 
    183 H183       -1.5478  -11.6265  -38.8621 H         1 UNK         0.0600 
    184 H184       -1.1115  -10.7887  -41.1810 H         1 UNK         0.3000 
    185 H185       -1.8456  -11.0179  -43.3839 H         1 UNK         0.0600 
    186 H186       -0.1344   -9.1739  -43.3074 H         1 UNK         0.0600 
    187 H187        0.8885  -10.0545  -44.4384 H         1 UNK         0.0600 
    188 H188       -0.6753   -9.4309  -44.9588 H         1 UNK         0.0600 
    189 H189       -0.0501  -12.8147  -44.7715 H         1 UNK         0.3000 
    190 H190       -2.0052  -20.2103  -46.2561 H         1 UNK         0.3000 
    191 H191       -4.1896  -19.9272  -48.0869 H         1 UNK         0.0600 
    192 H192       -4.1440  -19.8701  -45.0254 H         1 UNK         0.0600 
    193 H193       -3.9703  -18.4831  -46.0977 H         1 UNK         0.0600 
    194 H194       -5.4912  -19.3534  -46.0332 H         1 UNK         0.0600 
    195 H195       -3.3656  -22.4185  -45.6726 H         1 UNK         0.3000 
    196 H196       -5.7138  -23.8951  -45.5884 H         1 UNK         0.0600 
    197 H197       -3.8454  -24.2083  -44.0151 H         1 UNK         0.0600 
    198 H198       -2.8164  -24.8409  -45.2984 H         1 UNK         0.0600 
    199 H199       -4.2324  -25.7437  -44.7760 H         1 UNK         0.0600 
    200 H200       -6.8211  -24.5923  -47.2798 H         1 UNK         0.3000 
    201 H201       -7.5091  -25.4799  -49.1808 H         1 UNK         0.0600 
    202 H202       -6.5624  -27.6474  -49.9006 H         1 UNK         0.0600 
    203 H203       -6.6492  -27.5974  -48.1493 H         1 UNK         0.0600 
    204 H204       -5.1021  -27.3696  -48.9611 H         1 UNK         0.0600 
    205 H205       -5.6103  -23.2107  -49.3092 H         1 UNK         0.3000 
    206 H206       -4.3467  -21.9804  -50.6217 H         1 UNK         0.0600 
    207 H207       -6.3139  -22.0043  -52.1251 H         1 UNK         0.0600 
    208 H208       -5.7109  -23.4398  -52.9435 H         1 UNK         0.0600 
    209 H209       -4.8330  -21.9212  -53.0663 H         1 UNK         0.0600 
    210 H210       -3.0564  -24.1404  -49.5105 H         1 UNK         0.3000 
    211 H211       -1.1716  -25.2693  -49.4398 H         1 UNK         0.0600 
    212 H212       -0.1327  -23.1721  -50.4404 H         1 UNK         0.0600 
    213 H213        0.7508  -24.6450  -50.8140 H         1 UNK         0.0600 
    214 H214       -0.2709  -23.8997  -52.0318 H         1 UNK         0.0600 
    215 H215       -3.4076  -26.4883  -50.4769 H         1 UNK         0.3000 
    216 H216       -4.2716  -28.2195  -51.5585 H         1 UNK         0.0600 
    217 H217       -2.8878  -30.1519  -52.2076 H         1 UNK         0.0600 
    218 H218       -1.4147  -29.2028  -52.0857 H         1 UNK         0.0600 
    219 H219       -2.3639  -29.5524  -50.6419 H         1 UNK         0.0600 
    220 H220       -4.4024  -25.9869  -52.7935 H         1 UNK         0.3000 
    221 H221       -4.8518  -24.8660  -54.6038 H         1 UNK         0.0600 
    222 H222       -4.5211  -27.4384  -56.2273 H         1 UNK         0.0600 
    223 H223       -5.9906  -26.9501  -55.3824 H         1 UNK         0.0600 
    224 H224       -5.3833  -25.9907  -56.7210 H         1 UNK         0.0600 
    225 H225       -1.7491  -25.8986  -54.1172 H         1 UNK         0.3000 
    226 H226       -0.4878  -25.2465  -56.5889 H         1 UNK         0.0600 
    227 H227        0.5063  -26.7227  -54.8109 H         1 UNK         0.0600 
    228 H228        1.5961  -25.4396  -55.3164 H         1 UNK         0.0600 
    229 H229        0.7417  -25.3041  -53.7887 H         1 UNK         0.0600 
    230 H230       -1.5773  -23.1765  -53.9397 H         1 UNK         0.3000 
    231 H231        0.0916  -20.8957  -54.6790 H         1 UNK         0.0600 
    232 H232       -0.7577  -21.2501  -52.3392 H         1 UNK         0.0600 
    233 H233       -2.4078  -21.0246  -52.9204 H         1 UNK         0.0600 
    234 H234       -1.2572  -19.7027  -53.0107 H         1 UNK         0.0600 
    235 H235       -2.8153  -22.2931  -55.8736 H         1 UNK         0.3000 
    236 H236       -4.3442  -21.8121  -57.3742 H         1 UNK         0.0600 
    237 H237       -2.3075  -21.4892  -58.7928 H         1 UNK         0.0600 
    238 H238       -3.6644  -20.5308  -59.3590 H         1 UNK         0.0600 
    239 H239       -2.3591  -19.7559  -58.4721 H         1 UNK         0.0600 
    240 H240       -4.5365  -20.3142  -54.8628 H         1 UNK         0.3000 
    241 H241       -5.7044  -17.7459  -55.3381 H         1 UNK         0.0600 
    242 H242       -9.1765  -18.2534  -55.9343 H         1 UNK         0.3800 
    243 H243       -7.9246  -17.0951  -55.5893 H         1 UNK         0.3800 
    244 H244       -6.6735  -18.0408  -53.0111 H         1 UNK         0.0800 
    245 H245       -6.0556  -19.6714  -52.9881 H         1 UNK         0.0800 
    246 H246       -3.7328  -19.8570  -51.3422 H         1 UNK         0.0800 
    247 H247       -5.1823  -19.0591  -50.7873 H         1 UNK         0.0800 
@<TRIPOS>BOND
     1    1    2 1    
     2    1  127 1    
     3    1  128 1    
     4    1  129 1    
     5    2    3 2    
     6    2    4 am   BACKBONE|DICT|INTERRES
     7    4    5 1    
     8    4  130 1    
     9    5    6 1    
    10    5   65 1    
    11    5  131 1    
    12    6    7 1    
    13    6  132 1    
    14    6  133 1    
    15    7    8 1    
    16    8    9 1    
    17    8  134 1    
    18    8  135 1    
    19    9   10 ar   
    20    9   14 ar   
    21   10   11 ar   
    22   10  136 1    
    23   11   12 ar   
    24   11  126 1    
    25   12   13 ar   
    26   12  137 1    
    27   13   14 ar   
    28   13   15 1    
    29   14  138 1    
    30   15   16 1    
    31   15  139 1    
    32   15  140 1    
    33   16   17 1    
    34   17   18 1    
    35   17  141 1    
    36   17  142 1    
    37   18   19 1    
    38   18   67 1    
    39   18  143 1    
    40   19   20 am   BACKBONE|DICT|INTERRES
    41   19  144 1    
    42   20   21 2    
    43   20   22 1    
    44   22   23 1    
    45   22   24 1    
    46   22  145 1    
    47   23  146 1    
    48   23  147 1    
    49   23  148 1    
    50   24   25 am   BACKBONE|DICT|INTERRES
    51   24  149 1    
    52   25   26 2    
    53   25   27 1    
    54   27   28 1    
    55   27   29 1    
    56   27  150 1    
    57   28  151 1    
    58   28  152 1    
    59   28  153 1    
    60   29   30 am   BACKBONE|DICT|INTERRES
    61   29  154 1    
    62   30   31 2    
    63   30   32 1    
    64   32   33 1    
    65   32   34 1    
    66   32  155 1    
    67   33  156 1    
    68   33  157 1    
    69   33  158 1    
    70   34   35 am   BACKBONE|DICT|INTERRES
    71   34  159 1    
    72   35   36 2    
    73   35   37 1    
    74   37   38 1    
    75   37   39 1    
    76   37  160 1    
    77   38  161 1    
    78   38  162 1    
    79   38  163 1    
    80   39   40 am   BACKBONE|DICT|INTERRES
    81   39  164 1    
    82   40   41 2    
    83   40   42 1    
    84   42   43 1    
    85   42   44 1    
    86   42  165 1    
    87   43  166 1    
    88   43  167 1    
    89   43  168 1    
    90   44   45 am   BACKBONE|DICT|INTERRES
    91   44  169 1    
    92   45   46 2    
    93   45   47 1    
    94   47   48 1    
    95   47   49 1    
    96   47  170 1    
    97   48  171 1    
    98   48  172 1    
    99   48  173 1    
   100   49   50 am   BACKBONE|DICT|INTERRES
   101   49  174 1    
   102   50   51 2    
   103   50   52 1    
   104   52   53 1    
   105   52   54 1    
   106   52  175 1    
   107   53  176 1    
   108   53  177 1    
   109   53  178 1    
   110   54   55 am   BACKBONE|DICT|INTERRES
   111   54  179 1    
   112   55   56 2    
   113   55   57 1    
   114   57   58 1    
   115   57   59 1    
   116   57  180 1    
   117   58  181 1    
   118   58  182 1    
   119   58  183 1    
   120   59   60 am   BACKBONE|DICT|INTERRES
   121   59  184 1    
   122   60   61 2    
   123   60   62 1    
   124   62   63 1    
   125   62   64 1    
   126   62  185 1    
   127   63  186 1    
   128   63  187 1    
   129   63  188 1    
   130   64   65 am   BACKBONE|DICT|INTERRES
   131   64  189 1    
   132   65   66 2    
   133   67   68 2    
   134   67   69 am   BACKBONE|DICT|INTERRES
   135   69   70 1    
   136   69  190 1    
   137   70   71 1    
   138   70   72 1    
   139   70  191 1    
   140   71  192 1    
   141   71  193 1    
   142   71  194 1    
   143   72   73 2    
   144   72   74 am   BACKBONE|DICT|INTERRES
   145   74   75 1    
   146   74  195 1    
   147   75   76 1    
   148   75   77 1    
   149   75  196 1    
   150   76  197 1    
   151   76  198 1    
   152   76  199 1    
   153   77   78 2    
   154   77   79 am   BACKBONE|DICT|INTERRES
   155   79   80 1    
   156   79  200 1    
   157   80   81 1    
   158   80   82 1    
   159   80  201 1    
   160   81  202 1    
   161   81  203 1    
   162   81  204 1    
   163   82   83 2    
   164   82   84 am   BACKBONE|DICT|INTERRES
   165   84   85 1    
   166   84  205 1    
   167   85   86 1    
   168   85   87 1    
   169   85  206 1    
   170   86  207 1    
   171   86  208 1    
   172   86  209 1    
   173   87   88 2    
   174   87   89 am   BACKBONE|DICT|INTERRES
   175   89   90 1    
   176   89  210 1    
   177   90   91 1    
   178   90   92 1    
   179   90  211 1    
   180   91  212 1    
   181   91  213 1    
   182   91  214 1    
   183   92   93 2    
   184   92   94 am   BACKBONE|DICT|INTERRES
   185   94   95 1    
   186   94  215 1    
   187   95   96 1    
   188   95   97 1    
   189   95  216 1    
   190   96  217 1    
   191   96  218 1    
   192   96  219 1    
   193   97   98 2    
   194   97   99 am   BACKBONE|DICT|INTERRES
   195   99  100 1    
   196   99  220 1    
   197  100  101 1    
   198  100  102 1    
   199  100  221 1    
   200  101  222 1    
   201  101  223 1    
   202  101  224 1    
   203  102  103 2    
   204  102  104 am   BACKBONE|DICT|INTERRES
   205  104  105 1    
   206  104  225 1    
   207  105  106 1    
   208  105  107 1    
   209  105  226 1    
   210  106  227 1    
   211  106  228 1    
   212  106  229 1    
   213  107  108 2    
   214  107  109 am   BACKBONE|DICT|INTERRES
   215  109  110 1    
   216  109  230 1    
   217  110  111 1    
   218  110  112 1    
   219  110  231 1    
   220  111  232 1    
   221  111  233 1    
   222  111  234 1    
   223  112  113 2    
   224  112  114 am   BACKBONE|DICT|INTERRES
   225  114  115 1    
   226  114  235 1    
   227  115  116 1    
   228  115  117 1    
   229  115  236 1    
   230  116  237 1    
   231  116  238 1    
   232  116  239 1    
   233  117  118 2    
   234  117  119 am   BACKBONE|DICT|INTERRES
   235  119  120 1    
   236  119  240 1    
   237  120  121 1    
   238  120  124 1    
   239  120  241 1    
   240  121  122 am   BACKBONE|DICT|INTERRES
   241  121  123 2    
   242  122  242 1    
   243  122  243 1    
   244  124  125 1    
   245  124  244 1    
   246  124  245 1    
   247  125  126 1    
   248  126  246 1    
   249  126  247 1    
@<TRIPOS>SUBSTRUCTURE
     1 UNK         1 GROUP             0       ****    0 ROOT    
