@<TRIPOS>MOLECULE
3R540
247   249    1
SMALL
USER_CHARGES


@<TRIPOS>ATOM
      1 CA          0.5133  -19.0398  -42.8017 C.3       0 UNK        -0.1800 
      2 C          -0.6513  -19.0803  -43.7810 C.2       0 UNK         0.5000 
      3 O          -1.7509  -19.4776  -43.3977 O.2       0 UNK        -0.5000 
      4 N          -0.4105  -18.6903  -45.0393 N.am      1 UNK        -0.5000 
      5 CA         -1.3974  -18.6663  -46.1244 C.3       1 UNK         0.1400 
      6 C6         -0.7486  -18.3629  -47.4978 C.3       23 UNK        -0.0398 
      7 S7          0.3475  -16.8994  -47.5102 S.3       23 UNK        -0.2404 
      8 C8          0.8557  -16.7959  -49.2596 C.3       23 UNK        -0.0205 
      9 C9          1.4213  -18.1034  -49.8016 C.ar      23 UNK        -0.0193 
     10 C10         0.9425  -18.6193  -51.0074 C.ar      23 UNK        -0.1150 
     11 C11         1.4142  -19.8393  -51.4959 C.ar      23 UNK        -0.0193 
     12 C12         2.3579  -20.5563  -50.7551 C.ar      23 UNK        -0.1150 
     13 C13         2.8554  -20.0544  -49.5475 C.ar      23 UNK        -0.0193 
     14 C14         2.4055  -18.8057  -49.0986 C.ar      23 UNK        -0.1150 
     15 C15         3.8745  -20.8943  -48.7733 C.3       23 UNK        -0.0205 
     16 S16         4.0821  -20.4955  -46.9997 S.3       23 UNK        -0.2404 
     17 C17         2.4130  -20.7955  -46.3207 C.3       23 UNK        -0.0398 
     18 CA          2.0740  -22.2845  -46.0718 C.3       11 UNK         0.1400 
     19 N           3.0930  -22.9621  -45.2679 N.am      11 UNK        -0.5000 
     20 C           3.3728  -24.2709  -45.3320 C.2       10 UNK         0.5000 
     21 O           2.7710  -25.0579  -46.0632 O.2       10 UNK        -0.5000 
     22 CA          4.5063  -24.7969  -44.4270 C.3       10 UNK         0.1400 
     23 CB          5.8102  -24.9257  -45.2292 C.3       10 UNK        -0.1800 
     24 N           4.7563  -23.9549  -43.2558 N.am      10 UNK        -0.5000 
     25 C           3.9046  -23.7876  -42.2350 C.2       9 UNK         0.5000 
     26 O           2.8332  -24.3849  -42.1387 O.2       9 UNK        -0.5000 
     27 CA          4.2907  -22.7396  -41.1717 C.3       9 UNK         0.1400 
     28 CB          5.0060  -23.4115  -39.9902 C.3       9 UNK        -0.1800 
     29 N           5.1280  -21.6473  -41.6844 N.am      9 UNK        -0.5000 
     30 C           4.7653  -20.7942  -42.6517 C.2       8 UNK         0.5000 
     31 O           3.6947  -20.8706  -43.2587 O.2       8 UNK        -0.5000 
     32 CA          5.7964  -19.7167  -43.0400 C.3       8 UNK         0.1400 
     33 CB          6.8151  -20.2913  -44.0369 C.3       8 UNK        -0.1800 
     34 N           5.1616  -18.5404  -43.6377 N.am      8 UNK        -0.5000 
     35 C           4.3606  -17.6968  -42.9753 C.2       7 UNK         0.5000 
     36 O           4.1594  -17.7694  -41.7582 O.2       7 UNK        -0.5000 
     37 CA          3.6597  -16.5928  -43.7913 C.3       7 UNK         0.1400 
     38 CB          3.1859  -17.0814  -45.1803 C.3       7 UNK        -0.1800 
     39 N           2.5525  -16.1047  -42.9710 N.am      7 UNK        -0.5000 
     40 C           1.7018  -15.1091  -43.2294 C.2       6 UNK         0.5000 
     41 O           1.6972  -14.4432  -44.2662 O.2       6 UNK        -0.5000 
     42 CA          0.6940  -14.7817  -42.1206 C.3       6 UNK         0.1400 
     43 CB          1.1695  -13.5760  -41.2887 C.3       6 UNK        -0.1800 
     44 N          -0.5941  -14.5033  -42.7416 N.am      6 UNK        -0.5000 
     45 C          -1.7815  -14.4774  -42.1257 C.2       5 UNK         0.5000 
     46 O          -1.9183  -14.6635  -40.9156 O.2       5 UNK        -0.5000 
     47 CA         -3.0343  -14.2495  -42.9990 C.3       5 UNK         0.1400 
     48 CB         -3.9949  -13.2015  -42.4009 C.3       5 UNK        -0.1800 
     49 N          -2.7348  -13.9777  -44.4090 N.am      5 UNK        -0.5000 
     50 C          -2.2300  -12.8680  -44.9682 C.2       4 UNK         0.5000 
     51 O          -1.9813  -11.8316  -44.3527 O.2       4 UNK        -0.5000 
     52 CA         -1.9260  -12.9419  -46.4753 C.3       4 UNK         0.1400 
     53 CB         -0.4648  -13.3568  -46.6974 C.3       4 UNK        -0.1800 
     54 N          -2.7993  -13.8936  -47.1661 N.am      4 UNK        -0.5000 
     55 C          -3.9725  -13.5689  -47.7266 C.2       3 UNK         0.5000 
     56 O          -4.4235  -12.4233  -47.7596 O.2       3 UNK        -0.5000 
     57 CA         -4.7854  -14.7195  -48.3517 C.3       3 UNK         0.1400 
     58 CB         -4.3281  -14.9795  -49.7952 C.3       3 UNK        -0.1800 
     59 N          -4.7063  -15.9581  -47.5719 N.am      3 UNK        -0.5000 
     60 C          -5.2770  -16.1195  -46.3686 C.2       2 UNK         0.5000 
     61 O          -5.9824  -15.2661  -45.8305 O.2       2 UNK        -0.5000 
     62 CA         -5.0122  -17.4431  -45.6246 C.3       2 UNK         0.1400 
     63 CB         -6.2106  -18.3894  -45.7597 C.3       2 UNK        -0.1800 
     64 N          -3.7962  -18.1498  -46.0378 N.am      2 UNK        -0.5000 
     65 C          -2.5559  -17.6964  -45.8191 C.2       1 UNK         0.5000 
     66 O          -2.3113  -16.5626  -45.4015 O.2       1 UNK        -0.5000 
     67 C           0.6654  -22.3986  -45.4507 C.2       11 UNK         0.5000 
     68 O          -0.3017  -22.0153  -46.1065 O.2       11 UNK        -0.5000 
     69 N           0.5544  -22.9098  -44.2138 N.am      12 UNK        -0.5000 
     70 CA         -0.6855  -22.9902  -43.4302 C.3       12 UNK         0.1400 
     71 CB         -0.3592  -23.5340  -42.0319 C.3       12 UNK        -0.1800 
     72 C          -1.8221  -23.8073  -44.0779 C.2       12 UNK         0.5000 
     73 O          -2.9869  -23.6020  -43.7354 O.2       12 UNK        -0.5000 
     74 N          -1.4722  -24.7066  -45.0058 N.am      13 UNK        -0.5000 
     75 CA         -2.4132  -25.4932  -45.8008 C.3       13 UNK         0.1400 
     76 CB         -1.6625  -26.6948  -46.3960 C.3       13 UNK        -0.1800 
     77 C          -3.1061  -24.6860  -46.9194 C.2       13 UNK         0.5000 
     78 O          -4.1248  -25.1459  -47.4379 O.2       13 UNK        -0.5000 
     79 N          -2.5482  -23.5275  -47.3018 N.am      14 UNK        -0.5000 
     80 CA         -3.0544  -22.6972  -48.3902 C.3       14 UNK         0.1400 
     81 CB         -1.9121  -21.8449  -48.9681 C.3       14 UNK        -0.1800 
     82 C          -4.2390  -21.8304  -47.9280 C.2       14 UNK         0.5000 
     83 O          -4.0391  -20.7776  -47.3136 O.2       14 UNK        -0.5000 
     84 N          -5.4533  -22.2804  -48.2725 N.am      15 UNK        -0.5000 
     85 CA         -6.6829  -21.4831  -48.2578 C.3       15 UNK         0.1400 
     86 CB         -7.8675  -22.4019  -48.5923 C.3       15 UNK        -0.1800 
     87 C          -6.5978  -20.3270  -49.2743 C.2       15 UNK         0.5000 
     88 O          -5.7671  -20.3844  -50.1797 O.2       15 UNK        -0.5000 
     89 N          -7.4472  -19.3020  -49.1260 N.am      16 UNK        -0.5000 
     90 CA         -7.3483  -18.0282  -49.8521 C.3       16 UNK         0.1400 
     91 CB         -8.4836  -17.0948  -49.4090 C.3       16 UNK        -0.1800 
     92 C          -7.3004  -18.1482  -51.3892 C.2       16 UNK         0.5000 
     93 O          -6.5080  -17.4525  -52.0235 O.2       16 UNK        -0.5000 
     94 N          -8.1042  -19.0597  -51.9536 N.am      17 UNK        -0.5000 
     95 CA         -8.1210  -19.3594  -53.3874 C.3       17 UNK         0.1400 
     96 CB         -9.3689  -20.1912  -53.7196 C.3       17 UNK        -0.1800 
     97 C          -6.8447  -20.0811  -53.8605 C.2       17 UNK         0.5000 
     98 O          -6.3100  -19.7461  -54.9179 O.2       17 UNK        -0.5000 
     99 N          -6.3641  -21.0393  -53.0562 N.am      18 UNK        -0.5000 
    100 CA        -5.1352  -21.7944  -53.3064 C.3       18 UNK         0.1400 
    101 CB        -5.0697  -23.0035  -52.3602 C.3       18 UNK        -0.1800 
    102 C         -3.8819  -20.9170  -53.1577 C.2       18 UNK         0.5000 
    103 O         -2.9597  -21.0325  -53.9631 O.2       18 UNK        -0.5000 
    104 N         -3.8960  -20.0331  -52.1533 N.am      19 UNK        -0.5000 
    105 CA        -2.8746  -19.0283  -51.8818 C.3       19 UNK         0.1400 
    106 CB        -3.1818  -18.3486  -50.5414 C.3       19 UNK        -0.1800 
    107 C         -2.7574  -17.9868  -53.0080 C.2       19 UNK         0.5000 
    108 O         -1.6428  -17.6208  -53.3787 O.2       19 UNK        -0.5000 
    109 N         -3.9050  -17.5458  -53.5430 N.am      20 UNK        -0.5000 
    110 CA        -3.9836  -16.6287  -54.6797 C.3       20 UNK         0.1400 
    111 CB        -5.4249  -16.1199  -54.8330 C.3       20 UNK        -0.1800 
    112 C         -3.4855  -17.2626  -55.9918 C.2       20 UNK         0.5000 
    113 O         -2.8104  -16.5863  -56.7688 O.2       20 UNK        -0.5000 
    114 N         -3.8214  -18.5415  -56.2133 N.am      21 UNK        -0.5000 
    115 CA        -3.3875  -19.3213  -57.3716 C.3       21 UNK         0.1400 
    116 CB        -4.2470  -20.5912  -57.4871 C.3       21 UNK        -0.1800 
    117 C         -1.8873  -19.6626  -57.3104 C.2       21 UNK         0.5000 
    118 O         -1.1390  -19.2908  -58.2151 O.2       21 UNK        -0.5000 
    119 N         -1.4837  -20.3556  -56.2377 N.am      22 UNK        -0.5000 
    120 CA        -0.1104  -20.7898  -55.9345 C.3       22 UNK         0.1400 
    121 C          0.5376  -21.7519  -56.9801 C.2       22 UNK         0.5000 
    122 N         -0.2445  -22.4859  -57.7628 N.am      22 UNK        -0.7600 
    123 O          1.7570  -21.8604  -57.0752 O.2       22 UNK        -0.5000 
    124 C124        0.7937  -19.5923  -55.5202 C.3       23 UNK        -0.0398 
    125 S125        1.9952  -19.9933  -54.2018 S.3       23 UNK        -0.2404 
    126 C126        0.8868  -20.3884  -52.8117 C.3       23 UNK        -0.0205 
    127 H127        0.5440  -19.9595  -42.2172 H         1 UNK         0.0600 
    128 H128        0.3991  -18.2015  -42.1151 H         1 UNK         0.0600 
    129 H129        1.4710  -18.9440  -43.3103 H         1 UNK         0.0600 
    130 H130        0.4871  -18.2990  -45.2810 H         1 UNK         0.3000 
    131 H131       -1.8188  -19.6722  -46.1783 H         1 UNK         0.0600 
    132 H132       -0.1624  -19.2274  -47.8059 H         1 UNK         0.0800 
    133 H133       -1.5099  -18.2416  -48.2657 H         1 UNK         0.0800 
    134 H134       -0.0039  -16.4729  -49.8488 H         1 UNK         0.0800 
    135 H135        1.6110  -16.0159  -49.3608 H         1 UNK         0.0800 
    136 H136        0.2003  -18.0702  -51.5684 H         1 UNK         0.1150 
    137 H137        2.7097  -21.5093  -51.1254 H         1 UNK         0.1150 
    138 H138        2.7859  -18.3870  -48.1785 H         1 UNK         0.1150 
    139 H139        3.6105  -21.9499  -48.8524 H         1 UNK         0.0800 
    140 H140        4.8439  -20.7846  -49.2606 H         1 UNK         0.0800 
    141 H141        1.6760  -20.3519  -46.9879 H         1 UNK         0.0800 
    142 H142        2.3404  -20.2355  -45.3885 H         1 UNK         0.0800 
    143 H143        2.0225  -22.7727  -47.0471 H         1 UNK         0.0600 
    144 H144        3.5947  -22.3713  -44.6134 H         1 UNK         0.3000 
    145 H145        4.2160  -25.7899  -44.0777 H         1 UNK         0.0600 
    146 H146        6.6052  -25.3620  -44.6241 H         1 UNK         0.0600 
    147 H147        5.6729  -25.5717  -46.0975 H         1 UNK         0.0600 
    148 H148        6.1559  -23.9568  -45.5925 H         1 UNK         0.0600 
    149 H149        5.6138  -23.4230  -43.2536 H         1 UNK         0.3000 
    150 H150        3.3627  -22.2974  -40.8031 H         1 UNK         0.0600 
    151 H151        5.9597  -23.8464  -40.2916 H         1 UNK         0.0600 
    152 H152        4.3975  -24.2135  -39.5699 H         1 UNK         0.0600 
    153 H153        5.1991  -22.6987  -39.1882 H         1 UNK         0.0600 
    154 H154        6.0293  -21.5317  -41.2435 H         1 UNK         0.3000 
    155 H155        6.3259  -19.3999  -42.1391 H         1 UNK         0.0600 
    156 H156        6.3334  -20.6378  -44.9518 H         1 UNK         0.0600 
    157 H157        7.3503  -21.1393  -43.6081 H         1 UNK         0.0600 
    158 H158        7.5612  -19.5458  -44.3128 H         1 UNK         0.0600 
    159 H159        5.2467  -18.4480  -44.6389 H         1 UNK         0.3000 
    160 H160        4.3730  -15.7776  -43.9232 H         1 UNK         0.0600 
    161 H161        2.7261  -16.2773  -45.7529 H         1 UNK         0.0600 
    162 H162        2.4609  -17.8880  -45.1020 H         1 UNK         0.0600 
    163 H163        4.0164  -17.4433  -45.7865 H         1 UNK         0.0600 
    164 H164        2.5226  -16.5657  -42.0683 H         1 UNK         0.3000 
    165 H165        0.5871  -15.6513  -41.4688 H         1 UNK         0.0600 
    166 H166        2.1535  -13.7634  -40.8573 H         1 UNK         0.0600 
    167 H167        1.2431  -12.6744  -41.8982 H         1 UNK         0.0600 
    168 H168        0.4903  -13.3663  -40.4625 H         1 UNK         0.0600 
    169 H169       -0.5558  -14.3630  -43.7427 H         1 UNK         0.3000 
    170 H170       -3.5630  -15.2038  -43.0018 H         1 UNK         0.0600 
    171 H171       -4.3580  -13.5204  -41.4233 H         1 UNK         0.0600 
    172 H172       -3.5110  -12.2344  -42.2646 H         1 UNK         0.0600 
    173 H173       -4.8672  -13.0569  -43.0385 H         1 UNK         0.0600 
    174 H174       -2.7941  -14.8042  -44.9981 H         1 UNK         0.3000 
    175 H175       -2.0598  -11.9429  -46.8957 H         1 UNK         0.0600 
    176 H176       -0.2244  -13.4170  -47.7589 H         1 UNK         0.0600 
    177 H177        0.2194  -12.6362  -46.2474 H         1 UNK         0.0600 
    178 H178       -0.2532  -14.3276  -46.2493 H         1 UNK         0.0600 
    179 H179       -2.5112  -14.8618  -47.1569 H         1 UNK         0.3000 
    180 H180       -5.8307  -14.4040  -48.3846 H         1 UNK         0.0600 
    181 H181       -3.3079  -15.3616  -49.8344 H         1 UNK         0.0600 
    182 H182       -4.3539  -14.0610  -50.3830 H         1 UNK         0.0600 
    183 H183       -4.9824  -15.6924  -50.2953 H         1 UNK         0.0600 
    184 H184       -4.1446  -16.7087  -47.9431 H         1 UNK         0.3000 
    185 H185       -4.9017  -17.1946  -44.5668 H         1 UNK         0.0600 
    186 H186       -6.0736  -19.2911  -45.1623 H         1 UNK         0.0600 
    187 H187       -7.1325  -17.9115  -45.4255 H         1 UNK         0.0600 
    188 H188       -6.3503  -18.6900  -46.7942 H         1 UNK         0.0600 
    189 H189       -3.9204  -19.0894  -46.4106 H         1 UNK         0.3000 
    190 H190        1.3964  -23.2219  -43.7489 H         1 UNK         0.3000 
    191 H191       -1.0614  -21.9749  -43.3136 H         1 UNK         0.0600 
    192 H192        0.0398  -24.5479  -42.0801 H         1 UNK         0.0600 
    193 H193       -1.2501  -23.5607  -41.4032 H         1 UNK         0.0600 
    194 H194        0.3754  -22.9071  -41.5258 H         1 UNK         0.0600 
    195 H195       -0.4920  -24.8112  -45.2238 H         1 UNK         0.3000 
    196 H196       -3.1947  -25.8737  -45.1396 H         1 UNK         0.0600 
    197 H197       -2.3349  -27.3299  -46.9743 H         1 UNK         0.0600 
    198 H198       -1.2264  -27.3152  -45.6127 H         1 UNK         0.0600 
    199 H199       -0.8579  -26.3772  -47.0605 H         1 UNK         0.0600 
    200 H200       -1.7465  -23.1621  -46.7967 H         1 UNK         0.3000 
    201 H201       -3.3951  -23.3493  -49.1977 H         1 UNK         0.0600 
    202 H202       -2.2483  -21.2939  -49.8464 H         1 UNK         0.0600 
    203 H203       -1.5420  -21.1191  -48.2464 H         1 UNK         0.0600 
    204 H204       -1.0711  -22.4653  -49.2779 H         1 UNK         0.0600 
    205 H205       -5.5125  -23.1736  -48.7388 H         1 UNK         0.3000 
    206 H206       -6.8173  -21.0683  -47.2575 H         1 UNK         0.0600 
    207 H207       -7.9417  -23.2236  -47.8796 H         1 UNK         0.0600 
    208 H208       -8.8119  -21.8574  -48.5557 H         1 UNK         0.0600 
    209 H209       -7.7746  -22.8318  -49.5907 H         1 UNK         0.0600 
    210 H210       -8.1378  -19.3429  -48.3906 H         1 UNK         0.3000 
    211 H211       -6.4079  -17.5684  -49.5438 H         1 UNK         0.0600 
    212 H212       -9.4635  -17.5213  -49.6265 H         1 UNK         0.0600 
    213 H213       -8.4213  -16.1335  -49.9210 H         1 UNK         0.0600 
    214 H214       -8.4327  -16.8933  -48.3387 H         1 UNK         0.0600 
    215 H215       -8.7152  -19.6007  -51.3598 H         1 UNK         0.3000 
    216 H216       -8.1886  -18.4155  -53.9329 H         1 UNK         0.0600 
    217 H217       -9.4147  -20.4162  -54.7861 H         1 UNK         0.0600 
    218 H218      -10.2811  -19.6524  -53.4629 H         1 UNK         0.0600 
    219 H219       -9.3771  -21.1407  -53.1829 H         1 UNK         0.0600 
    220 H220       -6.8129  -21.1911  -52.1648 H         1 UNK         0.3000 
    221 H221       -5.1649  -22.1654  -54.3330 H         1 UNK         0.0600 
    222 H222       -5.0396  -22.6998  -51.3138 H         1 UNK         0.0600 
    223 H223       -5.9320  -23.6565  -52.4950 H         1 UNK         0.0600 
    224 H224       -4.1770  -23.5998  -52.5529 H         1 UNK         0.0600 
    225 H225       -4.6819  -20.0635  -51.5042 H         1 UNK         0.3000 
    226 H226       -1.9194  -19.5433  -51.7857 H         1 UNK         0.0600 
    227 H227       -2.4339  -17.5897  -50.3118 H         1 UNK         0.0600 
    228 H228       -4.1560  -17.8632  -50.5586 H         1 UNK         0.0600 
    229 H229       -3.1912  -19.0696  -49.7244 H         1 UNK         0.0600 
    230 H230       -4.7854  -17.8443  -53.1378 H         1 UNK         0.3000 
    231 H231       -3.3448  -15.7698  -54.4635 H         1 UNK         0.0600 
    232 H232       -6.1258  -16.9383  -55.0008 H         1 UNK         0.0600 
    233 H233       -5.5105  -15.4343  -55.6769 H         1 UNK         0.0600 
    234 H234       -5.7479  -15.5805  -53.9425 H         1 UNK         0.0600 
    235 H235       -4.4267  -19.0092  -55.5482 H         1 UNK         0.3000 
    236 H236       -3.5568  -18.7226  -58.2692 H         1 UNK         0.0600 
    237 H237       -3.9383  -21.1968  -58.3400 H         1 UNK         0.0600 
    238 H238       -4.1755  -21.2147  -56.5954 H         1 UNK         0.0600 
    239 H239       -5.2981  -20.3401  -57.6305 H         1 UNK         0.0600 
    240 H240       -2.1680  -20.5958  -55.5224 H         1 UNK         0.3000 
    241 H241       -0.2436  -21.4251  -55.0599 H         1 UNK         0.0600 
    242 H242       -1.2472  -22.4187  -57.6943 H         1 UNK         0.3800 
    243 H243        0.1723  -23.1121  -58.4338 H         1 UNK         0.3800 
    244 H244        0.1845  -18.7669  -55.1481 H         1 UNK         0.0800 
    245 H245        1.3267  -19.1898  -56.3831 H         1 UNK         0.0800 
    246 H246        0.7650  -21.4703  -52.7425 H         1 UNK         0.0800 
    247 H247       -0.1041  -19.9837  -53.0129 H         1 UNK         0.0800 
@<TRIPOS>BOND
     1    1    2 1    
     2    1  127 1    
     3    1  128 1    
     4    1  129 1    
     5    2    3 2    
     6    2    4 am   BACKBONE|DICT|INTERRES
     7    4    5 1    
     8    4  130 1    
     9    5    6 1    
    10    5   65 1    
    11    5  131 1    
    12    6    7 1    
    13    6  132 1    
    14    6  133 1    
    15    7    8 1    
    16    8    9 1    
    17    8  134 1    
    18    8  135 1    
    19    9   10 ar   
    20    9   14 ar   
    21   10   11 ar   
    22   10  136 1    
    23   11   12 ar   
    24   11  126 1    
    25   12   13 ar   
    26   12  137 1    
    27   13   14 ar   
    28   13   15 1    
    29   14  138 1    
    30   15   16 1    
    31   15  139 1    
    32   15  140 1    
    33   16   17 1    
    34   17   18 1    
    35   17  141 1    
    36   17  142 1    
    37   18   19 1    
    38   18   67 1    
    39   18  143 1    
    40   19   20 am   BACKBONE|DICT|INTERRES
    41   19  144 1    
    42   20   21 2    
    43   20   22 1    
    44   22   23 1    
    45   22   24 1    
    46   22  145 1    
    47   23  146 1    
    48   23  147 1    
    49   23  148 1    
    50   24   25 am   BACKBONE|DICT|INTERRES
    51   24  149 1    
    52   25   26 2    
    53   25   27 1    
    54   27   28 1    
    55   27   29 1    
    56   27  150 1    
    57   28  151 1    
    58   28  152 1    
    59   28  153 1    
    60   29   30 am   BACKBONE|DICT|INTERRES
    61   29  154 1    
    62   30   31 2    
    63   30   32 1    
    64   32   33 1    
    65   32   34 1    
    66   32  155 1    
    67   33  156 1    
    68   33  157 1    
    69   33  158 1    
    70   34   35 am   BACKBONE|DICT|INTERRES
    71   34  159 1    
    72   35   36 2    
    73   35   37 1    
    74   37   38 1    
    75   37   39 1    
    76   37  160 1    
    77   38  161 1    
    78   38  162 1    
    79   38  163 1    
    80   39   40 am   BACKBONE|DICT|INTERRES
    81   39  164 1    
    82   40   41 2    
    83   40   42 1    
    84   42   43 1    
    85   42   44 1    
    86   42  165 1    
    87   43  166 1    
    88   43  167 1    
    89   43  168 1    
    90   44   45 am   BACKBONE|DICT|INTERRES
    91   44  169 1    
    92   45   46 2    
    93   45   47 1    
    94   47   48 1    
    95   47   49 1    
    96   47  170 1    
    97   48  171 1    
    98   48  172 1    
    99   48  173 1    
   100   49   50 am   BACKBONE|DICT|INTERRES
   101   49  174 1    
   102   50   51 2    
   103   50   52 1    
   104   52   53 1    
   105   52   54 1    
   106   52  175 1    
   107   53  176 1    
   108   53  177 1    
   109   53  178 1    
   110   54   55 am   BACKBONE|DICT|INTERRES
   111   54  179 1    
   112   55   56 2    
   113   55   57 1    
   114   57   58 1    
   115   57   59 1    
   116   57  180 1    
   117   58  181 1    
   118   58  182 1    
   119   58  183 1    
   120   59   60 am   BACKBONE|DICT|INTERRES
   121   59  184 1    
   122   60   61 2    
   123   60   62 1    
   124   62   63 1    
   125   62   64 1    
   126   62  185 1    
   127   63  186 1    
   128   63  187 1    
   129   63  188 1    
   130   64   65 am   BACKBONE|DICT|INTERRES
   131   64  189 1    
   132   65   66 2    
   133   67   68 2    
   134   67   69 am   BACKBONE|DICT|INTERRES
   135   69   70 1    
   136   69  190 1    
   137   70   71 1    
   138   70   72 1    
   139   70  191 1    
   140   71  192 1    
   141   71  193 1    
   142   71  194 1    
   143   72   73 2    
   144   72   74 am   BACKBONE|DICT|INTERRES
   145   74   75 1    
   146   74  195 1    
   147   75   76 1    
   148   75   77 1    
   149   75  196 1    
   150   76  197 1    
   151   76  198 1    
   152   76  199 1    
   153   77   78 2    
   154   77   79 am   BACKBONE|DICT|INTERRES
   155   79   80 1    
   156   79  200 1    
   157   80   81 1    
   158   80   82 1    
   159   80  201 1    
   160   81  202 1    
   161   81  203 1    
   162   81  204 1    
   163   82   83 2    
   164   82   84 am   BACKBONE|DICT|INTERRES
   165   84   85 1    
   166   84  205 1    
   167   85   86 1    
   168   85   87 1    
   169   85  206 1    
   170   86  207 1    
   171   86  208 1    
   172   86  209 1    
   173   87   88 2    
   174   87   89 am   BACKBONE|DICT|INTERRES
   175   89   90 1    
   176   89  210 1    
   177   90   91 1    
   178   90   92 1    
   179   90  211 1    
   180   91  212 1    
   181   91  213 1    
   182   91  214 1    
   183   92   93 2    
   184   92   94 am   BACKBONE|DICT|INTERRES
   185   94   95 1    
   186   94  215 1    
   187   95   96 1    
   188   95   97 1    
   189   95  216 1    
   190   96  217 1    
   191   96  218 1    
   192   96  219 1    
   193   97   98 2    
   194   97   99 am   BACKBONE|DICT|INTERRES
   195   99  100 1    
   196   99  220 1    
   197  100  101 1    
   198  100  102 1    
   199  100  221 1    
   200  101  222 1    
   201  101  223 1    
   202  101  224 1    
   203  102  103 2    
   204  102  104 am   BACKBONE|DICT|INTERRES
   205  104  105 1    
   206  104  225 1    
   207  105  106 1    
   208  105  107 1    
   209  105  226 1    
   210  106  227 1    
   211  106  228 1    
   212  106  229 1    
   213  107  108 2    
   214  107  109 am   BACKBONE|DICT|INTERRES
   215  109  110 1    
   216  109  230 1    
   217  110  111 1    
   218  110  112 1    
   219  110  231 1    
   220  111  232 1    
   221  111  233 1    
   222  111  234 1    
   223  112  113 2    
   224  112  114 am   BACKBONE|DICT|INTERRES
   225  114  115 1    
   226  114  235 1    
   227  115  116 1    
   228  115  117 1    
   229  115  236 1    
   230  116  237 1    
   231  116  238 1    
   232  116  239 1    
   233  117  118 2    
   234  117  119 am   BACKBONE|DICT|INTERRES
   235  119  120 1    
   236  119  240 1    
   237  120  121 1    
   238  120  124 1    
   239  120  241 1    
   240  121  122 am   BACKBONE|DICT|INTERRES
   241  121  123 2    
   242  122  242 1    
   243  122  243 1    
   244  124  125 1    
   245  124  244 1    
   246  124  245 1    
   247  125  126 1    
   248  126  246 1    
   249  126  247 1    
@<TRIPOS>SUBSTRUCTURE
     1 UNK         1 GROUP             0       ****    0 ROOT    
