@<TRIPOS>MOLECULE
3R540
247   249    1
SMALL
USER_CHARGES


@<TRIPOS>ATOM
      1 CA         -0.0203  -11.8006  -43.2348 C.3       0 UNK        -0.1800 
      2 C          -0.8038  -11.6816  -44.5339 C.2       0 UNK         0.5000 
      3 O          -0.5898  -10.7364  -45.2922 O.2       0 UNK        -0.5000 
      4 N          -1.6823  -12.6542  -44.8097 N.am      1 UNK        -0.5000 
      5 CA         -2.5498  -12.7394  -45.9968 C.3       1 UNK         0.1400 
      6 C6         -3.5668  -13.9023  -45.8805 C.3       23 UNK        -0.0398 
      7 S7         -2.8082  -15.5051  -45.4345 S.3       23 UNK        -0.2404 
      8 C8         -3.7724  -16.6652  -46.4517 C.3       23 UNK        -0.0205 
      9 C9         -3.2657  -16.7265  -47.8830 C.ar      23 UNK        -0.0193 
     10 C10        -4.0213  -16.2009  -48.9339 C.ar      23 UNK        -0.1150 
     11 C11        -3.5570  -16.2716  -50.2519 C.ar      23 UNK        -0.0193 
     12 C12        -2.3315  -16.8992  -50.5070 C.ar      23 UNK        -0.1150 
     13 C13        -1.5702  -17.4396  -49.4662 C.ar      23 UNK        -0.0193 
     14 C14        -2.0368  -17.3290  -48.1543 C.ar      23 UNK        -0.1150 
     15 C15        -0.2262  -18.0940  -49.7609 C.3       23 UNK        -0.0205 
     16 S16        -0.3205  -19.9141  -49.7519 S.3       23 UNK        -0.2404 
     17 C17         0.0019  -20.2642  -47.9902 C.3       23 UNK        -0.0398 
     18 CA         -0.2099  -21.7391  -47.5856 C.3       11 UNK         0.1400 
     19 N           0.4068  -22.0280  -46.2916 N.am      11 UNK        -0.5000 
     20 C           0.5724  -23.2547  -45.7795 C.2       10 UNK         0.5000 
     21 O           0.1151  -24.2751  -46.2964 O.2       10 UNK        -0.5000 
     22 CA          1.3708  -23.3590  -44.4728 C.3       10 UNK         0.1400 
     23 CB          2.8751  -23.1850  -44.7328 C.3       10 UNK        -0.1800 
     24 N           0.9197  -22.3604  -43.5056 N.am      10 UNK        -0.5000 
     25 C           0.6007  -22.6261  -42.2322 C.2       9 UNK         0.5000 
     26 O           0.7687  -23.7249  -41.7019 O.2       9 UNK        -0.5000 
     27 CA         -0.0271  -21.4879  -41.3986 C.3       9 UNK         0.1400 
     28 CB          1.0046  -20.9137  -40.4157 C.3       9 UNK        -0.1800 
     29 N          -0.5947  -20.3847  -42.1784 N.am      9 UNK        -0.5000 
     30 C          -1.5746  -20.4854  -43.0888 C.2       8 UNK         0.5000 
     31 O          -2.1067  -21.5462  -43.4153 O.2       8 UNK        -0.5000 
     32 CA         -1.9929  -19.1901  -43.8104 C.3       8 UNK         0.1400 
     33 CB         -3.1388  -18.5204  -43.0368 C.3       8 UNK        -0.1800 
     34 N          -0.9104  -18.2229  -44.0029 N.am      8 UNK        -0.5000 
     35 C           0.3012  -18.4652  -44.5257 C.2       7 UNK         0.5000 
     36 O           0.6514  -19.5606  -44.9686 O.2       7 UNK        -0.5000 
     37 CA          1.3083  -17.3003  -44.5124 C.3       7 UNK         0.1400 
     38 CB          1.2553  -16.5527  -45.8537 C.3       7 UNK        -0.1800 
     39 N           1.1322  -16.3289  -43.4259 N.am      7 UNK        -0.5000 
     40 C           1.0269  -16.5887  -42.1130 C.2       6 UNK         0.5000 
     41 O           0.9572  -17.7211  -41.6300 O.2       6 UNK        -0.5000 
     42 CA          1.0105  -15.3412  -41.2082 C.3       6 UNK         0.1400 
     43 CB          0.7615  -15.6650  -39.7195 C.3       6 UNK        -0.1800 
     44 N           2.2279  -14.5397  -41.3937 N.am      6 UNK        -0.5000 
     45 C           3.4864  -14.9175  -41.1198 C.2       5 UNK         0.5000 
     46 O           3.7903  -15.9867  -40.5871 O.2       5 UNK        -0.5000 
     47 CA          4.5867  -13.9223  -41.5423 C.3       5 UNK         0.1400 
     48 CB          5.9826  -14.3207  -41.0194 C.3       5 UNK        -0.1800 
     49 N           4.6460  -13.7015  -42.9931 N.am      5 UNK        -0.5000 
     50 C           4.7777  -14.6155  -43.9659 C.2       4 UNK         0.5000 
     51 O           4.7235  -15.8319  -43.7797 O.2       4 UNK        -0.5000 
     52 CA          5.0486  -14.0686  -45.3864 C.3       4 UNK         0.1400 
     53 CB          5.2213  -15.1873  -46.4310 C.3       4 UNK        -0.1800 
     54 N           4.0354  -13.1336  -45.8796 N.am      4 UNK        -0.5000 
     55 C           3.8490  -11.8672  -45.4924 C.2       3 UNK         0.5000 
     56 O           4.4582  -11.3538  -44.5528 O.2       3 UNK        -0.5000 
     57 CA          2.8209  -11.0155  -46.2691 C.3       3 UNK         0.1400 
     58 CB          3.5341  -10.0908  -47.2733 C.3       3 UNK        -0.1800 
     59 N           1.7240  -11.7461  -46.9247 N.am      3 UNK        -0.5000 
     60 C           1.7655  -12.6307  -47.9348 C.2       2 UNK         0.5000 
     61 O           2.8113  -13.0374  -48.4407 O.2       2 UNK        -0.5000 
     62 CA          0.4114  -13.1724  -48.4299 C.3       2 UNK         0.1400 
     63 CB          0.5196  -14.5469  -49.1104 C.3       2 UNK        -0.1800 
     64 N          -0.5393  -13.2459  -47.3214 N.am      2 UNK        -0.5000 
     65 C          -1.7913  -12.7742  -47.3442 C.2       1 UNK         0.5000 
     66 O          -2.3391  -12.3324  -48.3552 O.2       1 UNK        -0.5000 
     67 C          -1.6948  -22.1424  -47.6180 C.2       11 UNK         0.5000 
     68 O          -2.0974  -22.8689  -48.5223 O.2       11 UNK        -0.5000 
     69 N          -2.4816  -21.7073  -46.6259 N.am      12 UNK        -0.5000 
     70 CA         -3.8920  -22.0865  -46.5132 C.3       12 UNK         0.1400 
     71 CB         -4.6627  -21.0508  -45.6810 C.3       12 UNK        -0.1800 
     72 C          -4.0472  -23.5014  -45.9323 C.2       12 UNK         0.5000 
     73 O          -4.8899  -24.2613  -46.4086 O.2       12 UNK        -0.5000 
     74 N          -3.2234  -23.8228  -44.9256 N.am      13 UNK        -0.5000 
     75 CA         -3.2532  -25.0780  -44.1785 C.3       13 UNK         0.1400 
     76 CB         -2.2721  -24.9858  -43.0005 C.3       13 UNK        -0.1800 
     77 C          -2.9613  -26.3315  -45.0236 C.2       13 UNK         0.5000 
     78 O          -3.6964  -27.3129  -44.9040 O.2       13 UNK        -0.5000 
     79 N          -1.8956  -26.2907  -45.8353 N.am      14 UNK        -0.5000 
     80 CA         -1.4096  -27.4423  -46.5969 C.3       14 UNK         0.1400 
     81 CB          0.0794  -27.6704  -46.2876 C.3       14 UNK        -0.1800 
     82 C          -1.6274  -27.2712  -48.1063 C.2       14 UNK         0.5000 
     83 O          -2.0972  -28.2084  -48.7527 O.2       14 UNK        -0.5000 
     84 N          -1.2789  -26.0970  -48.6519 N.am      15 UNK        -0.5000 
     85 CA         -1.3023  -25.8419  -50.0980 C.3       15 UNK         0.1400 
     86 CB         -0.1823  -24.8522  -50.4627 C.3       15 UNK        -0.1800 
     87 C          -2.6699  -25.3679  -50.6308 C.2       15 UNK         0.5000 
     88 O          -2.8020  -25.1837  -51.8415 O.2       15 UNK        -0.5000 
     89 N          -3.6518  -25.1620  -49.7396 N.am      16 UNK        -0.5000 
     90 CA         -5.0173  -24.6970  -50.0170 C.3       16 UNK         0.1400 
     91 CB         -5.8080  -25.7734  -50.7900 C.3       16 UNK        -0.1800 
     92 C          -5.0522  -23.3158  -50.7069 C.2       16 UNK         0.5000 
     93 O          -5.7887  -23.1232  -51.6743 O.2       16 UNK        -0.5000 
     94 N          -4.2139  -22.3937  -50.2139 N.am      17 UNK        -0.5000 
     95 CA         -3.9421  -21.0531  -50.7425 C.3       17 UNK         0.1400 
     96 CB         -5.1822  -20.1433  -50.6392 C.3       17 UNK        -0.1800 
     97 C          -3.3384  -21.1270  -52.1576 C.2       17 UNK         0.5000 
     98 O          -3.7804  -20.4203  -53.0636 O.2       17 UNK        -0.5000 
     99 N          -2.3679  -22.0406  -52.3178 N.am      18 UNK        -0.5000 
    100 CA        -1.7046  -22.4264  -53.5669 C.3       18 UNK         0.1400 
    101 CB        -0.7772  -21.2958  -54.0538 C.3       18 UNK        -0.1800 
    102 C         -2.7239  -22.8815  -54.6310 C.2       18 UNK         0.5000 
    103 O         -2.7944  -22.2985  -55.7135 O.2       18 UNK        -0.5000 
    104 N         -3.5440  -23.8767  -54.2610 N.am      19 UNK        -0.5000 
    105 CA        -4.6794  -24.4179  -55.0200 C.3       19 UNK         0.1400 
    106 CB        -4.1769  -25.2268  -56.2333 C.3       19 UNK        -0.1800 
    107 C         -5.7123  -23.3332  -55.4032 C.2       19 UNK         0.5000 
    108 O         -6.2150  -23.3177  -56.5280 O.2       19 UNK        -0.5000 
    109 N         -5.9696  -22.4225  -54.4544 N.am      20 UNK        -0.5000 
    110 CA        -6.8143  -21.2272  -54.5288 C.3       20 UNK         0.1400 
    111 CB        -8.2887  -21.6168  -54.7599 C.3       20 UNK        -0.1800 
    112 C         -6.3362  -20.1404  -55.5189 C.2       20 UNK         0.5000 
    113 O         -7.0639  -19.1676  -55.7268 O.2       20 UNK        -0.5000 
    114 N         -5.1421  -20.2931  -56.1091 N.am      21 UNK        -0.5000 
    115 CA        -4.5722  -19.3399  -57.0627 C.3       21 UNK         0.1400 
    116 CB        -3.7180  -20.1008  -58.0888 C.3       21 UNK        -0.1800 
    117 C         -3.7385  -18.2415  -56.3786 C.2       21 UNK         0.5000 
    118 O         -3.5089  -17.1999  -56.9946 O.2       21 UNK        -0.5000 
    119 N         -3.2899  -18.4884  -55.1398 N.am      22 UNK        -0.5000 
    120 CA        -2.4617  -17.5970  -54.3074 C.3       22 UNK         0.1400 
    121 C         -1.0315  -17.3026  -54.8599 C.2       22 UNK         0.5000 
    122 N         -0.5313  -18.0410  -55.8432 N.am      22 UNK        -0.7600 
    123 O         -0.3423  -16.4151  -54.3650 O.2       22 UNK        -0.5000 
    124 C124       -3.2177  -16.3093  -53.8735 C.3       23 UNK        -0.0398 
    125 S125       -4.6651  -16.6789  -52.8188 S.3       23 UNK        -0.2404 
    126 C126       -4.3657  -15.6116  -51.3677 C.3       23 UNK        -0.0205 
    127 H127        1.0287  -12.0065  -43.4472 H         1 UNK         0.0600 
    128 H128       -0.4090  -12.5972  -42.6011 H         1 UNK         0.0600 
    129 H129       -0.0788  -10.8667  -42.6757 H         1 UNK         0.0600 
    130 H130       -1.8031  -13.4112  -44.1519 H         1 UNK         0.3000 
    131 H131       -3.1285  -11.8134  -46.0140 H         1 UNK         0.0600 
    132 H132       -4.1448  -14.0024  -46.8010 H         1 UNK         0.0800 
    133 H133       -4.2965  -13.6634  -45.1059 H         1 UNK         0.0800 
    134 H134       -4.8298  -16.3988  -46.4168 H         1 UNK         0.0800 
    135 H135       -3.6977  -17.6607  -46.0146 H         1 UNK         0.0800 
    136 H136       -4.9661  -15.7207  -48.7216 H         1 UNK         0.1150 
    137 H137       -1.9502  -16.9492  -51.5134 H         1 UNK         0.1150 
    138 H138       -1.4455  -17.6932  -47.3298 H         1 UNK         0.1150 
    139 H139        0.1359  -17.7740  -50.7392 H         1 UNK         0.0800 
    140 H140        0.5203  -17.7547  -49.0418 H         1 UNK         0.0800 
    141 H141        1.0355  -19.9750  -47.7940 H         1 UNK         0.0800 
    142 H142       -0.6112  -19.6229  -47.3635 H         1 UNK         0.0800 
    143 H143        0.3108  -22.3584  -48.3186 H         1 UNK         0.0600 
    144 H144        0.7629  -21.2189  -45.7905 H         1 UNK         0.3000 
    145 H145        1.2069  -24.3672  -44.0862 H         1 UNK         0.0600 
    146 H146        3.4502  -23.3428  -43.8204 H         1 UNK         0.0600 
    147 H147        3.1085  -22.1870  -45.1060 H         1 UNK         0.0600 
    148 H148        3.2307  -23.9057  -45.4704 H         1 UNK         0.0600 
    149 H149        0.7439  -21.4270  -43.8561 H         1 UNK         0.3000 
    150 H150       -0.8419  -21.9291  -40.8212 H         1 UNK         0.0600 
    151 H151        1.4244  -21.6965  -39.7826 H         1 UNK         0.0600 
    152 H152        0.5527  -20.1714  -39.7573 H         1 UNK         0.0600 
    153 H153        1.8323  -20.4344  -40.9403 H         1 UNK         0.0600 
    154 H154       -0.1872  -19.4700  -42.0120 H         1 UNK         0.3000 
    155 H155       -2.3557  -19.4616  -44.8016 H         1 UNK         0.0600 
    156 H156       -3.9681  -19.2128  -42.8859 H         1 UNK         0.0600 
    157 H157       -3.5365  -17.6584  -43.5692 H         1 UNK         0.0600 
    158 H158       -2.8125  -18.1816  -42.0526 H         1 UNK         0.0600 
    159 H159       -1.0913  -17.2872  -43.6711 H         1 UNK         0.3000 
    160 H160        2.3040  -17.7327  -44.3964 H         1 UNK         0.0600 
    161 H161        0.2750  -16.1070  -46.0272 H         1 UNK         0.0600 
    162 H162        1.4602  -17.2284  -46.6852 H         1 UNK         0.0600 
    163 H163        1.9972  -15.7556  -45.8944 H         1 UNK         0.0600 
    164 H164        1.2012  -15.3615  -43.6999 H         1 UNK         0.3000 
    165 H165        0.1755  -14.7259  -41.5449 H         1 UNK         0.0600 
    166 H166        0.7458  -14.7574  -39.1163 H         1 UNK         0.0600 
    167 H167       -0.2017  -16.1594  -39.5881 H         1 UNK         0.0600 
    168 H168        1.5223  -16.3283  -39.3078 H         1 UNK         0.0600 
    169 H169        2.0981  -13.6392  -41.8313 H         1 UNK         0.3000 
    170 H170        4.3304  -12.9631  -41.0900 H         1 UNK         0.0600 
    171 H171        6.3171  -15.2701  -41.4393 H         1 UNK         0.0600 
    172 H172        6.7269  -13.5645  -41.2689 H         1 UNK         0.0600 
    173 H173        5.9785  -14.4252  -39.9337 H         1 UNK         0.0600 
    174 H174        4.6607  -12.7289  -43.2915 H         1 UNK         0.3000 
    175 H175        5.9971  -13.5304  -45.3319 H         1 UNK         0.0600 
    176 H176        4.3098  -15.7730  -46.5513 H         1 UNK         0.0600 
    177 H177        5.4856  -14.7780  -47.4063 H         1 UNK         0.0600 
    178 H178        6.0186  -15.8740  -46.1438 H         1 UNK         0.0600 
    179 H179        3.5310  -13.4233  -46.7112 H         1 UNK         0.3000 
    180 H180        2.3387  -10.3780  -45.5262 H         1 UNK         0.0600 
    181 H181        4.0557  -10.6552  -48.0468 H         1 UNK         0.0600 
    182 H182        4.2748   -9.4667  -46.7715 H         1 UNK         0.0600 
    183 H183        2.8270   -9.4222  -47.7643 H         1 UNK         0.0600 
    184 H184        0.8046  -11.4851  -46.5820 H         1 UNK         0.3000 
    185 H185        0.0630  -12.4548  -49.1754 H         1 UNK         0.0600 
    186 H186        0.8821  -15.3102  -48.4232 H         1 UNK         0.0600 
    187 H187       -0.4519  -14.8636  -49.4871 H         1 UNK         0.0600 
    188 H188        1.1998  -14.5167  -49.9623 H         1 UNK         0.0600 
    189 H189       -0.1802  -13.5948  -46.4452 H         1 UNK         0.3000 
    190 H190       -2.0765  -21.1854  -45.8647 H         1 UNK         0.3000 
    191 H191       -4.3395  -22.0852  -47.5079 H         1 UNK         0.0600 
    192 H192       -4.5371  -20.0462  -46.0846 H         1 UNK         0.0600 
    193 H193       -4.3473  -21.0421  -44.6388 H         1 UNK         0.0600 
    194 H194       -5.7308  -21.2706  -45.6899 H         1 UNK         0.0600 
    195 H195       -2.6138  -23.1000  -44.5578 H         1 UNK         0.3000 
    196 H196       -4.2594  -25.1860  -43.7683 H         1 UNK         0.0600 
    197 H197       -2.5183  -24.1519  -42.3429 H         1 UNK         0.0600 
    198 H198       -1.2469  -24.8492  -43.3448 H         1 UNK         0.0600 
    199 H199       -2.2970  -25.8939  -42.3969 H         1 UNK         0.0600 
    200 H200       -1.3349  -25.4451  -45.8901 H         1 UNK         0.3000 
    201 H201       -1.9388  -28.3496  -46.2980 H         1 UNK         0.0600 
    202 H202        0.2395  -27.8264  -45.2207 H         1 UNK         0.0600 
    203 H203        0.6973  -26.8278  -46.5980 H         1 UNK         0.0600 
    204 H204        0.4525  -28.5553  -46.8048 H         1 UNK         0.0600 
    205 H205       -0.9090  -25.3624  -48.0614 H         1 UNK         0.3000 
    206 H206       -1.0780  -26.7742  -50.6206 H         1 UNK         0.0600 
    207 H207        0.7824  -25.1929  -50.0866 H         1 UNK         0.0600 
    208 H208       -0.3627  -23.8565  -50.0643 H         1 UNK         0.0600 
    209 H209       -0.0878  -24.7546  -51.5446 H         1 UNK         0.0600 
    210 H210       -3.4224  -25.2958  -48.7650 H         1 UNK         0.3000 
    211 H211       -5.5026  -24.5650  -49.0495 H         1 UNK         0.0600 
    212 H212       -5.4094  -25.9296  -51.7928 H         1 UNK         0.0600 
    213 H213       -6.8552  -25.4879  -50.8961 H         1 UNK         0.0600 
    214 H214       -5.7845  -26.7296  -50.2675 H         1 UNK         0.0600 
    215 H215       -3.5728  -22.6923  -49.4801 H         1 UNK         0.3000 
    216 H216       -3.1735  -20.6190  -50.1031 H         1 UNK         0.0600 
    217 H217       -4.9390  -19.1236  -50.9395 H         1 UNK         0.0600 
    218 H218       -5.5510  -20.0984  -49.6146 H         1 UNK         0.0600 
    219 H219       -5.9973  -20.4863  -51.2754 H         1 UNK         0.0600 
    220 H220       -2.1218  -22.5953  -51.5109 H         1 UNK         0.3000 
    221 H221       -1.0818  -23.2925  -53.3405 H         1 UNK         0.0600 
    222 H222       -1.3382  -20.4020  -54.3200 H         1 UNK         0.0600 
    223 H223       -0.0551  -21.0197  -53.2854 H         1 UNK         0.0600 
    224 H224       -0.2152  -21.6040  -54.9359 H         1 UNK         0.0600 
    225 H225       -3.3902  -24.2960  -53.3451 H         1 UNK         0.3000 
    226 H226       -5.1948  -25.1075  -54.3501 H         1 UNK         0.0600 
    227 H227       -3.4674  -25.9955  -55.9269 H         1 UNK         0.0600 
    228 H228       -5.0026  -25.7306  -56.7369 H         1 UNK         0.0600 
    229 H229       -3.6845  -24.5894  -56.9684 H         1 UNK         0.0600 
    230 H230       -5.5418  -22.5686  -53.5444 H         1 UNK         0.3000 
    231 H231       -6.7503  -20.7681  -53.5420 H         1 UNK         0.0600 
    232 H232       -8.9447  -20.7522  -54.6538 H         1 UNK         0.0600 
    233 H233       -8.6173  -22.3609  -54.0343 H         1 UNK         0.0600 
    234 H234       -8.4485  -22.0258  -55.7578 H         1 UNK         0.0600 
    235 H235       -4.5738  -21.1007  -55.8789 H         1 UNK         0.3000 
    236 H236       -5.3793  -18.8476  -57.6092 H         1 UNK         0.0600 
    237 H237       -2.8324  -20.5424  -57.6322 H         1 UNK         0.0600 
    238 H238       -4.2870  -20.9014  -58.5620 H         1 UNK         0.0600 
    239 H239       -3.3758  -19.4328  -58.8800 H         1 UNK         0.0600 
    240 H240       -3.5622  -19.3539  -54.6821 H         1 UNK         0.3000 
    241 H241       -2.2669  -18.1742  -53.4040 H         1 UNK         0.0600 
    242 H242        0.3978  -17.8492  -56.1832 H         1 UNK         0.3800 
    243 H243       -1.0780  -18.7763  -56.2601 H         1 UNK         0.3800 
    244 H244       -3.5551  -15.7474  -54.7447 H         1 UNK         0.0800 
    245 H245       -2.5548  -15.6341  -53.3318 H         1 UNK         0.0800 
    246 H246       -5.3422  -15.3101  -50.9860 H         1 UNK         0.0800 
    247 H247       -3.8713  -14.6884  -51.6722 H         1 UNK         0.0800 
@<TRIPOS>BOND
     1    1    2 1    
     2    1  127 1    
     3    1  128 1    
     4    1  129 1    
     5    2    3 2    
     6    2    4 am   BACKBONE|DICT|INTERRES
     7    4    5 1    
     8    4  130 1    
     9    5    6 1    
    10    5   65 1    
    11    5  131 1    
    12    6    7 1    
    13    6  132 1    
    14    6  133 1    
    15    7    8 1    
    16    8    9 1    
    17    8  134 1    
    18    8  135 1    
    19    9   10 ar   
    20    9   14 ar   
    21   10   11 ar   
    22   10  136 1    
    23   11   12 ar   
    24   11  126 1    
    25   12   13 ar   
    26   12  137 1    
    27   13   14 ar   
    28   13   15 1    
    29   14  138 1    
    30   15   16 1    
    31   15  139 1    
    32   15  140 1    
    33   16   17 1    
    34   17   18 1    
    35   17  141 1    
    36   17  142 1    
    37   18   19 1    
    38   18   67 1    
    39   18  143 1    
    40   19   20 am   BACKBONE|DICT|INTERRES
    41   19  144 1    
    42   20   21 2    
    43   20   22 1    
    44   22   23 1    
    45   22   24 1    
    46   22  145 1    
    47   23  146 1    
    48   23  147 1    
    49   23  148 1    
    50   24   25 am   BACKBONE|DICT|INTERRES
    51   24  149 1    
    52   25   26 2    
    53   25   27 1    
    54   27   28 1    
    55   27   29 1    
    56   27  150 1    
    57   28  151 1    
    58   28  152 1    
    59   28  153 1    
    60   29   30 am   BACKBONE|DICT|INTERRES
    61   29  154 1    
    62   30   31 2    
    63   30   32 1    
    64   32   33 1    
    65   32   34 1    
    66   32  155 1    
    67   33  156 1    
    68   33  157 1    
    69   33  158 1    
    70   34   35 am   BACKBONE|DICT|INTERRES
    71   34  159 1    
    72   35   36 2    
    73   35   37 1    
    74   37   38 1    
    75   37   39 1    
    76   37  160 1    
    77   38  161 1    
    78   38  162 1    
    79   38  163 1    
    80   39   40 am   BACKBONE|DICT|INTERRES
    81   39  164 1    
    82   40   41 2    
    83   40   42 1    
    84   42   43 1    
    85   42   44 1    
    86   42  165 1    
    87   43  166 1    
    88   43  167 1    
    89   43  168 1    
    90   44   45 am   BACKBONE|DICT|INTERRES
    91   44  169 1    
    92   45   46 2    
    93   45   47 1    
    94   47   48 1    
    95   47   49 1    
    96   47  170 1    
    97   48  171 1    
    98   48  172 1    
    99   48  173 1    
   100   49   50 am   BACKBONE|DICT|INTERRES
   101   49  174 1    
   102   50   51 2    
   103   50   52 1    
   104   52   53 1    
   105   52   54 1    
   106   52  175 1    
   107   53  176 1    
   108   53  177 1    
   109   53  178 1    
   110   54   55 am   BACKBONE|DICT|INTERRES
   111   54  179 1    
   112   55   56 2    
   113   55   57 1    
   114   57   58 1    
   115   57   59 1    
   116   57  180 1    
   117   58  181 1    
   118   58  182 1    
   119   58  183 1    
   120   59   60 am   BACKBONE|DICT|INTERRES
   121   59  184 1    
   122   60   61 2    
   123   60   62 1    
   124   62   63 1    
   125   62   64 1    
   126   62  185 1    
   127   63  186 1    
   128   63  187 1    
   129   63  188 1    
   130   64   65 am   BACKBONE|DICT|INTERRES
   131   64  189 1    
   132   65   66 2    
   133   67   68 2    
   134   67   69 am   BACKBONE|DICT|INTERRES
   135   69   70 1    
   136   69  190 1    
   137   70   71 1    
   138   70   72 1    
   139   70  191 1    
   140   71  192 1    
   141   71  193 1    
   142   71  194 1    
   143   72   73 2    
   144   72   74 am   BACKBONE|DICT|INTERRES
   145   74   75 1    
   146   74  195 1    
   147   75   76 1    
   148   75   77 1    
   149   75  196 1    
   150   76  197 1    
   151   76  198 1    
   152   76  199 1    
   153   77   78 2    
   154   77   79 am   BACKBONE|DICT|INTERRES
   155   79   80 1    
   156   79  200 1    
   157   80   81 1    
   158   80   82 1    
   159   80  201 1    
   160   81  202 1    
   161   81  203 1    
   162   81  204 1    
   163   82   83 2    
   164   82   84 am   BACKBONE|DICT|INTERRES
   165   84   85 1    
   166   84  205 1    
   167   85   86 1    
   168   85   87 1    
   169   85  206 1    
   170   86  207 1    
   171   86  208 1    
   172   86  209 1    
   173   87   88 2    
   174   87   89 am   BACKBONE|DICT|INTERRES
   175   89   90 1    
   176   89  210 1    
   177   90   91 1    
   178   90   92 1    
   179   90  211 1    
   180   91  212 1    
   181   91  213 1    
   182   91  214 1    
   183   92   93 2    
   184   92   94 am   BACKBONE|DICT|INTERRES
   185   94   95 1    
   186   94  215 1    
   187   95   96 1    
   188   95   97 1    
   189   95  216 1    
   190   96  217 1    
   191   96  218 1    
   192   96  219 1    
   193   97   98 2    
   194   97   99 am   BACKBONE|DICT|INTERRES
   195   99  100 1    
   196   99  220 1    
   197  100  101 1    
   198  100  102 1    
   199  100  221 1    
   200  101  222 1    
   201  101  223 1    
   202  101  224 1    
   203  102  103 2    
   204  102  104 am   BACKBONE|DICT|INTERRES
   205  104  105 1    
   206  104  225 1    
   207  105  106 1    
   208  105  107 1    
   209  105  226 1    
   210  106  227 1    
   211  106  228 1    
   212  106  229 1    
   213  107  108 2    
   214  107  109 am   BACKBONE|DICT|INTERRES
   215  109  110 1    
   216  109  230 1    
   217  110  111 1    
   218  110  112 1    
   219  110  231 1    
   220  111  232 1    
   221  111  233 1    
   222  111  234 1    
   223  112  113 2    
   224  112  114 am   BACKBONE|DICT|INTERRES
   225  114  115 1    
   226  114  235 1    
   227  115  116 1    
   228  115  117 1    
   229  115  236 1    
   230  116  237 1    
   231  116  238 1    
   232  116  239 1    
   233  117  118 2    
   234  117  119 am   BACKBONE|DICT|INTERRES
   235  119  120 1    
   236  119  240 1    
   237  120  121 1    
   238  120  124 1    
   239  120  241 1    
   240  121  122 am   BACKBONE|DICT|INTERRES
   241  121  123 2    
   242  122  242 1    
   243  122  243 1    
   244  124  125 1    
   245  124  244 1    
   246  124  245 1    
   247  125  126 1    
   248  126  246 1    
   249  126  247 1    
@<TRIPOS>SUBSTRUCTURE
     1 UNK         1 GROUP             0       ****    0 ROOT    
