@<TRIPOS>MOLECULE
3R540
247   249    1
SMALL
USER_CHARGES


@<TRIPOS>ATOM
      1 CA          5.6842  -14.6015  -44.3176 C.3       0 UNK        -0.1800 
      2 C           4.4482  -14.7830  -45.1854 C.2       0 UNK         0.5000 
      3 O           3.4772  -15.3973  -44.7370 O.2       0 UNK        -0.5000 
      4 N           4.4771  -14.2543  -46.4175 N.am      1 UNK        -0.5000 
      5 CA          3.3436  -14.2474  -47.3500 C.3       1 UNK         0.1400 
      6 C6          3.7886  -13.9886  -48.8132 C.3       23 UNK        -0.0398 
      7 S7          2.6368  -14.7261  -50.0286 S.3       23 UNK        -0.2404 
      8 C8          3.1612  -16.4784  -50.0131 C.3       23 UNK        -0.0205 
      9 C9          2.0435  -17.5172  -50.1540 C.ar      23 UNK        -0.0193 
     10 C10         0.6779  -17.1924  -50.1581 C.ar      23 UNK        -0.1150 
     11 C11        -0.2973  -18.1921  -50.2538 C.ar      23 UNK        -0.0193 
     12 C12         0.0987  -19.5283  -50.3473 C.ar      23 UNK        -0.1150 
     13 C13         1.4520  -19.8703  -50.3620 C.ar      23 UNK        -0.0193 
     14 C14         2.4145  -18.8611  -50.2671 C.ar      23 UNK        -0.1150 
     15 C15         1.8635  -21.3323  -50.4900 C.3       23 UNK        -0.0205 
     16 S16         2.9287  -21.9109  -49.1267 S.3       23 UNK        -0.2404 
     17 C17         1.9709  -21.4482  -47.6450 C.3       23 UNK        -0.0398 
     18 CA          1.1138  -22.5999  -47.0734 C.3       11 UNK         0.1400 
     19 N           0.8605  -22.4063  -45.6453 N.am      11 UNK        -0.5000 
     20 C           0.2630  -23.2893  -44.8352 C.2       10 UNK         0.5000 
     21 O          -0.1434  -24.3915  -45.2029 O.2       10 UNK        -0.5000 
     22 CA          0.0604  -22.8462  -43.3768 C.3       10 UNK         0.1400 
     23 CB          1.3468  -23.0462  -42.5615 C.3       10 UNK        -0.1800 
     24 N          -0.3569  -21.4466  -43.2922 N.am      10 UNK        -0.5000 
     25 C          -1.5926  -21.0119  -43.5738 C.2       9 UNK         0.5000 
     26 O          -2.5226  -21.7539  -43.8914 O.2       9 UNK        -0.5000 
     27 CA         -1.8137  -19.4866  -43.5300 C.3       9 UNK         0.1400 
     28 CB         -2.0263  -19.0068  -42.0867 C.3       9 UNK        -0.1800 
     29 N          -0.7185  -18.7253  -44.1348 N.am      9 UNK        -0.5000 
     30 C          -0.3467  -18.8328  -45.4187 C.2       8 UNK         0.5000 
     31 O          -0.8863  -19.5821  -46.2259 O.2       8 UNK        -0.5000 
     32 CA          0.8539  -17.9950  -45.8797 C.3       8 UNK         0.1400 
     33 CB          0.3802  -16.5915  -46.2791 C.3       8 UNK        -0.1800 
     34 N           1.9301  -17.9041  -44.8890 N.am      8 UNK        -0.5000 
     35 C           2.5617  -18.9461  -44.3240 C.2       7 UNK         0.5000 
     36 O           2.2530  -20.1227  -44.5159 O.2       7 UNK        -0.5000 
     37 CA          3.7256  -18.6229  -43.3758 C.3       7 UNK         0.1400 
     38 CB          5.0403  -18.5193  -44.1638 C.3       7 UNK        -0.1800 
     39 N           3.4807  -17.3697  -42.6636 N.am      7 UNK        -0.5000 
     40 C           3.0272  -17.2915  -41.4071 C.2       6 UNK         0.5000 
     41 O           2.8650  -18.2657  -40.6712 O.2       6 UNK        -0.5000 
     42 CA          2.6749  -15.8861  -40.8863 C.3       6 UNK         0.1400 
     43 CB          3.9326  -15.1715  -40.3686 C.3       6 UNK        -0.1800 
     44 N           2.0130  -15.0285  -41.8713 N.am      6 UNK        -0.5000 
     45 C           0.8412  -15.2763  -42.4727 C.2       5 UNK         0.5000 
     46 O           0.2175  -16.3317  -42.3444 O.2       5 UNK        -0.5000 
     47 CA          0.2773  -14.1810  -43.4015 C.3       5 UNK         0.1400 
     48 CB         -1.2230  -13.9238  -43.1609 C.3       5 UNK        -0.1800 
     49 N           1.0363  -12.9267  -43.4307 N.am      5 UNK        -0.5000 
     50 C           1.1682  -11.9911  -42.4793 C.2       4 UNK         0.5000 
     51 O           0.6761  -12.0727  -41.3545 O.2       4 UNK        -0.5000 
     52 CA          2.0012  -10.7540  -42.8594 C.3       4 UNK         0.1400 
     53 CB          3.4975  -11.0443  -42.6582 C.3       4 UNK        -0.1800 
     54 N           1.7727  -10.3826  -44.2571 N.am      4 UNK        -0.5000 
     55 C           1.0670   -9.3254  -44.6788 C.2       3 UNK         0.5000 
     56 O           0.6028   -8.4655  -43.9290 O.2       3 UNK        -0.5000 
     57 CA          0.8213   -9.2177  -46.2004 C.3       3 UNK         0.1400 
     58 CB          1.9658   -8.4483  -46.8771 C.3       3 UNK        -0.1800 
     59 N           0.6690  -10.5211  -46.8542 N.am      3 UNK        -0.5000 
     60 C          -0.3359  -11.3760  -46.6207 C.2       2 UNK         0.5000 
     61 O          -1.3135  -11.0939  -45.9274 O.2       2 UNK        -0.5000 
     62 CA         -0.2451  -12.7911  -47.2341 C.3       2 UNK         0.1400 
     63 CB         -1.1518  -12.8926  -48.4702 C.3       2 UNK        -0.1800 
     64 N           1.0839  -13.3079  -47.5954 N.am      2 UNK        -0.5000 
     65 C           2.2100  -13.3062  -46.8697 C.2       1 UNK         0.5000 
     66 O           2.3582  -12.6352  -45.8469 O.2       1 UNK        -0.5000 
     67 C          -0.1937  -22.7926  -47.8697 C.2       11 UNK         0.5000 
     68 O          -0.2887  -23.7244  -48.6670 O.2       11 UNK        -0.5000 
     69 N          -1.1958  -21.9434  -47.6058 N.am      12 UNK        -0.5000 
     70 CA         -2.5264  -22.0073  -48.2049 C.3       12 UNK         0.1400 
     71 CB         -3.3253  -20.7544  -47.8221 C.3       12 UNK        -0.1800 
     72 C          -3.3002  -23.2750  -47.8130 C.2       12 UNK         0.5000 
     73 O          -4.0019  -23.8320  -48.6550 O.2       12 UNK        -0.5000 
     74 N          -3.1381  -23.7290  -46.5621 N.am      13 UNK        -0.5000 
     75 CA         -3.7158  -24.9792  -46.0675 C.3       13 UNK         0.1400 
     76 CB         -3.5736  -25.0492  -44.5396 C.3       13 UNK        -0.1800 
     77 C          -3.0945  -26.2175  -46.7407 C.2       13 UNK         0.5000 
     78 O          -3.8192  -27.1625  -47.0537 O.2       13 UNK        -0.5000 
     79 N          -1.7753  -26.1784  -46.9753 N.am      14 UNK        -0.5000 
     80 CA         -1.0296  -27.2124  -47.6918 C.3       14 UNK         0.1400 
     81 CB          0.4762  -27.0109  -47.4602 C.3       14 UNK        -0.1800 
     82 C          -1.3584  -27.2437  -49.1969 C.2       14 UNK         0.5000 
     83 O          -1.5491  -28.3264  -49.7522 O.2       14 UNK        -0.5000 
     84 N          -1.4228  -26.0619  -49.8265 N.am      15 UNK        -0.5000 
     85 CA         -1.7421  -25.8870  -51.2456 C.3       15 UNK         0.1400 
     86 CB         -1.3895  -24.4510  -51.6672 C.3       15 UNK        -0.1800 
     87 C          -3.2122  -26.1981  -51.5853 C.2       15 UNK         0.5000 
     88 O          -3.4811  -26.7022  -52.6761 O.2       15 UNK        -0.5000 
     89 N          -4.1141  -25.8907  -50.6419 N.am      16 UNK        -0.5000 
     90 CA         -5.5773  -25.9189  -50.7145 C.3       16 UNK         0.1400 
     91 CB         -6.1125  -27.2850  -51.1883 C.3       16 UNK        -0.1800 
     92 C          -6.1448  -24.7602  -51.5558 C.2       16 UNK         0.5000 
     93 O          -5.4540  -24.1922  -52.4053 O.2       16 UNK        -0.5000 
     94 N          -7.4226  -24.4368  -51.3149 N.am      17 UNK        -0.5000 
     95 CA         -8.1554  -23.3118  -51.9129 C.3       17 UNK         0.1400 
     96 CB         -9.5474  -23.2332  -51.2669 C.3       17 UNK        -0.1800 
     97 C          -8.2773  -23.3467  -53.4511 C.2       17 UNK         0.5000 
     98 O          -8.5583  -22.3139  -54.0592 O.2       17 UNK        -0.5000 
     99 N          -8.0542  -24.5214  -54.0542 N.am      18 UNK        -0.5000 
    100 CA        -7.9767  -24.7168  -55.5008 C.3       18 UNK         0.1400 
    101 CB        -8.0331  -26.2232  -55.7988 C.3       18 UNK        -0.1800 
    102 C         -6.7175  -24.0906  -56.1364 C.2       18 UNK         0.5000 
    103 O         -6.7492  -23.7748  -57.3268 O.2       18 UNK        -0.5000 
    104 N         -5.6414  -23.9333  -55.3520 N.am      19 UNK        -0.5000 
    105 CA        -4.3569  -23.3909  -55.7977 C.3       19 UNK         0.1400 
    106 CB        -3.2687  -24.4559  -55.5934 C.3       19 UNK        -0.1800 
    107 C         -3.9810  -22.0974  -55.0563 C.2       19 UNK         0.5000 
    108 O         -3.3683  -21.2175  -55.6628 O.2       19 UNK        -0.5000 
    109 N         -4.3278  -22.0006  -53.7657 N.am      20 UNK        -0.5000 
    110 CA        -4.0186  -20.8636  -52.9022 C.3       20 UNK         0.1400 
    111 CB        -4.3451  -21.2375  -51.4484 C.3       20 UNK        -0.1800 
    112 C         -4.7804  -19.5904  -53.3149 C.2       20 UNK         0.5000 
    113 O         -6.0063  -19.6220  -53.4346 O.2       20 UNK        -0.5000 
    114 N         -4.0405  -18.4878  -53.4859 N.am      21 UNK        -0.5000 
    115 CA        -4.5814  -17.1581  -53.7917 C.3       21 UNK         0.1400 
    116 CB        -3.5130  -16.3651  -54.5617 C.3       21 UNK        -0.1800 
    117 C         -5.0222  -16.3809  -52.5323 C.2       21 UNK         0.5000 
    118 O         -5.6698  -15.3408  -52.6567 O.2       21 UNK        -0.5000 
    119 N         -4.6379  -16.8822  -51.3527 N.am      22 UNK        -0.5000 
    120 CA        -4.9387  -16.3310  -50.0254 C.3       22 UNK         0.1400 
    121 C         -6.4595  -16.3669  -49.7060 C.2       22 UNK         0.5000 
    122 N         -7.0019  -15.3122  -49.1131 N.am      22 UNK        -0.7600 
    123 O         -7.1403  -17.3607  -49.9490 O.2       22 UNK        -0.5000 
    124 C124       -4.1424  -17.0831  -48.9268 C.3       23 UNK        -0.0398 
    125 S125       -2.3413  -16.7713  -48.9605 S.3       23 UNK        -0.2404 
    126 C126       -1.7790  -17.8443  -50.3217 C.3       23 UNK        -0.0205 
    127 H127        5.4393  -13.9996  -43.4428 H         1 UNK         0.0600 
    128 H128        6.0499  -15.5692  -43.9751 H         1 UNK         0.0600 
    129 H129        6.4897  -14.1049  -44.8588 H         1 UNK         0.0600 
    130 H130        5.2925  -13.7358  -46.7100 H         1 UNK         0.3000 
    131 H131        2.9402  -15.2594  -47.3168 H         1 UNK         0.0600 
    132 H132        3.8905  -12.9204  -49.0129 H         1 UNK         0.0800 
    133 H133        4.7752  -14.4184  -48.9935 H         1 UNK         0.0800 
    134 H134        3.6941  -16.6913  -49.0857 H         1 UNK         0.0800 
    135 H135        3.8833  -16.6204  -50.8185 H         1 UNK         0.0800 
    136 H136        0.3545  -16.1649  -50.0874 H         1 UNK         0.1150 
    137 H137       -0.6485  -20.3055  -50.4265 H         1 UNK         0.1150 
    138 H138        3.4622  -19.1281  -50.2714 H         1 UNK         0.1150 
    139 H139        0.9868  -21.9792  -50.5478 H         1 UNK         0.0800 
    140 H140        2.3985  -21.4641  -51.4312 H         1 UNK         0.0800 
    141 H141        1.3697  -20.5569  -47.8212 H         1 UNK         0.0800 
    142 H142        2.7161  -21.1483  -46.9077 H         1 UNK         0.0800 
    143 H143        1.6853  -23.5268  -47.1581 H         1 UNK         0.0600 
    144 H144        1.1950  -21.5352  -45.2423 H         1 UNK         0.3000 
    145 H145       -0.7198  -23.4733  -42.9398 H         1 UNK         0.0600 
    146 H146        1.1925  -22.7881  -41.5137 H         1 UNK         0.0600 
    147 H147        1.6712  -24.0871  -42.5955 H         1 UNK         0.0600 
    148 H148        2.1664  -22.4342  -42.9400 H         1 UNK         0.0600 
    149 H149        0.3649  -20.7658  -43.1021 H         1 UNK         0.3000 
    150 H150       -2.7204  -19.2698  -44.0986 H         1 UNK         0.0600 
    151 H151       -2.8434  -19.5494  -41.6095 H         1 UNK         0.0600 
    152 H152       -2.2791  -17.9466  -42.0583 H         1 UNK         0.0600 
    153 H153       -1.1328  -19.1521  -41.4782 H         1 UNK         0.0600 
    154 H154       -0.2332  -18.0654  -43.5367 H         1 UNK         0.3000 
    155 H155        1.2855  -18.4678  -46.7633 H         1 UNK         0.0600 
    156 H156        1.1692  -15.8570  -46.1668 H         1 UNK         0.0600 
    157 H157        0.0678  -16.5765  -47.3221 H         1 UNK         0.0600 
    158 H158       -0.4701  -16.2559  -45.6844 H         1 UNK         0.0600 
    159 H159        2.2918  -16.9756  -44.7018 H         1 UNK         0.3000 
    160 H160        3.8220  -19.4513  -42.6708 H         1 UNK         0.0600 
    161 H161        4.9902  -17.7580  -44.9422 H         1 UNK         0.0600 
    162 H162        5.2752  -19.4667  -44.6505 H         1 UNK         0.0600 
    163 H163        5.8753  -18.2751  -43.5071 H         1 UNK         0.0600 
    164 H164        3.5459  -16.5178  -43.2132 H         1 UNK         0.3000 
    165 H165        1.9849  -16.0112  -40.0494 H         1 UNK         0.0600 
    166 H166        3.6828  -14.2139  -39.9113 H         1 UNK         0.0600 
    167 H167        4.4382  -15.7706  -39.6101 H         1 UNK         0.0600 
    168 H168        4.6482  -14.9847  -41.1701 H         1 UNK         0.0600 
    169 H169        2.4555  -14.1442  -42.0682 H         1 UNK         0.3000 
    170 H170        0.3776  -14.5754  -44.4083 H         1 UNK         0.0600 
    171 H171       -1.8053  -14.8338  -43.3104 H         1 UNK         0.0600 
    172 H172       -1.4165  -13.5770  -42.1457 H         1 UNK         0.0600 
    173 H173       -1.6106  -13.1752  -43.8520 H         1 UNK         0.0600 
    174 H174        1.5423  -12.7728  -44.3010 H         1 UNK         0.3000 
    175 H175        1.7158   -9.9381  -42.1923 H         1 UNK         0.0600 
    176 H176        3.8448  -11.8480  -43.3091 H         1 UNK         0.0600 
    177 H177        4.0994  -10.1607  -42.8704 H         1 UNK         0.0600 
    178 H178        3.7049  -11.3397  -41.6288 H         1 UNK         0.0600 
    179 H179        2.0849  -11.0547  -44.9534 H         1 UNK         0.3000 
    180 H180       -0.1031   -8.6554  -46.3480 H         1 UNK         0.0600 
    181 H181        2.9159   -8.9758  -46.7834 H         1 UNK         0.0600 
    182 H182        2.0919   -7.4621  -46.4283 H         1 UNK         0.0600 
    183 H183        1.7672   -8.2984  -47.9385 H         1 UNK         0.0600 
    184 H184        1.4397  -10.8384  -47.4231 H         1 UNK         0.3000 
    185 H185       -0.6399  -13.4733  -46.4792 H         1 UNK         0.0600 
    186 H186       -2.1696  -12.5736  -48.2413 H         1 UNK         0.0600 
    187 H187       -0.7861  -12.2679  -49.2859 H         1 UNK         0.0600 
    188 H188       -1.2111  -13.9182  -48.8344 H         1 UNK         0.0600 
    189 H189        1.1043  -13.8458  -48.4520 H         1 UNK         0.3000 
    190 H190       -1.0358  -21.1666  -46.9644 H         1 UNK         0.3000 
    191 H191       -2.3961  -22.0149  -49.2876 H         1 UNK         0.0600 
    192 H192       -3.4638  -20.6815  -46.7425 H         1 UNK         0.0600 
    193 H193       -4.3143  -20.7609  -48.2816 H         1 UNK         0.0600 
    194 H194       -2.8137  -19.8510  -48.1514 H         1 UNK         0.0600 
    195 H195       -2.5543  -23.2077  -45.9220 H         1 UNK         0.3000 
    196 H196       -4.7817  -24.9732  -46.3053 H         1 UNK         0.0600 
    197 H197       -4.0338  -25.9568  -44.1472 H         1 UNK         0.0600 
    198 H198       -4.0638  -24.2021  -44.0594 H         1 UNK         0.0600 
    199 H199       -2.5294  -25.0509  -44.2279 H         1 UNK         0.0600 
    200 H200       -1.2434  -25.3843  -46.6349 H         1 UNK         0.3000 
    201 H201       -1.3062  -28.1814  -47.2708 H         1 UNK         0.0600 
    202 H202        0.7199  -27.0541  -46.3985 H         1 UNK         0.0600 
    203 H203        0.8203  -26.0492  -47.8412 H         1 UNK         0.0600 
    204 H204        1.0553  -27.7883  -47.9599 H         1 UNK         0.0600 
    205 H205       -1.1788  -25.2198  -49.3097 H         1 UNK         0.3000 
    206 H206       -1.1167  -26.5728  -51.8208 H         1 UNK         0.0600 
    207 H207       -0.3306  -24.2433  -51.5124 H         1 UNK         0.0600 
    208 H208       -1.6027  -24.2863  -52.7238 H         1 UNK         0.0600 
    209 H209       -1.9601  -23.7165  -51.0988 H         1 UNK         0.0600 
    210 H210       -3.7659  -25.4046  -49.8218 H         1 UNK         0.3000 
    211 H211       -5.9147  -25.7656  -49.6883 H         1 UNK         0.0600 
    212 H212       -5.9254  -27.4542  -52.2490 H         1 UNK         0.0600 
    213 H213       -7.1903  -27.3546  -51.0381 H         1 UNK         0.0600 
    214 H214       -5.6552  -28.1025  -50.6307 H         1 UNK         0.0600 
    215 H215       -7.9276  -24.9644  -50.6175 H         1 UNK         0.3000 
    216 H216       -7.6129  -22.3985  -51.6616 H         1 UNK         0.0600 
    217 H217      -10.1147  -22.3875  -51.6582 H         1 UNK         0.0600 
    218 H218       -9.4755  -23.1002  -50.1873 H         1 UNK         0.0600 
    219 H219      -10.1297  -24.1355  -51.4578 H         1 UNK         0.0600 
    220 H220       -7.8393  -25.3191  -53.4751 H         1 UNK         0.3000 
    221 H221       -8.8485  -24.2442  -55.9581 H         1 UNK         0.0600 
    222 H222       -7.1911  -26.7533  -55.3515 H         1 UNK         0.0600 
    223 H223       -8.9523  -26.6675  -55.4165 H         1 UNK         0.0600 
    224 H224       -8.0055  -26.4103  -56.8731 H         1 UNK         0.0600 
    225 H225       -5.7043  -24.1935  -54.3731 H         1 UNK         0.3000 
    226 H226       -4.3896  -23.1485  -56.8618 H         1 UNK         0.0600 
    227 H227       -3.4815  -25.3526  -56.1755 H         1 UNK         0.0600 
    228 H228       -2.2919  -24.0863  -55.9079 H         1 UNK         0.0600 
    229 H229       -3.1895  -24.7492  -54.5467 H         1 UNK         0.0600 
    230 H230       -4.8092  -22.7781  -53.3206 H         1 UNK         0.3000 
    231 H231       -2.9445  -20.6782  -52.9702 H         1 UNK         0.0600 
    232 H232       -3.8237  -22.1456  -51.1486 H         1 UNK         0.0600 
    233 H233       -5.4121  -21.4119  -51.3076 H         1 UNK         0.0600 
    234 H234       -4.0510  -20.4437  -50.7628 H         1 UNK         0.0600 
    235 H235       -3.0352  -18.5547  -53.4180 H         1 UNK         0.3000 
    236 H236       -5.4569  -17.2636  -54.4360 H         1 UNK         0.0600 
    237 H237       -3.8853  -15.3801  -54.8463 H         1 UNK         0.0600 
    238 H238       -2.6130  -16.2153  -53.9638 H         1 UNK         0.0600 
    239 H239       -3.2258  -16.8788  -55.4794 H         1 UNK         0.0600 
    240 H240       -4.1519  -17.7627  -51.3627 H         1 UNK         0.3000 
    241 H241       -4.6185  -15.2871  -50.0276 H         1 UNK         0.0600 
    242 H242       -6.4617  -14.4881  -48.8980 H         1 UNK         0.3800 
    243 H243       -7.9844  -15.3301  -48.8869 H         1 UNK         0.3800 
    244 H244       -4.3326  -18.1558  -48.9777 H         1 UNK         0.0800 
    245 H245       -4.4832  -16.7716  -47.9376 H         1 UNK         0.0800 
    246 H246       -1.9603  -17.3381  -51.2699 H         1 UNK         0.0800 
    247 H247       -2.3769  -18.7553  -50.3271 H         1 UNK         0.0800 
@<TRIPOS>BOND
     1    1    2 1    
     2    1  127 1    
     3    1  128 1    
     4    1  129 1    
     5    2    3 2    
     6    2    4 am   BACKBONE|DICT|INTERRES
     7    4    5 1    
     8    4  130 1    
     9    5    6 1    
    10    5   65 1    
    11    5  131 1    
    12    6    7 1    
    13    6  132 1    
    14    6  133 1    
    15    7    8 1    
    16    8    9 1    
    17    8  134 1    
    18    8  135 1    
    19    9   10 ar   
    20    9   14 ar   
    21   10   11 ar   
    22   10  136 1    
    23   11   12 ar   
    24   11  126 1    
    25   12   13 ar   
    26   12  137 1    
    27   13   14 ar   
    28   13   15 1    
    29   14  138 1    
    30   15   16 1    
    31   15  139 1    
    32   15  140 1    
    33   16   17 1    
    34   17   18 1    
    35   17  141 1    
    36   17  142 1    
    37   18   19 1    
    38   18   67 1    
    39   18  143 1    
    40   19   20 am   BACKBONE|DICT|INTERRES
    41   19  144 1    
    42   20   21 2    
    43   20   22 1    
    44   22   23 1    
    45   22   24 1    
    46   22  145 1    
    47   23  146 1    
    48   23  147 1    
    49   23  148 1    
    50   24   25 am   BACKBONE|DICT|INTERRES
    51   24  149 1    
    52   25   26 2    
    53   25   27 1    
    54   27   28 1    
    55   27   29 1    
    56   27  150 1    
    57   28  151 1    
    58   28  152 1    
    59   28  153 1    
    60   29   30 am   BACKBONE|DICT|INTERRES
    61   29  154 1    
    62   30   31 2    
    63   30   32 1    
    64   32   33 1    
    65   32   34 1    
    66   32  155 1    
    67   33  156 1    
    68   33  157 1    
    69   33  158 1    
    70   34   35 am   BACKBONE|DICT|INTERRES
    71   34  159 1    
    72   35   36 2    
    73   35   37 1    
    74   37   38 1    
    75   37   39 1    
    76   37  160 1    
    77   38  161 1    
    78   38  162 1    
    79   38  163 1    
    80   39   40 am   BACKBONE|DICT|INTERRES
    81   39  164 1    
    82   40   41 2    
    83   40   42 1    
    84   42   43 1    
    85   42   44 1    
    86   42  165 1    
    87   43  166 1    
    88   43  167 1    
    89   43  168 1    
    90   44   45 am   BACKBONE|DICT|INTERRES
    91   44  169 1    
    92   45   46 2    
    93   45   47 1    
    94   47   48 1    
    95   47   49 1    
    96   47  170 1    
    97   48  171 1    
    98   48  172 1    
    99   48  173 1    
   100   49   50 am   BACKBONE|DICT|INTERRES
   101   49  174 1    
   102   50   51 2    
   103   50   52 1    
   104   52   53 1    
   105   52   54 1    
   106   52  175 1    
   107   53  176 1    
   108   53  177 1    
   109   53  178 1    
   110   54   55 am   BACKBONE|DICT|INTERRES
   111   54  179 1    
   112   55   56 2    
   113   55   57 1    
   114   57   58 1    
   115   57   59 1    
   116   57  180 1    
   117   58  181 1    
   118   58  182 1    
   119   58  183 1    
   120   59   60 am   BACKBONE|DICT|INTERRES
   121   59  184 1    
   122   60   61 2    
   123   60   62 1    
   124   62   63 1    
   125   62   64 1    
   126   62  185 1    
   127   63  186 1    
   128   63  187 1    
   129   63  188 1    
   130   64   65 am   BACKBONE|DICT|INTERRES
   131   64  189 1    
   132   65   66 2    
   133   67   68 2    
   134   67   69 am   BACKBONE|DICT|INTERRES
   135   69   70 1    
   136   69  190 1    
   137   70   71 1    
   138   70   72 1    
   139   70  191 1    
   140   71  192 1    
   141   71  193 1    
   142   71  194 1    
   143   72   73 2    
   144   72   74 am   BACKBONE|DICT|INTERRES
   145   74   75 1    
   146   74  195 1    
   147   75   76 1    
   148   75   77 1    
   149   75  196 1    
   150   76  197 1    
   151   76  198 1    
   152   76  199 1    
   153   77   78 2    
   154   77   79 am   BACKBONE|DICT|INTERRES
   155   79   80 1    
   156   79  200 1    
   157   80   81 1    
   158   80   82 1    
   159   80  201 1    
   160   81  202 1    
   161   81  203 1    
   162   81  204 1    
   163   82   83 2    
   164   82   84 am   BACKBONE|DICT|INTERRES
   165   84   85 1    
   166   84  205 1    
   167   85   86 1    
   168   85   87 1    
   169   85  206 1    
   170   86  207 1    
   171   86  208 1    
   172   86  209 1    
   173   87   88 2    
   174   87   89 am   BACKBONE|DICT|INTERRES
   175   89   90 1    
   176   89  210 1    
   177   90   91 1    
   178   90   92 1    
   179   90  211 1    
   180   91  212 1    
   181   91  213 1    
   182   91  214 1    
   183   92   93 2    
   184   92   94 am   BACKBONE|DICT|INTERRES
   185   94   95 1    
   186   94  215 1    
   187   95   96 1    
   188   95   97 1    
   189   95  216 1    
   190   96  217 1    
   191   96  218 1    
   192   96  219 1    
   193   97   98 2    
   194   97   99 am   BACKBONE|DICT|INTERRES
   195   99  100 1    
   196   99  220 1    
   197  100  101 1    
   198  100  102 1    
   199  100  221 1    
   200  101  222 1    
   201  101  223 1    
   202  101  224 1    
   203  102  103 2    
   204  102  104 am   BACKBONE|DICT|INTERRES
   205  104  105 1    
   206  104  225 1    
   207  105  106 1    
   208  105  107 1    
   209  105  226 1    
   210  106  227 1    
   211  106  228 1    
   212  106  229 1    
   213  107  108 2    
   214  107  109 am   BACKBONE|DICT|INTERRES
   215  109  110 1    
   216  109  230 1    
   217  110  111 1    
   218  110  112 1    
   219  110  231 1    
   220  111  232 1    
   221  111  233 1    
   222  111  234 1    
   223  112  113 2    
   224  112  114 am   BACKBONE|DICT|INTERRES
   225  114  115 1    
   226  114  235 1    
   227  115  116 1    
   228  115  117 1    
   229  115  236 1    
   230  116  237 1    
   231  116  238 1    
   232  116  239 1    
   233  117  118 2    
   234  117  119 am   BACKBONE|DICT|INTERRES
   235  119  120 1    
   236  119  240 1    
   237  120  121 1    
   238  120  124 1    
   239  120  241 1    
   240  121  122 am   BACKBONE|DICT|INTERRES
   241  121  123 2    
   242  122  242 1    
   243  122  243 1    
   244  124  125 1    
   245  124  244 1    
   246  124  245 1    
   247  125  126 1    
   248  126  246 1    
   249  126  247 1    
@<TRIPOS>SUBSTRUCTURE
     1 UNK         1 GROUP             0       ****    0 ROOT    
