@<TRIPOS>MOLECULE
3R540
247   249    1
SMALL
USER_CHARGES


@<TRIPOS>ATOM
      1 CA         -0.6606  -11.5506  -44.8928 C.3       0 UNK        -0.1800 
      2 C           0.4273  -11.4084  -45.9455 C.2       0 UNK         0.5000 
      3 O           1.4658  -10.8003  -45.6859 O.2       0 UNK        -0.5000 
      4 N           0.1971  -11.9824  -47.1337 N.am      1 UNK        -0.5000 
      5 CA          1.0956  -11.9261  -48.2965 C.3       1 UNK         0.1400 
      6 C6          0.4059  -12.4333  -49.5868 C.3       23 UNK        -0.0398 
      7 S7         -0.2699  -14.1311  -49.4803 S.3       23 UNK        -0.2404 
      8 C8          1.1319  -15.1144  -50.0986 C.3       23 UNK        -0.0205 
      9 C9          0.6555  -16.3725  -50.8011 C.ar      23 UNK        -0.0193 
     10 C10         0.4302  -16.3543  -52.1801 C.ar      23 UNK        -0.1150 
     11 C11         0.0044  -17.5065  -52.8446 C.ar      23 UNK        -0.0193 
     12 C12        -0.1838  -18.6868  -52.1200 C.ar      23 UNK        -0.1150 
     13 C13         0.0351  -18.7174  -50.7393 C.ar      23 UNK        -0.0193 
     14 C14         0.4496  -17.5541  -50.0828 C.ar      23 UNK        -0.1150 
     15 C15        -0.1988  -20.0003  -49.9576 C.3       23 UNK        -0.0205 
     16 S16         1.3584  -20.7072  -49.3174 S.3       23 UNK        -0.2404 
     17 C17         1.1115  -20.5534  -47.5099 C.3       23 UNK        -0.0398 
     18 CA          0.5697  -21.8314  -46.8129 C.3       11 UNK         0.1400 
     19 N           0.3748  -21.6180  -45.3758 N.am      11 UNK        -0.5000 
     20 C          -0.0056  -22.5561  -44.4950 C.2       10 UNK         0.5000 
     21 O          -0.1556  -23.7447  -44.7757 O.2       10 UNK        -0.5000 
     22 CA         -0.3337  -22.0766  -43.0709 C.3       10 UNK         0.1400 
     23 CB          0.9485  -21.9058  -42.2436 C.3       10 UNK        -0.1800 
     24 N          -1.1107  -20.8350  -43.0607 N.am      10 UNK        -0.5000 
     25 C          -2.3424  -20.7078  -43.5770 C.2       9 UNK         0.5000 
     26 O          -2.9702  -21.6391  -44.0779 O.2       9 UNK        -0.5000 
     27 CA         -2.9667  -19.3016  -43.5757 C.3       9 UNK         0.1400 
     28 CB         -3.5512  -18.9652  -42.1961 C.3       9 UNK        -0.1800 
     29 N          -2.0201  -18.2635  -43.9821 N.am      9 UNK        -0.5000 
     30 C          -1.4547  -18.1790  -45.1950 C.2       8 UNK         0.5000 
     31 O          -1.7117  -18.9451  -46.1247 O.2       8 UNK        -0.5000 
     32 CA         -0.3715  -17.0981  -45.3780 C.3       8 UNK         0.1400 
     33 CB         -0.9895  -15.7145  -45.6285 C.3       8 UNK        -0.1800 
     34 N           0.5368  -17.0308  -44.2324 N.am      8 UNK        -0.5000 
     35 C           1.3667  -18.0209  -43.8725 C.2       7 UNK         0.5000 
     36 O           1.4871  -19.0735  -44.4999 O.2       7 UNK        -0.5000 
     37 CA          2.1562  -17.8224  -42.5675 C.3       7 UNK         0.1400 
     38 CB          3.4185  -16.9792  -42.8012 C.3       7 UNK        -0.1800 
     39 N           1.3381  -17.2120  -41.5192 N.am      7 UNK        -0.5000 
     40 C           0.3257  -17.8348  -40.8986 C.2       6 UNK         0.5000 
     41 O          -0.0029  -18.9972  -41.1269 O.2       6 UNK        -0.5000 
     42 CA         -0.4826  -17.0081  -39.8832 C.3       6 UNK         0.1400 
     43 CB          0.2082  -17.0095  -38.5115 C.3       6 UNK        -0.1800 
     44 N          -0.6893  -15.6282  -40.3212 N.am      6 UNK        -0.5000 
     45 C          -1.4055  -15.2691  -41.3962 C.2       5 UNK         0.5000 
     46 O          -2.0045  -16.0639  -42.1186 O.2       5 UNK        -0.5000 
     47 CA         -1.3966  -13.7740  -41.7563 C.3       5 UNK         0.1400 
     48 CB         -2.4970  -13.0216  -40.9945 C.3       5 UNK        -0.1800 
     49 N          -0.0996  -13.1463  -41.4920 N.am      5 UNK        -0.5000 
     50 C           1.0258  -13.4455  -42.1515 C.2       4 UNK         0.5000 
     51 O           1.0864  -14.2660  -43.0731 O.2       4 UNK        -0.5000 
     52 CA          2.2990  -12.7340  -41.6859 C.3       4 UNK         0.1400 
     53 CB          3.0676  -13.5922  -40.6656 C.3       4 UNK        -0.1800 
     54 N           3.1138  -12.4810  -42.8633 N.am      4 UNK        -0.5000 
     55 C           4.0918  -11.5769  -42.9723 C.2       3 UNK         0.5000 
     56 O           4.4870  -10.8889  -42.0297 O.2       3 UNK        -0.5000 
     57 CA          4.6978  -11.3620  -44.3745 C.3       3 UNK         0.1400 
     58 CB          6.2402  -11.3192  -44.3565 C.3       3 UNK        -0.1800 
     59 N           4.1773  -12.2837  -45.3935 N.am      3 UNK        -0.5000 
     60 C           4.4657  -13.5804  -45.5877 C.2       2 UNK         0.5000 
     61 O           5.2868  -14.2052  -44.9167 O.2       2 UNK        -0.5000 
     62 CA          3.6799  -14.3148  -46.6992 C.3       2 UNK         0.1400 
     63 CB          3.2312  -15.7136  -46.2481 C.3       2 UNK        -0.1800 
     64 N           2.4906  -13.5790  -47.1308 N.am      2 UNK        -0.5000 
     65 C           2.4549  -12.6253  -48.0701 C.2       1 UNK         0.5000 
     66 O           3.4373  -12.2746  -48.7237 O.2       1 UNK        -0.5000 
     67 C          -0.7200  -22.3678  -47.4698 C.2       11 UNK         0.5000 
     68 O          -0.6770  -23.4062  -48.1306 O.2       11 UNK        -0.5000 
     69 N          -1.8448  -21.6718  -47.2460 N.am      12 UNK        -0.5000 
     70 CA         -3.1581  -22.0440  -47.7692 C.3       12 UNK         0.1400 
     71 CB         -4.1825  -20.9511  -47.4331 C.3       12 UNK        -0.1800 
     72 C          -3.6320  -23.4210  -47.2745 C.2       12 UNK         0.5000 
     73 O          -4.1126  -24.2130  -48.0833 O.2       12 UNK        -0.5000 
     74 N          -3.4490  -23.6992  -45.9769 N.am      13 UNK        -0.5000 
     75 CA         -3.7633  -24.9812  -45.3475 C.3       13 UNK         0.1400 
     76 CB         -3.5905  -24.8683  -43.8253 C.3       13 UNK        -0.1800 
     77 C          -2.9254  -26.1427  -45.9101 C.2       13 UNK         0.5000 
     78 O          -3.4910  -27.1805  -46.2559 O.2       13 UNK        -0.5000 
     79 N          -1.6052  -25.9385  -46.0291 N.am      14 UNK        -0.5000 
     80 CA         -0.6595  -26.9128  -46.5806 C.3       14 UNK         0.1400 
     81 CB          0.7768  -26.4093  -46.3736 C.3       14 UNK        -0.1800 
     82 C          -0.9127  -27.2251  -48.0666 C.2       14 UNK         0.5000 
     83 O          -0.7846  -28.3789  -48.4773 O.2       14 UNK        -0.5000 
     84 N          -1.2942  -26.1982  -48.8359 N.am      15 UNK        -0.5000 
     85 CA         -1.6421  -26.3007  -50.2521 C.3       15 UNK         0.1400 
     86 CB         -1.4419  -24.9250  -50.9039 C.3       15 UNK        -0.1800 
     87 C          -3.0782  -26.8000  -50.5058 C.2       15 UNK         0.5000 
     88 O          -3.4474  -26.9630  -51.6687 O.2       15 UNK        -0.5000 
     89 N          -3.8817  -26.9795  -49.4453 N.am      16 UNK        -0.5000 
     90 CA         -5.3100  -27.3252  -49.4690 C.3       16 UNK         0.1400 
     91 CB         -5.5070  -28.7812  -49.9385 C.3       16 UNK        -0.1800 
     92 C          -6.1513  -26.3095  -50.2764 C.2       16 UNK         0.5000 
     93 O          -7.0598  -26.6933  -51.0144 O.2       16 UNK        -0.5000 
     94 N          -5.7848  -25.0272  -50.1408 N.am      17 UNK        -0.5000 
     95 CA         -6.3066  -23.8351  -50.8141 C.3       17 UNK         0.1400 
     96 CB         -7.7957  -23.6201  -50.4786 C.3       17 UNK        -0.1800 
     97 C          -6.0406  -23.7643  -52.3347 C.2       17 UNK         0.5000 
     98 O          -6.4800  -22.8011  -52.9637 O.2       17 UNK        -0.5000 
     99 N          -5.3185  -24.7391  -52.9098 N.am      18 UNK        -0.5000 
    100 CA        -5.0548  -24.8203  -54.3491 C.3       18 UNK         0.1400 
    101 CB        -4.5238  -26.2166  -54.7059 C.3       18 UNK        -0.1800 
    102 C         -4.0894  -23.7280  -54.8385 C.2       18 UNK         0.5000 
    103 O         -4.3416  -23.1147  -55.8755 O.2       18 UNK        -0.5000 
    104 N         -3.0175  -23.4832  -54.0708 N.am      19 UNK        -0.5000 
    105 CA        -2.0417  -22.4264  -54.3520 C.3       19 UNK         0.1400 
    106 CB        -0.7578  -22.6653  -53.5430 C.3       19 UNK        -0.1800 
    107 C         -2.6054  -21.0294  -54.0493 C.2       19 UNK         0.5000 
    108 O         -2.3149  -20.0859  -54.7803 O.2       19 UNK        -0.5000 
    109 N         -3.4258  -20.9326  -52.9930 N.am      20 UNK        -0.5000 
    110 CA        -4.0487  -19.6999  -52.4996 C.3       20 UNK         0.1400 
    111 CB        -4.6518  -19.9761  -51.1136 C.3       20 UNK        -0.1800 
    112 C         -5.1011  -19.0884  -53.4500 C.2       20 UNK         0.5000 
    113 O         -5.5494  -17.9669  -53.2123 O.2       20 UNK        -0.5000 
    114 N         -5.4597  -19.8137  -54.5179 N.am      21 UNK        -0.5000 
    115 CA        -6.3026  -19.3537  -55.6222 C.3       21 UNK         0.1400 
    116 CB        -6.7930  -20.5846  -56.4014 C.3       21 UNK        -0.1800 
    117 C         -5.6014  -18.3477  -56.5658 C.2       21 UNK         0.5000 
    118 O         -6.2510  -17.8421  -57.4828 O.2       21 UNK        -0.5000 
    119 N         -4.3038  -18.0875  -56.3474 N.am      22 UNK        -0.5000 
    120 CA        -3.4769  -17.0883  -57.0428 C.3       22 UNK         0.1400 
    121 C         -4.0648  -15.6440  -57.0649 C.2       22 UNK         0.5000 
    122 N         -3.7512  -14.8619  -58.0898 N.am      22 UNK        -0.7600 
    123 O         -4.7699  -15.2117  -56.1554 O.2       22 UNK        -0.5000 
    124 C124       -2.0211  -17.0950  -56.5009 C.3       23 UNK        -0.0398 
    125 S125       -1.8862  -16.7587  -54.7070 S.3       23 UNK        -0.2404 
    126 C126       -0.2530  -17.4720  -54.3426 C.3       23 UNK        -0.0205 
    127 H127       -1.4491  -10.8182  -45.0650 H         1 UNK         0.0600 
    128 H128       -0.2542  -11.3825  -43.8961 H         1 UNK         0.0600 
    129 H129       -1.1004  -12.5475  -44.9189 H         1 UNK         0.0600 
    130 H130       -0.6710  -12.4769  -47.2859 H         1 UNK         0.3000 
    131 H131        1.3285  -10.8708  -48.4554 H         1 UNK         0.0600 
    132 H132       -0.4302  -11.7725  -49.8192 H         1 UNK         0.0800 
    133 H133        1.0752  -12.3483  -50.4446 H         1 UNK         0.0800 
    134 H134        1.7855  -15.3781  -49.2665 H         1 UNK         0.0800 
    135 H135        1.7387  -14.5247  -50.7870 H         1 UNK         0.0800 
    136 H136        0.5775  -15.4397  -52.7374 H         1 UNK         0.1150 
    137 H137       -0.5089  -19.5801  -52.6323 H         1 UNK         0.1150 
    138 H138        0.6171  -17.5711  -49.0150 H         1 UNK         0.1150 
    139 H139       -0.9013  -19.7931  -49.1497 H         1 UNK         0.0800 
    140 H140       -0.6828  -20.7498  -50.5858 H         1 UNK         0.0800 
    141 H141        0.4691  -19.6976  -47.3071 H         1 UNK         0.0800 
    142 H142        2.0765  -20.2938  -47.0727 H         1 UNK         0.0800 
    143 H143        1.3275  -22.6106  -46.9176 H         1 UNK         0.0600 
    144 H144        0.5247  -20.6716  -45.0374 H         1 UNK         0.3000 
    145 H145       -0.9405  -22.8492  -42.5943 H         1 UNK         0.0600 
    146 H146        0.7183  -21.6607  -41.2067 H         1 UNK         0.0600 
    147 H147        1.5341  -22.8259  -42.2366 H         1 UNK         0.0600 
    148 H148        1.5840  -21.1151  -42.6421 H         1 UNK         0.0600 
    149 H149       -0.6818  -20.0361  -42.6027 H         1 UNK         0.3000 
    150 H150       -3.7859  -19.3031  -44.2976 H         1 UNK         0.0600 
    151 H151       -4.2736  -19.7201  -41.8832 H         1 UNK         0.0600 
    152 H152       -4.0691  -18.0061  -42.2114 H         1 UNK         0.0600 
    153 H153       -2.7763  -18.9143  -41.4312 H         1 UNK         0.0600 
    154 H154       -1.7960  -17.5581  -43.2855 H         1 UNK         0.3000 
    155 H155        0.2189  -17.3650  -46.2570 H         1 UNK         0.0600 
    156 H156       -1.5935  -15.3825  -44.7840 H         1 UNK         0.0600 
    157 H157       -1.6329  -15.7295  -46.5092 H         1 UNK         0.0600 
    158 H158       -0.2176  -14.9651  -45.8025 H         1 UNK         0.0600 
    159 H159        0.5224  -16.1793  -43.6820 H         1 UNK         0.3000 
    160 H160        2.4735  -18.8080  -42.2208 H         1 UNK         0.0600 
    161 H161        3.1798  -15.9607  -43.1064 H         1 UNK         0.0600 
    162 H162        4.0410  -17.4173  -43.5823 H         1 UNK         0.0600 
    163 H163        4.0260  -16.9231  -41.8980 H         1 UNK         0.0600 
    164 H164        1.5174  -16.2431  -41.3056 H         1 UNK         0.3000 
    165 H165       -1.4620  -17.4787  -39.7739 H         1 UNK         0.0600 
    166 H166       -0.3949  -16.4911  -37.7659 H         1 UNK         0.0600 
    167 H167        0.3606  -18.0285  -38.1531 H         1 UNK         0.0600 
    168 H168        1.1849  -16.5253  -38.5499 H         1 UNK         0.0600 
    169 H169       -0.2332  -14.9059  -39.7843 H         1 UNK         0.3000 
    170 H170       -1.6052  -13.6919  -42.8245 H         1 UNK         0.0600 
    171 H171       -3.4760  -13.4622  -41.1884 H         1 UNK         0.0600 
    172 H172       -2.3329  -13.0470  -39.9166 H         1 UNK         0.0600 
    173 H173       -2.5454  -11.9772  -41.3032 H         1 UNK         0.0600 
    174 H174       -0.0723  -12.4606  -40.7508 H         1 UNK         0.3000 
    175 H175        2.0247  -11.7799  -41.2309 H         1 UNK         0.0600 
    176 H176        3.4010  -14.5340  -41.1008 H         1 UNK         0.0600 
    177 H177        3.9488  -13.0696  -40.2936 H         1 UNK         0.0600 
    178 H178        2.4450  -13.8287  -39.8020 H         1 UNK         0.0600 
    179 H179        2.8283  -12.9971  -43.6847 H         1 UNK         0.3000 
    180 H180        4.3558  -10.3744  -44.6875 H         1 UNK         0.0600 
    181 H181        6.6698  -12.2303  -43.9401 H         1 UNK         0.0600 
    182 H182        6.5978  -10.4886  -43.7470 H         1 UNK         0.0600 
    183 H183        6.6445  -11.1816  -45.3594 H         1 UNK         0.0600 
    184 H184        3.4455  -11.8863  -45.9694 H         1 UNK         0.3000 
    185 H185        4.3579  -14.4345  -47.5466 H         1 UNK         0.0600 
    186 H186        4.0816  -16.3341  -45.9633 H         1 UNK         0.0600 
    187 H187        2.5657  -15.6469  -45.3895 H         1 UNK         0.0600 
    188 H188        2.7010  -16.2387  -47.0427 H         1 UNK         0.0600 
    189 H189        1.6339  -13.7819  -46.6373 H         1 UNK         0.3000 
    190 H190       -1.7990  -20.8182  -46.6962 H         1 UNK         0.3000 
    191 H191       -3.0697  -22.1014  -48.8558 H         1 UNK         0.0600 
    192 H192       -4.3075  -20.8327  -46.3566 H         1 UNK         0.0600 
    193 H193       -5.1599  -21.1892  -47.8546 H         1 UNK         0.0600 
    194 H194       -3.8779  -19.9867  -47.8403 H         1 UNK         0.0600 
    195 H195       -3.0873  -22.9699  -45.3661 H         1 UNK         0.3000 
    196 H196       -4.8131  -25.2008  -45.5526 H         1 UNK         0.0600 
    197 H197       -3.8303  -25.8114  -43.3329 H         1 UNK         0.0600 
    198 H198       -4.2513  -24.1071  -43.4101 H         1 UNK         0.0600 
    199 H199       -2.5677  -24.6054  -43.5542 H         1 UNK         0.0600 
    200 H200       -1.2090  -25.0593  -45.7055 H         1 UNK         0.3000 
    201 H201       -0.7771  -27.8438  -46.0225 H         1 UNK         0.0600 
    202 H202        0.9980  -26.2751  -45.3146 H         1 UNK         0.0600 
    203 H203        0.9431  -25.4541  -46.8734 H         1 UNK         0.0600 
    204 H204        1.5029  -27.1201  -46.7700 H         1 UNK         0.0600 
    205 H205       -1.3156  -25.2659  -48.4316 H         1 UNK         0.3000 
    206 H206       -0.9618  -27.0062  -50.7334 H         1 UNK         0.0600 
    207 H207       -0.4254  -24.5603  -50.7540 H         1 UNK         0.0600 
    208 H208       -1.6093  -24.9820  -51.9789 H         1 UNK         0.0600 
    209 H209       -2.1284  -24.1817  -50.4958 H         1 UNK         0.0600 
    210 H210       -3.4979  -26.7904  -48.5280 H         1 UNK         0.3000 
    211 H211       -5.6577  -27.2583  -48.4372 H         1 UNK         0.0600 
    212 H212       -5.2250  -28.9121  -50.9837 H         1 UNK         0.0600 
    213 H213       -6.5494  -29.0861  -49.8401 H         1 UNK         0.0600 
    214 H214       -4.9103  -29.4706  -49.3412 H         1 UNK         0.0600 
    215 H215       -5.0461  -24.8340  -49.4640 H         1 UNK         0.3000 
    216 H216       -5.7543  -23.0008  -50.3803 H         1 UNK         0.0600 
    217 H217       -8.1444  -22.6536  -50.8445 H         1 UNK         0.0600 
    218 H218       -7.9633  -23.6363  -49.4016 H         1 UNK         0.0600 
    219 H219       -8.4281  -24.3851  -50.9295 H         1 UNK         0.0600 
    220 H220       -4.9741  -25.5027  -52.3401 H         1 UNK         0.3000 
    221 H221       -6.0044  -24.6821  -54.8708 H         1 UNK         0.0600 
    222 H222       -3.5456  -26.4044  -54.2626 H         1 UNK         0.0600 
    223 H223       -5.2028  -26.9977  -54.3631 H         1 UNK         0.0600 
    224 H224       -4.4181  -26.3270  -55.7858 H         1 UNK         0.0600 
    225 H225       -2.8765  -24.0426  -53.2437 H         1 UNK         0.3000 
    226 H226       -1.7852  -22.4637  -55.4131 H         1 UNK         0.0600 
    227 H227       -0.3382  -23.6508  -53.7456 H         1 UNK         0.0600 
    228 H228        0.0051  -21.9302  -53.8029 H         1 UNK         0.0600 
    229 H229       -0.9325  -22.5832  -52.4700 H         1 UNK         0.0600 
    230 H230       -3.6419  -21.7756  -52.4849 H         1 UNK         0.3000 
    231 H231       -3.2584  -18.9548  -52.3833 H         1 UNK         0.0600 
    232 H232       -3.8978  -20.3572  -50.4256 H         1 UNK         0.0600 
    233 H233       -5.4642  -20.7009  -51.1671 H         1 UNK         0.0600 
    234 H234       -5.0565  -19.0636  -50.6741 H         1 UNK         0.0600 
    235 H235       -5.0544  -20.7333  -54.6216 H         1 UNK         0.3000 
    236 H236       -7.1731  -18.8484  -55.1993 H         1 UNK         0.0600 
    237 H237       -7.4985  -20.2996  -57.1828 H         1 UNK         0.0600 
    238 H238       -5.9663  -21.1095  -56.8814 H         1 UNK         0.0600 
    239 H239       -7.3029  -21.2911  -55.7456 H         1 UNK         0.0600 
    240 H240       -3.8429  -18.5672  -55.5849 H         1 UNK         0.3000 
    241 H241       -3.4368  -17.4203  -58.0818 H         1 UNK         0.0600 
    242 H242       -4.1127  -13.9207  -58.1142 H         1 UNK         0.3800 
    243 H243       -3.1712  -15.1863  -58.8485 H         1 UNK         0.3800 
    244 H244       -1.5765  -18.0705  -56.7025 H         1 UNK         0.0800 
    245 H245       -1.4034  -16.3741  -57.0391 H         1 UNK         0.0800 
    246 H246        0.5189  -16.8826  -54.8396 H         1 UNK         0.0800 
    247 H247       -0.1872  -18.4788  -54.7570 H         1 UNK         0.0800 
@<TRIPOS>BOND
     1    1    2 1    
     2    1  127 1    
     3    1  128 1    
     4    1  129 1    
     5    2    3 2    
     6    2    4 am   BACKBONE|DICT|INTERRES
     7    4    5 1    
     8    4  130 1    
     9    5    6 1    
    10    5   65 1    
    11    5  131 1    
    12    6    7 1    
    13    6  132 1    
    14    6  133 1    
    15    7    8 1    
    16    8    9 1    
    17    8  134 1    
    18    8  135 1    
    19    9   10 ar   
    20    9   14 ar   
    21   10   11 ar   
    22   10  136 1    
    23   11   12 ar   
    24   11  126 1    
    25   12   13 ar   
    26   12  137 1    
    27   13   14 ar   
    28   13   15 1    
    29   14  138 1    
    30   15   16 1    
    31   15  139 1    
    32   15  140 1    
    33   16   17 1    
    34   17   18 1    
    35   17  141 1    
    36   17  142 1    
    37   18   19 1    
    38   18   67 1    
    39   18  143 1    
    40   19   20 am   BACKBONE|DICT|INTERRES
    41   19  144 1    
    42   20   21 2    
    43   20   22 1    
    44   22   23 1    
    45   22   24 1    
    46   22  145 1    
    47   23  146 1    
    48   23  147 1    
    49   23  148 1    
    50   24   25 am   BACKBONE|DICT|INTERRES
    51   24  149 1    
    52   25   26 2    
    53   25   27 1    
    54   27   28 1    
    55   27   29 1    
    56   27  150 1    
    57   28  151 1    
    58   28  152 1    
    59   28  153 1    
    60   29   30 am   BACKBONE|DICT|INTERRES
    61   29  154 1    
    62   30   31 2    
    63   30   32 1    
    64   32   33 1    
    65   32   34 1    
    66   32  155 1    
    67   33  156 1    
    68   33  157 1    
    69   33  158 1    
    70   34   35 am   BACKBONE|DICT|INTERRES
    71   34  159 1    
    72   35   36 2    
    73   35   37 1    
    74   37   38 1    
    75   37   39 1    
    76   37  160 1    
    77   38  161 1    
    78   38  162 1    
    79   38  163 1    
    80   39   40 am   BACKBONE|DICT|INTERRES
    81   39  164 1    
    82   40   41 2    
    83   40   42 1    
    84   42   43 1    
    85   42   44 1    
    86   42  165 1    
    87   43  166 1    
    88   43  167 1    
    89   43  168 1    
    90   44   45 am   BACKBONE|DICT|INTERRES
    91   44  169 1    
    92   45   46 2    
    93   45   47 1    
    94   47   48 1    
    95   47   49 1    
    96   47  170 1    
    97   48  171 1    
    98   48  172 1    
    99   48  173 1    
   100   49   50 am   BACKBONE|DICT|INTERRES
   101   49  174 1    
   102   50   51 2    
   103   50   52 1    
   104   52   53 1    
   105   52   54 1    
   106   52  175 1    
   107   53  176 1    
   108   53  177 1    
   109   53  178 1    
   110   54   55 am   BACKBONE|DICT|INTERRES
   111   54  179 1    
   112   55   56 2    
   113   55   57 1    
   114   57   58 1    
   115   57   59 1    
   116   57  180 1    
   117   58  181 1    
   118   58  182 1    
   119   58  183 1    
   120   59   60 am   BACKBONE|DICT|INTERRES
   121   59  184 1    
   122   60   61 2    
   123   60   62 1    
   124   62   63 1    
   125   62   64 1    
   126   62  185 1    
   127   63  186 1    
   128   63  187 1    
   129   63  188 1    
   130   64   65 am   BACKBONE|DICT|INTERRES
   131   64  189 1    
   132   65   66 2    
   133   67   68 2    
   134   67   69 am   BACKBONE|DICT|INTERRES
   135   69   70 1    
   136   69  190 1    
   137   70   71 1    
   138   70   72 1    
   139   70  191 1    
   140   71  192 1    
   141   71  193 1    
   142   71  194 1    
   143   72   73 2    
   144   72   74 am   BACKBONE|DICT|INTERRES
   145   74   75 1    
   146   74  195 1    
   147   75   76 1    
   148   75   77 1    
   149   75  196 1    
   150   76  197 1    
   151   76  198 1    
   152   76  199 1    
   153   77   78 2    
   154   77   79 am   BACKBONE|DICT|INTERRES
   155   79   80 1    
   156   79  200 1    
   157   80   81 1    
   158   80   82 1    
   159   80  201 1    
   160   81  202 1    
   161   81  203 1    
   162   81  204 1    
   163   82   83 2    
   164   82   84 am   BACKBONE|DICT|INTERRES
   165   84   85 1    
   166   84  205 1    
   167   85   86 1    
   168   85   87 1    
   169   85  206 1    
   170   86  207 1    
   171   86  208 1    
   172   86  209 1    
   173   87   88 2    
   174   87   89 am   BACKBONE|DICT|INTERRES
   175   89   90 1    
   176   89  210 1    
   177   90   91 1    
   178   90   92 1    
   179   90  211 1    
   180   91  212 1    
   181   91  213 1    
   182   91  214 1    
   183   92   93 2    
   184   92   94 am   BACKBONE|DICT|INTERRES
   185   94   95 1    
   186   94  215 1    
   187   95   96 1    
   188   95   97 1    
   189   95  216 1    
   190   96  217 1    
   191   96  218 1    
   192   96  219 1    
   193   97   98 2    
   194   97   99 am   BACKBONE|DICT|INTERRES
   195   99  100 1    
   196   99  220 1    
   197  100  101 1    
   198  100  102 1    
   199  100  221 1    
   200  101  222 1    
   201  101  223 1    
   202  101  224 1    
   203  102  103 2    
   204  102  104 am   BACKBONE|DICT|INTERRES
   205  104  105 1    
   206  104  225 1    
   207  105  106 1    
   208  105  107 1    
   209  105  226 1    
   210  106  227 1    
   211  106  228 1    
   212  106  229 1    
   213  107  108 2    
   214  107  109 am   BACKBONE|DICT|INTERRES
   215  109  110 1    
   216  109  230 1    
   217  110  111 1    
   218  110  112 1    
   219  110  231 1    
   220  111  232 1    
   221  111  233 1    
   222  111  234 1    
   223  112  113 2    
   224  112  114 am   BACKBONE|DICT|INTERRES
   225  114  115 1    
   226  114  235 1    
   227  115  116 1    
   228  115  117 1    
   229  115  236 1    
   230  116  237 1    
   231  116  238 1    
   232  116  239 1    
   233  117  118 2    
   234  117  119 am   BACKBONE|DICT|INTERRES
   235  119  120 1    
   236  119  240 1    
   237  120  121 1    
   238  120  124 1    
   239  120  241 1    
   240  121  122 am   BACKBONE|DICT|INTERRES
   241  121  123 2    
   242  122  242 1    
   243  122  243 1    
   244  124  125 1    
   245  124  244 1    
   246  124  245 1    
   247  125  126 1    
   248  126  246 1    
   249  126  247 1    
@<TRIPOS>SUBSTRUCTURE
     1 UNK         1 GROUP             0       ****    0 ROOT    
