@<TRIPOS>MOLECULE
3R540
247   249    1
SMALL
USER_CHARGES


@<TRIPOS>ATOM
      1 CA          3.0133   -9.1683  -51.7965 C.3       0 UNK        -0.1800 
      2 C           3.0333   -9.8741  -50.4477 C.2       0 UNK         0.5000 
      3 O           3.2588   -9.2301  -49.4226 O.2       0 UNK        -0.5000 
      4 N           2.8072  -11.1935  -50.4453 N.am      1 UNK        -0.5000 
      5 CA          2.7173  -12.0253  -49.2420 C.3       1 UNK         0.1400 
      6 C6          2.8415  -13.5301  -49.5955 C.3       23 UNK        -0.0398 
      7 S7          3.3206  -14.5575  -48.1645 S.3       23 UNK        -0.2404 
      8 C8          3.9949  -16.0390  -48.9817 C.3       23 UNK        -0.0205 
      9 C9          2.9494  -16.7814  -49.8039 C.ar      23 UNK        -0.0193 
     10 C10         3.0396  -16.8167  -51.1991 C.ar      23 UNK        -0.1150 
     11 C11         2.0961  -17.5167  -51.9594 C.ar      23 UNK        -0.0193 
     12 C12         1.0502  -18.1779  -51.3066 C.ar      23 UNK        -0.1150 
     13 C13         0.9529  -18.1593  -49.9135 C.ar      23 UNK        -0.0193 
     14 C14         1.9030  -17.4541  -49.1676 C.ar      23 UNK        -0.1150 
     15 C15        -0.1887  -18.8849  -49.2196 C.3       23 UNK        -0.0205 
     16 S16         0.4199  -20.1802  -48.0908 S.3       23 UNK        -0.2404 
     17 C17        -0.1373  -21.7260  -48.8837 C.3       23 UNK        -0.0398 
     18 CA         -0.4907  -22.8362  -47.8648 C.3       11 UNK         0.1400 
     19 N           0.6604  -23.2138  -47.0381 N.am      11 UNK        -0.5000 
     20 C           0.7245  -24.2714  -46.2165 C.2       10 UNK         0.5000 
     21 O          -0.1845  -25.0935  -46.0960 O.2       10 UNK        -0.5000 
     22 CA          1.9885  -24.4043  -45.3438 C.3       10 UNK         0.1400 
     23 CB          2.9485  -25.4394  -45.9490 C.3       10 UNK        -0.1800 
     24 N           2.7153  -23.1464  -45.1308 N.am      10 UNK        -0.5000 
     25 C           2.2300  -22.0638  -44.5072 C.2       9 UNK         0.5000 
     26 O           1.0717  -21.9749  -44.0921 O.2       9 UNK        -0.5000 
     27 CA          3.1929  -20.8705  -44.3846 C.3       9 UNK         0.1400 
     28 CB          3.1347  -19.9979  -45.6471 C.3       9 UNK        -0.1800 
     29 N           2.8732  -20.0438  -43.2233 N.am      9 UNK        -0.5000 
     30 C           3.2717  -20.3089  -41.9726 C.2       8 UNK         0.5000 
     31 O           3.9714  -21.2789  -41.6764 O.2       8 UNK        -0.5000 
     32 CA          2.8392  -19.3361  -40.8619 C.3       8 UNK         0.1400 
     33 CB          3.9018  -18.2433  -40.6685 C.3       8 UNK        -0.1800 
     34 N           1.5535  -18.6989  -41.1472 N.am      8 UNK        -0.5000 
     35 C           0.4685  -18.7711  -40.3684 C.2       7 UNK         0.5000 
     36 O           0.4245  -19.4077  -39.3133 O.2       7 UNK        -0.5000 
     37 CA         -0.7717  -17.9894  -40.8550 C.3       7 UNK         0.1400 
     38 CB         -1.9043  -17.9372  -39.8091 C.3       7 UNK        -0.1800 
     39 N          -0.4620  -16.6379  -41.3368 N.am      7 UNK        -0.5000 
     40 C           0.1368  -15.6414  -40.6658 C.2       6 UNK         0.5000 
     41 O           0.5308  -15.7249  -39.5011 O.2       6 UNK        -0.5000 
     42 CA          0.3151  -14.3309  -41.4603 C.3       6 UNK         0.1400 
     43 CB          1.0170  -13.2070  -40.6688 C.3       6 UNK        -0.1800 
     44 N           0.9649  -14.5760  -42.7513 N.am      6 UNK        -0.5000 
     45 C           2.2241  -14.9861  -42.9730 C.2       5 UNK         0.5000 
     46 O           3.0822  -15.0912  -42.0967 O.2       5 UNK        -0.5000 
     47 CA          2.5595  -15.3604  -44.4352 C.3       5 UNK         0.1400 
     48 CB          3.8423  -16.2085  -44.5657 C.3       5 UNK        -0.1800 
     49 N           1.4357  -16.0120  -45.1181 N.am      5 UNK        -0.5000 
     50 C           0.8388  -17.1564  -44.7540 C.2       4 UNK         0.5000 
     51 O           1.2041  -17.8444  -43.8007 O.2       4 UNK        -0.5000 
     52 CA         -0.4010  -17.5680  -45.5699 C.3       4 UNK         0.1400 
     53 CB         -1.1888  -18.7308  -44.9405 C.3       4 UNK        -0.1800 
     54 N          -1.2849  -16.4423  -45.8797 N.am      4 UNK        -0.5000 
     55 C          -1.8283  -15.5785  -45.0120 C.2       3 UNK         0.5000 
     56 O          -1.7221  -15.6677  -43.7872 O.2       3 UNK        -0.5000 
     57 CA         -2.5182  -14.3504  -45.6386 C.3       3 UNK         0.1400 
     58 CB         -3.7835  -13.9612  -44.8569 C.3       3 UNK        -0.1800 
     59 N          -1.6283  -13.1843  -45.7145 N.am      3 UNK        -0.5000 
     60 C          -0.4232  -13.1395  -46.3017 C.2       2 UNK         0.5000 
     61 O           0.1070  -14.1088  -46.8499 O.2       2 UNK        -0.5000 
     62 CA          0.3306  -11.7952  -46.2342 C.3       2 UNK         0.1400 
     63 CB          0.8247  -11.5176  -44.8043 C.3       2 UNK        -0.1800 
     64 N           1.4858  -11.7896  -47.1340 N.am      2 UNK        -0.5000 
     65 C           1.4108  -11.7328  -48.4697 C.2       1 UNK         0.5000 
     66 O           0.3687  -11.4975  -49.0886 O.2       1 UNK        -0.5000 
     67 C          -1.7575  -22.4856  -47.0489 C.2       11 UNK         0.5000 
     68 O          -2.8425  -22.4456  -47.6315 O.2       11 UNK        -0.5000 
     69 N          -1.6285  -22.2848  -45.7258 N.am      12 UNK        -0.5000 
     70 CA         -2.7354  -22.1584  -44.7718 C.3       12 UNK         0.1400 
     71 CB         -2.1731  -21.9653  -43.3549 C.3       12 UNK        -0.1800 
     72 C          -3.6972  -23.3637  -44.7940 C.2       12 UNK         0.5000 
     73 O          -4.9023  -23.1770  -44.6273 O.2       12 UNK        -0.5000 
     74 N          -3.1633  -24.5642  -45.0701 N.am      13 UNK        -0.5000 
     75 CA         -3.9305  -25.7998  -45.2562 C.3       13 UNK         0.1400 
     76 CB         -2.9598  -26.9897  -45.2888 C.3       13 UNK        -0.1800 
     77 C          -4.8142  -25.7913  -46.5219 C.2       13 UNK         0.5000 
     78 O          -5.7865  -26.5437  -46.5842 O.2       13 UNK        -0.5000 
     79 N          -4.4772  -24.9283  -47.4892 N.am      14 UNK        -0.5000 
     80 CA         -5.2330  -24.6687  -48.7126 C.3       14 UNK         0.1400 
     81 CB         -4.2734  -24.7508  -49.9137 C.3       14 UNK        -0.1800 
     82 C          -5.9477  -23.3034  -48.6453 C.2       14 UNK         0.5000 
     83 O          -6.2523  -22.7317  -49.6928 O.2       14 UNK        -0.5000 
     84 N          -6.1837  -22.7906  -47.4264 N.am      15 UNK        -0.5000 
     85 CA         -6.8491  -21.5214  -47.1125 C.3       15 UNK         0.1400 
     86 CB         -8.3414  -21.5837  -47.5013 C.3       15 UNK        -0.1800 
     87 C          -6.1134  -20.3023  -47.7066 C.2       15 UNK         0.5000 
     88 O          -6.7357  -19.4457  -48.3337 O.2       15 UNK        -0.5000 
     89 N          -4.7850  -20.2779  -47.5241 N.am      16 UNK        -0.5000 
     90 CA         -3.8311  -19.3153  -48.0878 C.3       16 UNK         0.1400 
     91 CB         -4.0873  -17.8833  -47.5723 C.3       16 UNK        -0.1800 
     92 C          -3.7616  -19.4207  -49.6238 C.2       16 UNK         0.5000 
     93 O          -3.7463  -18.4070  -50.3220 O.2       16 UNK        -0.5000 
     94 N          -3.7255  -20.6721  -50.1049 N.am      17 UNK        -0.5000 
     95 CA         -3.7063  -21.0981  -51.5090 C.3       17 UNK         0.1400 
     96 CB         -2.4241  -20.6254  -52.2284 C.3       17 UNK        -0.1800 
     97 C          -4.9841  -20.7547  -52.3050 C.2       17 UNK         0.5000 
     98 O          -4.9662  -20.8470  -53.5316 O.2       17 UNK        -0.5000 
     99 N          -6.0864  -20.4180  -51.6207 N.am      18 UNK        -0.5000 
    100 CA        -7.3949  -20.1760  -52.2343 C.3       18 UNK         0.1400 
    101 CB        -8.3199  -19.4907  -51.2193 C.3       18 UNK        -0.1800 
    102 C         -8.0433  -21.4653  -52.7746 C.2       18 UNK         0.5000 
    103 O         -8.7591  -21.4109  -53.7748 O.2       18 UNK        -0.5000 
    104 N         -7.7577  -22.6012  -52.1239 N.am      19 UNK        -0.5000 
    105 CA        -8.1799  -23.9407  -52.5393 C.3       19 UNK         0.1400 
    106 CB        -8.4428  -24.7842  -51.2806 C.3       19 UNK        -0.1800 
    107 C         -7.1465  -24.6296  -53.4573 C.2       19 UNK         0.5000 
    108 O         -7.3426  -25.7919  -53.8160 O.2       19 UNK        -0.5000 
    109 N         -6.0658  -23.9233  -53.8098 N.am      20 UNK        -0.5000 
    110 CA        -4.9863  -24.3836  -54.6768 C.3       20 UNK         0.1400 
    111 CB        -3.7835  -24.8041  -53.8059 C.3       20 UNK        -0.1800 
    112 C         -4.6803  -23.2711  -55.6964 C.2       20 UNK         0.5000 
    113 O         -5.6142  -22.7306  -56.2935 O.2       20 UNK        -0.5000 
    114 N         -3.3991  -22.9375  -55.8784 N.am      21 UNK        -0.5000 
    115 CA        -2.9188  -21.8267  -56.6907 C.3       21 UNK         0.1400 
    116 CB        -2.8950  -22.2241  -58.1781 C.3       21 UNK        -0.1800 
    117 C         -1.5169  -21.4398  -56.2020 C.2       21 UNK         0.5000 
    118 O         -0.8000  -22.2896  -55.6664 O.2       21 UNK        -0.5000 
    119 N         -1.1476  -20.1749  -56.4119 N.am      22 UNK        -0.5000 
    120 CA         0.1666  -19.5951  -56.1160 C.3       22 UNK         0.1400 
    121 C          0.3275  -18.2594  -56.8922 C.2       22 UNK         0.5000 
    122 N          1.5456  -17.8809  -57.2521 N.am      22 UNK        -0.7600 
    123 O         -0.6440  -17.5558  -57.1644 O.2       22 UNK        -0.5000 
    124 C124        0.4098  -19.4294  -54.5901 C.3       23 UNK        -0.0398 
    125 S125        2.1784  -19.2287  -54.1707 S.3       23 UNK        -0.2404 
    126 C126        2.2095  -17.5391  -53.4810 C.3       23 UNK        -0.0205 
    127 H127        3.9743   -8.6893  -51.9839 H         1 UNK         0.0600 
    128 H128        2.2404   -8.3997  -51.8060 H         1 UNK         0.0600 
    129 H129        2.8136   -9.8611  -52.6143 H         1 UNK         0.0600 
    130 H130        2.5938  -11.6572  -51.3167 H         1 UNK         0.3000 
    131 H131        3.5625  -11.7543  -48.6049 H         1 UNK         0.0600 
    132 H132        3.6070  -13.6640  -50.3612 H         1 UNK         0.0800 
    133 H133        1.9150  -13.9184  -50.0236 H         1 UNK         0.0800 
    134 H134        4.3872  -16.7119  -48.2180 H         1 UNK         0.0800 
    135 H135        4.8465  -15.7523  -49.6005 H         1 UNK         0.0800 
    136 H136        3.8500  -16.3000  -51.6939 H         1 UNK         0.1150 
    137 H137        0.3124  -18.7162  -51.8822 H         1 UNK         0.1150 
    138 H138        1.8344  -17.4319  -48.0894 H         1 UNK         0.1150 
    139 H139       -0.7792  -18.1591  -48.6612 H         1 UNK         0.0800 
    140 H140       -0.8661  -19.3126  -49.9572 H         1 UNK         0.0800 
    141 H141        0.6551  -22.0709  -49.5493 H         1 UNK         0.0800 
    142 H142       -0.9967  -21.5297  -49.5237 H         1 UNK         0.0800 
    143 H143       -0.7562  -23.7232  -48.4438 H         1 UNK         0.0600 
    144 H144        1.4422  -22.5756  -47.0549 H         1 UNK         0.3000 
    145 H145        1.6658  -24.7677  -44.3660 H         1 UNK         0.0600 
    146 H146        3.8019  -25.6173  -45.2944 H         1 UNK         0.0600 
    147 H147        2.4489  -26.3981  -46.0953 H         1 UNK         0.0600 
    148 H148        3.3290  -25.1163  -46.9189 H         1 UNK         0.0600 
    149 H149        3.6705  -23.1283  -45.4587 H         1 UNK         0.3000 
    150 H150        4.2110  -21.2516  -44.2802 H         1 UNK         0.0600 
    151 H151        3.3903  -20.5719  -46.5385 H         1 UNK         0.0600 
    152 H152        3.8357  -19.1657  -45.5858 H         1 UNK         0.0600 
    153 H153        2.1388  -19.5846  -45.7987 H         1 UNK         0.0600 
    154 H154        2.2536  -19.2566  -43.3954 H         1 UNK         0.3000 
    155 H155        2.7816  -19.9157  -39.9385 H         1 UNK         0.0600 
    156 H156        4.0327  -17.6465  -41.5715 H         1 UNK         0.0600 
    157 H157        4.8702  -18.6778  -40.4173 H         1 UNK         0.0600 
    158 H158        3.6271  -17.5661  -39.8595 H         1 UNK         0.0600 
    159 H159        1.4793  -18.1893  -42.0246 H         1 UNK         0.3000 
    160 H160       -1.1502  -18.5418  -41.7149 H         1 UNK         0.0600 
    161 H161       -1.5900  -17.4276  -38.8978 H         1 UNK         0.0600 
    162 H162       -2.2262  -18.9410  -39.5296 H         1 UNK         0.0600 
    163 H163       -2.7775  -17.4156  -40.2010 H         1 UNK         0.0600 
    164 H164       -0.7714  -16.4355  -42.2836 H         1 UNK         0.3000 
    165 H165       -0.6911  -13.9782  -41.6922 H         1 UNK         0.0600 
    166 H166        2.0092  -13.5015  -40.3268 H         1 UNK         0.0600 
    167 H167        1.1232  -12.3065  -41.2738 H         1 UNK         0.0600 
    168 H168        0.4378  -12.9385  -39.7848 H         1 UNK         0.0600 
    169 H169        0.3318  -14.5955  -43.5383 H         1 UNK         0.3000 
    170 H170        2.7328  -14.4208  -44.9610 H         1 UNK         0.0600 
    171 H171        4.7094  -15.6652  -44.1888 H         1 UNK         0.0600 
    172 H172        3.7737  -17.1410  -44.0057 H         1 UNK         0.0600 
    173 H173        4.0443  -16.4576  -45.6072 H         1 UNK         0.0600 
    174 H174        1.0353  -15.4877  -45.8933 H         1 UNK         0.3000 
    175 H175       -0.0036  -17.9096  -46.5201 H         1 UNK         0.0600 
    176 H176       -1.6267  -18.4527  -43.9831 H         1 UNK         0.0600 
    177 H177       -1.9965  -19.0589  -45.5917 H         1 UNK         0.0600 
    178 H178       -0.5392  -19.5913  -44.7768 H         1 UNK         0.0600 
    179 H179       -1.3466  -16.2036  -46.8595 H         1 UNK         0.3000 
    180 H180       -2.8203  -14.6068  -46.6560 H         1 UNK         0.0600 
    181 H181       -3.5479  -13.6300  -43.8445 H         1 UNK         0.0600 
    182 H182       -4.4665  -14.8077  -44.7743 H         1 UNK         0.0600 
    183 H183       -4.3242  -13.1566  -45.3556 H         1 UNK         0.0600 
    184 H184       -1.9743  -12.3458  -45.2710 H         1 UNK         0.3000 
    185 H185       -0.3558  -11.0005  -46.5334 H         1 UNK         0.0600 
    186 H186        0.0003  -11.5097  -44.0902 H         1 UNK         0.0600 
    187 H187        1.5401  -12.2686  -44.4701 H         1 UNK         0.0600 
    188 H188        1.3122  -10.5445  -44.7411 H         1 UNK         0.0600 
    189 H189        2.3733  -12.0253  -46.7158 H         1 UNK         0.3000 
    190 H190       -0.6978  -22.3001  -45.3238 H         1 UNK         0.3000 
    191 H191       -3.3077  -21.2686  -45.0398 H         1 UNK         0.0600 
    192 H192       -2.9770  -21.8567  -42.6257 H         1 UNK         0.0600 
    193 H193       -1.5537  -21.0726  -43.2848 H         1 UNK         0.0600 
    194 H194       -1.5622  -22.8151  -43.0473 H         1 UNK         0.0600 
    195 H195       -2.1639  -24.6306  -45.2262 H         1 UNK         0.3000 
    196 H196       -4.5911  -25.9198  -44.3951 H         1 UNK         0.0600 
    197 H197       -2.2781  -26.9283  -46.1380 H         1 UNK         0.0600 
    198 H198       -2.3596  -27.0357  -44.3799 H         1 UNK         0.0600 
    199 H199       -3.5003  -27.9336  -45.3695 H         1 UNK         0.0600 
    200 H200       -3.6886  -24.3121  -47.3342 H         1 UNK         0.3000 
    201 H201       -6.0087  -25.4244  -48.8474 H         1 UNK         0.0600 
    202 H202       -3.4803  -24.0060  -49.8472 H         1 UNK         0.0600 
    203 H203       -4.8016  -24.5915  -50.8545 H         1 UNK         0.0600 
    204 H204       -3.8033  -25.7324  -49.9724 H         1 UNK         0.0600 
    205 H205       -5.8630  -23.3148  -46.6218 H         1 UNK         0.3000 
    206 H206       -6.7979  -21.4058  -46.0289 H         1 UNK         0.0600 
    207 H207       -8.8407  -22.4154  -47.0045 H         1 UNK         0.0600 
    208 H208       -8.8623  -20.6717  -47.2074 H         1 UNK         0.0600 
    209 H209       -8.4786  -21.7081  -48.5753 H         1 UNK         0.0600 
    210 H210       -4.3618  -21.0877  -47.0882 H         1 UNK         0.3000 
    211 H211       -2.8472  -19.6161  -47.7277 H         1 UNK         0.0600 
    212 H212       -3.3015  -17.2055  -47.9059 H         1 UNK         0.0600 
    213 H213       -4.1027  -17.8525  -46.4829 H         1 UNK         0.0600 
    214 H214       -5.0338  -17.4809  -47.9334 H         1 UNK         0.0600 
    215 H215       -3.7571  -21.4228  -49.4260 H         1 UNK         0.3000 
    216 H216       -3.6744  -22.1872  -51.4820 H         1 UNK         0.0600 
    217 H217       -1.5270  -20.9479  -51.7031 H         1 UNK         0.0600 
    218 H218       -2.3870  -19.5403  -52.3256 H         1 UNK         0.0600 
    219 H219       -2.3638  -21.0417  -53.2343 H         1 UNK         0.0600 
    220 H220       -6.0470  -20.4042  -50.6102 H         1 UNK         0.3000 
    221 H221       -7.2546  -19.4957  -53.0770 H         1 UNK         0.0600 
    222 H222       -7.8858  -18.5592  -50.8554 H         1 UNK         0.0600 
    223 H223       -8.5129  -20.1293  -50.3576 H         1 UNK         0.0600 
    224 H224       -9.2829  -19.2480  -51.6701 H         1 UNK         0.0600 
    225 H225       -7.1701  -22.5550  -51.2930 H         1 UNK         0.3000 
    226 H226       -9.1155  -23.8711  -53.0976 H         1 UNK         0.0600 
    227 H227       -7.5217  -24.9879  -50.7362 H         1 UNK         0.0600 
    228 H228       -9.1313  -24.2807  -50.6016 H         1 UNK         0.0600 
    229 H229       -8.8875  -25.7457  -51.5398 H         1 UNK         0.0600 
    230 H230       -6.0264  -22.9456  -53.5530 H         1 UNK         0.3000 
    231 H231       -5.3114  -25.2490  -55.2576 H         1 UNK         0.0600 
    232 H232       -3.3843  -23.9667  -53.2327 H         1 UNK         0.0600 
    233 H233       -2.9757  -25.2137  -54.4135 H         1 UNK         0.0600 
    234 H234       -4.0701  -25.5818  -53.0978 H         1 UNK         0.0600 
    235 H235       -2.6727  -23.4002  -55.3460 H         1 UNK         0.3000 
    236 H236       -3.5818  -20.9701  -56.5492 H         1 UNK         0.0600 
    237 H237       -3.8935  -22.4676  -58.5411 H         1 UNK         0.0600 
    238 H238       -2.5174  -21.4084  -58.7957 H         1 UNK         0.0600 
    239 H239       -2.2557  -23.0908  -58.3503 H         1 UNK         0.0600 
    240 H240       -1.7802  -19.5323  -56.8721 H         1 UNK         0.3000 
    241 H241        0.9079  -20.2909  -56.5146 H         1 UNK         0.0600 
    242 H242        2.3571  -18.4321  -57.0174 H         1 UNK         0.3800 
    243 H243        1.6629  -17.0151  -57.7552 H         1 UNK         0.3800 
    244 H244       -0.1858  -18.6057  -54.1940 H         1 UNK         0.0800 
    245 H245        0.0720  -20.3170  -54.0549 H         1 UNK         0.0800 
    246 H246        3.1459  -17.0742  -53.7929 H         1 UNK         0.0800 
    247 H247        1.4156  -16.9311  -53.9164 H         1 UNK         0.0800 
@<TRIPOS>BOND
     1    1    2 1    
     2    1  127 1    
     3    1  128 1    
     4    1  129 1    
     5    2    3 2    
     6    2    4 am   BACKBONE|DICT|INTERRES
     7    4    5 1    
     8    4  130 1    
     9    5    6 1    
    10    5   65 1    
    11    5  131 1    
    12    6    7 1    
    13    6  132 1    
    14    6  133 1    
    15    7    8 1    
    16    8    9 1    
    17    8  134 1    
    18    8  135 1    
    19    9   10 ar   
    20    9   14 ar   
    21   10   11 ar   
    22   10  136 1    
    23   11   12 ar   
    24   11  126 1    
    25   12   13 ar   
    26   12  137 1    
    27   13   14 ar   
    28   13   15 1    
    29   14  138 1    
    30   15   16 1    
    31   15  139 1    
    32   15  140 1    
    33   16   17 1    
    34   17   18 1    
    35   17  141 1    
    36   17  142 1    
    37   18   19 1    
    38   18   67 1    
    39   18  143 1    
    40   19   20 am   BACKBONE|DICT|INTERRES
    41   19  144 1    
    42   20   21 2    
    43   20   22 1    
    44   22   23 1    
    45   22   24 1    
    46   22  145 1    
    47   23  146 1    
    48   23  147 1    
    49   23  148 1    
    50   24   25 am   BACKBONE|DICT|INTERRES
    51   24  149 1    
    52   25   26 2    
    53   25   27 1    
    54   27   28 1    
    55   27   29 1    
    56   27  150 1    
    57   28  151 1    
    58   28  152 1    
    59   28  153 1    
    60   29   30 am   BACKBONE|DICT|INTERRES
    61   29  154 1    
    62   30   31 2    
    63   30   32 1    
    64   32   33 1    
    65   32   34 1    
    66   32  155 1    
    67   33  156 1    
    68   33  157 1    
    69   33  158 1    
    70   34   35 am   BACKBONE|DICT|INTERRES
    71   34  159 1    
    72   35   36 2    
    73   35   37 1    
    74   37   38 1    
    75   37   39 1    
    76   37  160 1    
    77   38  161 1    
    78   38  162 1    
    79   38  163 1    
    80   39   40 am   BACKBONE|DICT|INTERRES
    81   39  164 1    
    82   40   41 2    
    83   40   42 1    
    84   42   43 1    
    85   42   44 1    
    86   42  165 1    
    87   43  166 1    
    88   43  167 1    
    89   43  168 1    
    90   44   45 am   BACKBONE|DICT|INTERRES
    91   44  169 1    
    92   45   46 2    
    93   45   47 1    
    94   47   48 1    
    95   47   49 1    
    96   47  170 1    
    97   48  171 1    
    98   48  172 1    
    99   48  173 1    
   100   49   50 am   BACKBONE|DICT|INTERRES
   101   49  174 1    
   102   50   51 2    
   103   50   52 1    
   104   52   53 1    
   105   52   54 1    
   106   52  175 1    
   107   53  176 1    
   108   53  177 1    
   109   53  178 1    
   110   54   55 am   BACKBONE|DICT|INTERRES
   111   54  179 1    
   112   55   56 2    
   113   55   57 1    
   114   57   58 1    
   115   57   59 1    
   116   57  180 1    
   117   58  181 1    
   118   58  182 1    
   119   58  183 1    
   120   59   60 am   BACKBONE|DICT|INTERRES
   121   59  184 1    
   122   60   61 2    
   123   60   62 1    
   124   62   63 1    
   125   62   64 1    
   126   62  185 1    
   127   63  186 1    
   128   63  187 1    
   129   63  188 1    
   130   64   65 am   BACKBONE|DICT|INTERRES
   131   64  189 1    
   132   65   66 2    
   133   67   68 2    
   134   67   69 am   BACKBONE|DICT|INTERRES
   135   69   70 1    
   136   69  190 1    
   137   70   71 1    
   138   70   72 1    
   139   70  191 1    
   140   71  192 1    
   141   71  193 1    
   142   71  194 1    
   143   72   73 2    
   144   72   74 am   BACKBONE|DICT|INTERRES
   145   74   75 1    
   146   74  195 1    
   147   75   76 1    
   148   75   77 1    
   149   75  196 1    
   150   76  197 1    
   151   76  198 1    
   152   76  199 1    
   153   77   78 2    
   154   77   79 am   BACKBONE|DICT|INTERRES
   155   79   80 1    
   156   79  200 1    
   157   80   81 1    
   158   80   82 1    
   159   80  201 1    
   160   81  202 1    
   161   81  203 1    
   162   81  204 1    
   163   82   83 2    
   164   82   84 am   BACKBONE|DICT|INTERRES
   165   84   85 1    
   166   84  205 1    
   167   85   86 1    
   168   85   87 1    
   169   85  206 1    
   170   86  207 1    
   171   86  208 1    
   172   86  209 1    
   173   87   88 2    
   174   87   89 am   BACKBONE|DICT|INTERRES
   175   89   90 1    
   176   89  210 1    
   177   90   91 1    
   178   90   92 1    
   179   90  211 1    
   180   91  212 1    
   181   91  213 1    
   182   91  214 1    
   183   92   93 2    
   184   92   94 am   BACKBONE|DICT|INTERRES
   185   94   95 1    
   186   94  215 1    
   187   95   96 1    
   188   95   97 1    
   189   95  216 1    
   190   96  217 1    
   191   96  218 1    
   192   96  219 1    
   193   97   98 2    
   194   97   99 am   BACKBONE|DICT|INTERRES
   195   99  100 1    
   196   99  220 1    
   197  100  101 1    
   198  100  102 1    
   199  100  221 1    
   200  101  222 1    
   201  101  223 1    
   202  101  224 1    
   203  102  103 2    
   204  102  104 am   BACKBONE|DICT|INTERRES
   205  104  105 1    
   206  104  225 1    
   207  105  106 1    
   208  105  107 1    
   209  105  226 1    
   210  106  227 1    
   211  106  228 1    
   212  106  229 1    
   213  107  108 2    
   214  107  109 am   BACKBONE|DICT|INTERRES
   215  109  110 1    
   216  109  230 1    
   217  110  111 1    
   218  110  112 1    
   219  110  231 1    
   220  111  232 1    
   221  111  233 1    
   222  111  234 1    
   223  112  113 2    
   224  112  114 am   BACKBONE|DICT|INTERRES
   225  114  115 1    
   226  114  235 1    
   227  115  116 1    
   228  115  117 1    
   229  115  236 1    
   230  116  237 1    
   231  116  238 1    
   232  116  239 1    
   233  117  118 2    
   234  117  119 am   BACKBONE|DICT|INTERRES
   235  119  120 1    
   236  119  240 1    
   237  120  121 1    
   238  120  124 1    
   239  120  241 1    
   240  121  122 am   BACKBONE|DICT|INTERRES
   241  121  123 2    
   242  122  242 1    
   243  122  243 1    
   244  124  125 1    
   245  124  244 1    
   246  124  245 1    
   247  125  126 1    
   248  126  246 1    
   249  126  247 1    
@<TRIPOS>SUBSTRUCTURE
     1 UNK         1 GROUP             0       ****    0 ROOT    
