@<TRIPOS>MOLECULE
3R540
247   249    1
SMALL
USER_CHARGES


@<TRIPOS>ATOM
      1 CA          5.7457  -16.2809  -50.5058 C.3       0 UNK        -0.1800 
      2 C           4.4782  -16.3857  -49.6696 C.2       0 UNK         0.5000 
      3 O           4.3825  -17.2645  -48.8143 O.2       0 UNK        -0.5000 
      4 N           3.5128  -15.4898  -49.9149 N.am      1 UNK        -0.5000 
      5 CA          2.2035  -15.4349  -49.2453 C.3       1 UNK         0.1400 
      6 C6          1.2386  -14.4438  -49.9457 C.3       23 UNK        -0.0398 
      7 S7          1.0676  -14.7667  -51.7363 S.3       23 UNK        -0.2404 
      8 C8         -0.6640  -15.3216  -51.8676 C.3       23 UNK        -0.0205 
      9 C9         -0.9825  -16.5651  -51.0443 C.ar      23 UNK        -0.0193 
     10 C10        -2.1681  -16.6154  -50.3044 C.ar      23 UNK        -0.1150 
     11 C11        -2.5071  -17.7621  -49.5822 C.ar      23 UNK        -0.0193 
     12 C12        -1.6425  -18.8566  -49.5875 C.ar      23 UNK        -0.1150 
     13 C13        -0.4458  -18.8165  -50.3062 C.ar      23 UNK        -0.0193 
     14 C14        -0.1293  -17.6750  -51.0467 C.ar      23 UNK        -0.1150 
     15 C15         0.4859  -20.0181  -50.3090 C.3       23 UNK        -0.0205 
     16 S16         1.7926  -19.9073  -49.0444 S.3       23 UNK        -0.2404 
     17 C17         0.8863  -19.8874  -47.4568 C.3       23 UNK        -0.0398 
     18 CA          0.5480  -21.3031  -46.9182 C.3       11 UNK         0.1400 
     19 N           0.6703  -21.3847  -45.4584 N.am      11 UNK        -0.5000 
     20 C           0.6128  -22.5210  -44.7488 C.2       10 UNK         0.5000 
     21 O           0.5101  -23.6351  -45.2582 O.2       10 UNK        -0.5000 
     22 CA          0.5945  -22.3914  -43.2146 C.3       10 UNK         0.1400 
     23 CB          2.0128  -22.2223  -42.6507 C.3       10 UNK        -0.1800 
     24 N          -0.2641  -21.2943  -42.7657 N.am      10 UNK        -0.5000 
     25 C          -1.5923  -21.2647  -42.9481 C.2       9 UNK         0.5000 
     26 O          -2.2297  -22.1997  -43.4323 O.2       9 UNK        -0.5000 
     27 CA         -2.3266  -19.9634  -42.5765 C.3       9 UNK         0.1400 
     28 CB         -2.6796  -19.9464  -41.0823 C.3       9 UNK        -0.1800 
     29 N          -1.5665  -18.7609  -42.9239 N.am      9 UNK        -0.5000 
     30 C          -1.2491  -18.3925  -44.1742 C.2       8 UNK         0.5000 
     31 O          -1.6121  -19.0061  -45.1767 O.2       8 UNK        -0.5000 
     32 CA         -0.3189  -17.1751  -44.3324 C.3       8 UNK         0.1400 
     33 CB         -1.1003  -15.8587  -44.2189 C.3       8 UNK        -0.1800 
     34 N           0.7778  -17.1853  -43.3642 N.am      8 UNK        -0.5000 
     35 C           1.7311  -18.1261  -43.3172 C.2       7 UNK         0.5000 
     36 O           1.8199  -19.0468  -44.1289 O.2       7 UNK        -0.5000 
     37 CA          2.7070  -18.0702  -42.1292 C.3       7 UNK         0.1400 
     38 CB          3.8563  -17.0897  -42.3902 C.3       7 UNK        -0.1800 
     39 N           2.0301  -17.7071  -40.8857 N.am      7 UNK        -0.5000 
     40 C           1.2020  -18.5199  -40.2166 C.2       6 UNK         0.5000 
     41 O           0.9491  -19.6732  -40.5638 O.2       6 UNK        -0.5000 
     42 CA          0.5152  -17.9286  -38.9722 C.3       6 UNK         0.1400 
     43 CB          1.4373  -18.0237  -37.7475 C.3       6 UNK        -0.1800 
     44 N           0.1044  -16.5363  -39.1644 N.am      6 UNK        -0.5000 
     45 C          -0.8538  -16.1445  -40.0159 C.2       5 UNK         0.5000 
     46 O          -1.5028  -16.9192  -40.7161 O.2       5 UNK        -0.5000 
     47 CA         -1.1006  -14.6306  -40.1376 C.3       5 UNK         0.1400 
     48 CB         -2.0836  -14.1555  -39.0574 C.3       5 UNK        -0.1800 
     49 N           0.1243  -13.8298  -40.0679 N.am      5 UNK        -0.5000 
     50 C           1.1337  -13.9034  -40.9446 C.2       4 UNK         0.5000 
     51 O           1.1806  -14.7117  -41.8746 O.2       4 UNK        -0.5000 
     52 CA          2.3082  -12.9390  -40.7201 C.3       4 UNK         0.1400 
     53 CB          3.5056  -13.6787  -40.1038 C.3       4 UNK        -0.1800 
     54 N           2.7181  -12.3210  -41.9789 N.am      4 UNK        -0.5000 
     55 C           2.0569  -11.3256  -42.5867 C.2       3 UNK         0.5000 
     56 O           1.0473  -10.7943  -42.1221 O.2       3 UNK        -0.5000 
     57 CA          2.6235  -10.8249  -43.9283 C.3       3 UNK         0.1400 
     58 CB          3.5613   -9.6293  -43.6978 C.3       3 UNK        -0.1800 
     59 N           3.3541  -11.8705  -44.6479 N.am      3 UNK        -0.5000 
     60 C           2.7888  -12.7398  -45.4949 C.2       2 UNK         0.5000 
     61 O           1.5959  -12.7115  -45.8034 O.2       2 UNK        -0.5000 
     62 CA          3.7415  -13.8022  -46.0786 C.3       2 UNK         0.1400 
     63 CB          3.9539  -14.9593  -45.0862 C.3       2 UNK        -0.1800 
     64 N           3.3499  -14.3020  -47.4006 N.am      2 UNK        -0.5000 
     65 C           2.3160  -15.0883  -47.7440 C.2       1 UNK         0.5000 
     66 O           1.4888  -15.5491  -46.9580 O.2       1 UNK        -0.5000 
     67 C          -0.8388  -21.7857  -47.4021 C.2       11 UNK         0.5000 
     68 O          -0.9225  -22.5229  -48.3871 O.2       11 UNK        -0.5000 
     69 N          -1.9040  -21.3910  -46.6884 N.am      12 UNK        -0.5000 
     70 CA         -3.2845  -21.8163  -46.9328 C.3       12 UNK         0.1400 
     71 CB         -4.2495  -21.0283  -46.0351 C.3       12 UNK        -0.1800 
     72 C          -3.4882  -23.3326  -46.7646 C.2       12 UNK         0.5000 
     73 O          -4.2258  -23.9342  -47.5435 O.2       12 UNK        -0.5000 
     74 N          -2.8111  -23.9302  -45.7768 N.am      13 UNK        -0.5000 
     75 CA         -2.7741  -25.3771  -45.5753 C.3       13 UNK         0.1400 
     76 CB         -2.2353  -25.6829  -44.1692 C.3       13 UNK        -0.1800 
     77 C          -1.9415  -26.0979  -46.6538 C.2       13 UNK         0.5000 
     78 O          -2.3450  -27.1652  -47.1176 O.2       13 UNK        -0.5000 
     79 N          -0.7933  -25.5125  -47.0198 N.am      14 UNK        -0.5000 
     80 CA          0.1745  -26.0895  -47.9497 C.3       14 UNK         0.1400 
     81 CB          1.5244  -25.3705  -47.7999 C.3       14 UNK        -0.1800 
     82 C          -0.2758  -26.0721  -49.4202 C.2       14 UNK         0.5000 
     83 O          -0.1186  -27.0888  -50.0987 O.2       14 UNK        -0.5000 
     84 N          -0.7783  -24.9261  -49.9021 N.am      15 UNK        -0.5000 
     85 CA         -1.0234  -24.7028  -51.3307 C.3       15 UNK         0.1400 
     86 CB          0.2486  -24.1308  -51.9818 C.3       15 UNK        -0.1800 
     87 C          -2.2274  -23.8019  -51.6405 C.2       15 UNK         0.5000 
     88 O          -2.8227  -23.9724  -52.7049 O.2       15 UNK        -0.5000 
     89 N          -2.5504  -22.8439  -50.7580 N.am      16 UNK        -0.5000 
     90 CA         -3.6499  -21.8754  -50.9052 C.3       16 UNK         0.1400 
     91 CB         -5.0166  -22.5736  -50.7501 C.3       16 UNK        -0.1800 
     92 C          -3.5676  -21.0365  -52.1982 C.2       16 UNK         0.5000 
     93 O          -4.5738  -20.8633  -52.8866 O.2       16 UNK        -0.5000 
     94 N          -2.3567  -20.5509  -52.5057 N.am      17 UNK        -0.5000 
     95 CA         -1.9841  -19.8241  -53.7249 C.3       17 UNK         0.1400 
     96 CB         -2.7671  -18.5001  -53.8590 C.3       17 UNK        -0.1800 
     97 C          -2.0806  -20.7224  -54.9751 C.2       17 UNK         0.5000 
     98 O          -2.6333  -20.3137  -55.9957 O.2       17 UNK        -0.5000 
     99 N          -1.5461  -21.9472  -54.8511 N.am      18 UNK        -0.5000 
    100 CA        -1.5000  -23.0070  -55.8668 C.3       18 UNK         0.1400 
    101 CB        -0.5616  -22.6083  -57.0250 C.3       18 UNK        -0.1800 
    102 C         -2.9009  -23.4461  -56.3443 C.2       18 UNK         0.5000 
    103 O         -3.1131  -23.6566  -57.5399 O.2       18 UNK        -0.5000 
    104 N         -3.8307  -23.5646  -55.3851 N.am      19 UNK        -0.5000 
    105 CA        -5.2353  -23.9557  -55.5444 C.3       19 UNK         0.1400 
    106 CB        -5.3387  -25.4404  -55.9505 C.3       19 UNK        -0.1800 
    107 C         -6.0559  -23.0235  -56.4660 C.2       19 UNK         0.5000 
    108 O         -7.0299  -23.4680  -57.0760 O.2       19 UNK        -0.5000 
    109 N         -5.6602  -21.7453  -56.5383 N.am      20 UNK        -0.5000 
    110 CA        -6.3386  -20.6816  -57.2820 C.3       20 UNK         0.1400 
    111 CB        -5.5157  -19.3845  -57.2197 C.3       20 UNK        -0.1800 
    112 C         -7.8157  -20.4190  -56.8957 C.2       20 UNK         0.5000 
    113 O         -8.6288  -20.2741  -57.8077 O.2       20 UNK        -0.5000 
    114 N         -8.2170  -20.3518  -55.6166 N.am      21 UNK        -0.5000 
    115 CA        -7.4311  -20.3609  -54.3832 C.3       21 UNK         0.1400 
    116 CB        -7.8654  -21.5720  -53.5392 C.3       21 UNK        -0.1800 
    117 C         -7.6619  -19.0575  -53.6047 C.2       21 UNK         0.5000 
    118 O         -8.6017  -18.3160  -53.9043 O.2       21 UNK        -0.5000 
    119 N         -6.8017  -18.8095  -52.6102 N.am      22 UNK        -0.5000 
    120 CA        -6.8507  -17.6219  -51.7384 C.3       22 UNK         0.1400 
    121 C         -8.0739  -17.5294  -50.7745 C.2       22 UNK         0.5000 
    122 N         -8.8474  -18.5894  -50.5731 N.am      22 UNK        -0.7600 
    123 O         -8.3310  -16.4696  -50.2095 O.2       22 UNK        -0.5000 
    124 C124       -5.5078  -17.3972  -50.9975 C.3       23 UNK        -0.0398 
    125 S125       -5.1122  -18.6720  -49.7488 S.3       23 UNK        -0.2404 
    126 C126       -3.8077  -17.8304  -48.7991 C.3       23 UNK        -0.0205 
    127 H127        6.6079  -16.1119  -49.8606 H         1 UNK         0.0600 
    128 H128        5.6922  -15.4621  -51.2238 H         1 UNK         0.0600 
    129 H129        5.9078  -17.2067  -51.0579 H         1 UNK         0.0600 
    130 H130        3.6468  -14.8122  -50.6521 H         1 UNK         0.3000 
    131 H131        1.7676  -16.4343  -49.3068 H         1 UNK         0.0600 
    132 H132        1.5925  -13.4181  -49.8278 H         1 UNK         0.0800 
    133 H133        0.2539  -14.4775  -49.4757 H         1 UNK         0.0800 
    134 H134       -1.3136  -14.4929  -51.5815 H         1 UNK         0.0800 
    135 H135       -0.8831  -15.5366  -52.9142 H         1 UNK         0.0800 
    136 H136       -2.8395  -15.7683  -50.3048 H         1 UNK         0.1150 
    137 H137       -1.9086  -19.7403  -49.0293 H         1 UNK         0.1150 
    138 H138        0.7859  -17.6489  -51.6210 H         1 UNK         0.1150 
    139 H139       -0.0756  -20.9412  -50.1805 H         1 UNK         0.0800 
    140 H140        0.9654  -20.1006  -51.2856 H         1 UNK         0.0800 
    141 H141        0.0133  -19.2368  -47.5052 H         1 UNK         0.0800 
    142 H142        1.5586  -19.3845  -46.7609 H         1 UNK         0.0800 
    143 H143        1.2851  -22.0030  -47.3161 H         1 UNK         0.0600 
    144 H144        0.8082  -20.5099  -44.9606 H         1 UNK         0.3000 
    145 H145        0.1842  -23.3193  -42.8104 H         1 UNK         0.0600 
    146 H146        2.6435  -23.0673  -42.9293 H         1 UNK         0.0600 
    147 H147        2.4952  -21.3195  -43.0226 H         1 UNK         0.0600 
    148 H148        2.0003  -22.1705  -41.5619 H         1 UNK         0.0600 
    149 H149        0.1875  -20.5160  -42.2984 H         1 UNK         0.3000 
    150 H150       -3.2600  -19.9377  -43.1418 H         1 UNK         0.0600 
    151 H151       -3.2578  -20.8294  -40.8073 H         1 UNK         0.0600 
    152 H152       -3.2812  -19.0731  -40.8300 H         1 UNK         0.0600 
    153 H153       -1.7870  -19.9301  -40.4570 H         1 UNK         0.0600 
    154 H154       -1.2868  -18.1642  -42.1502 H         1 UNK         0.3000 
    155 H155        0.1190  -17.2238  -45.3313 H         1 UNK         0.0600 
    156 H156       -0.4486  -15.0013  -44.3913 H         1 UNK         0.0600 
    157 H157       -1.5558  -15.7425  -43.2358 H         1 UNK         0.0600 
    158 H158       -1.8987  -15.8154  -44.9605 H         1 UNK         0.0600 
    159 H159        0.8068  -16.4206  -42.6959 H         1 UNK         0.3000 
    160 H160        3.1386  -19.0661  -42.0076 H         1 UNK         0.0600 
    161 H161        3.4929  -16.0667  -42.4764 H         1 UNK         0.0600 
    162 H162        4.3786  -17.3377  -43.3149 H         1 UNK         0.0600 
    163 H163        4.5897  -17.1177  -41.5842 H         1 UNK         0.0600 
    164 H164        2.1426  -16.7571  -40.5654 H         1 UNK         0.3000 
    165 H165       -0.3792  -18.5226  -38.7725 H         1 UNK         0.0600 
    166 H166        0.9310  -17.6794  -36.8455 H         1 UNK         0.0600 
    167 H167        1.7465  -19.0550  -37.5717 H         1 UNK         0.0600 
    168 H168        2.3413  -17.4269  -37.8743 H         1 UNK         0.0600 
    169 H169        0.5899  -15.8340  -38.6263 H         1 UNK         0.3000 
    170 H170       -1.5568  -14.4504  -41.1130 H         1 UNK         0.0600 
    171 H171       -3.0141  -14.7236  -39.0995 H         1 UNK         0.0600 
    172 H172       -1.6710  -14.2751  -38.0548 H         1 UNK         0.0600 
    173 H173       -2.3405  -13.1046  -39.1922 H         1 UNK         0.0600 
    174 H174        0.1689  -13.1447  -39.3272 H         1 UNK         0.3000 
    175 H175        1.9995  -12.1528  -40.0276 H         1 UNK         0.0600 
    176 H176        4.3239  -12.9908  -39.8903 H         1 UNK         0.0600 
    177 H177        3.2296  -14.1551  -39.1622 H         1 UNK         0.0600 
    178 H178        3.8882  -14.4558  -40.7653 H         1 UNK         0.0600 
    179 H179        3.5091  -12.7335  -42.4477 H         1 UNK         0.3000 
    180 H180        1.7839  -10.4798  -44.5357 H         1 UNK         0.0600 
    181 H181        4.4256   -9.9038  -43.0917 H         1 UNK         0.0600 
    182 H182        3.0424   -8.8202  -43.1818 H         1 UNK         0.0600 
    183 H183        3.9273   -9.2279  -44.6429 H         1 UNK         0.0600 
    184 H184        4.3452  -11.9346  -44.4642 H         1 UNK         0.3000 
    185 H185        4.7078  -13.3194  -46.2333 H         1 UNK         0.0600 
    186 H186        4.4241  -14.6024  -44.1697 H         1 UNK         0.0600 
    187 H187        3.0104  -15.4300  -44.8071 H         1 UNK         0.0600 
    188 H188        4.6022  -15.7287  -45.5057 H         1 UNK         0.0600 
    189 H189        3.9439  -13.9947  -48.1574 H         1 UNK         0.3000 
    190 H190       -1.7633  -20.7195  -45.9374 H         1 UNK         0.3000 
    191 H191       -3.5245  -21.5660  -47.9632 H         1 UNK         0.0600 
    192 H192       -4.1039  -19.9536  -46.1377 H         1 UNK         0.0600 
    193 H193       -5.2851  -21.2425  -46.3012 H         1 UNK         0.0600 
    194 H194       -4.1260  -21.2837  -44.9839 H         1 UNK         0.0600 
    195 H195       -2.2822  -23.3565  -45.1284 H         1 UNK         0.3000 
    196 H196       -3.7961  -25.7578  -45.6324 H         1 UNK         0.0600 
    197 H197       -2.2301  -26.7567  -43.9787 H         1 UNK         0.0600 
    198 H198       -2.8540  -25.2181  -43.4013 H         1 UNK         0.0600 
    199 H199       -1.2152  -25.3214  -44.0383 H         1 UNK         0.0600 
    200 H200       -0.5044  -24.6669  -46.5367 H         1 UNK         0.3000 
    201 H201        0.3257  -27.1333  -47.6662 H         1 UNK         0.0600 
    202 H202        1.9130  -25.4682  -46.7862 H         1 UNK         0.0600 
    203 H203        1.4412  -24.3075  -48.0267 H         1 UNK         0.0600 
    204 H204        2.2703  -25.7925  -48.4747 H         1 UNK         0.0600 
    205 H205       -0.8748  -24.1298  -49.2768 H         1 UNK         0.3000 
    206 H206       -1.2480  -25.6574  -51.8116 H         1 UNK         0.0600 
    207 H207        1.0876  -24.8192  -51.8785 H         1 UNK         0.0600 
    208 H208        0.1047  -23.9600  -53.0491 H         1 UNK         0.0600 
    209 H209        0.5389  -23.1821  -51.5290 H         1 UNK         0.0600 
    210 H210       -1.9960  -22.7570  -49.9111 H         1 UNK         0.3000 
    211 H211       -3.5453  -21.1606  -50.0935 H         1 UNK         0.0600 
    212 H212       -5.2370  -23.2261  -51.5957 H         1 UNK         0.0600 
    213 H213       -5.8205  -21.8402  -50.6805 H         1 UNK         0.0600 
    214 H214       -5.0565  -23.1782  -49.8468 H         1 UNK         0.0600 
    215 H215       -1.6035  -20.7373  -51.8627 H         1 UNK         0.3000 
    216 H216       -0.9300  -19.5649  -53.6161 H         1 UNK         0.0600 
    217 H217       -2.3775  -17.9011  -54.6826 H         1 UNK         0.0600 
    218 H218       -2.6798  -17.9010  -52.9544 H         1 UNK         0.0600 
    219 H219       -3.8273  -18.6640  -54.0518 H         1 UNK         0.0600 
    220 H220       -1.1649  -22.1973  -53.9517 H         1 UNK         0.3000 
    221 H221       -1.0644  -23.8799  -55.3786 H         1 UNK         0.0600 
    222 H222       -0.9571  -21.7677  -57.5959 H         1 UNK         0.0600 
    223 H223        0.4244  -22.3281  -56.6546 H         1 UNK         0.0600 
    224 H224       -0.4224  -23.4380  -57.7190 H         1 UNK         0.0600 
    225 H225       -3.5300  -23.4234  -54.4238 H         1 UNK         0.3000 
    226 H226       -5.6793  -23.8580  -54.5529 H         1 UNK         0.0600 
    227 H227       -4.7702  -26.0747  -55.2702 H         1 UNK         0.0600 
    228 H228       -6.3732  -25.7845  -55.9226 H         1 UNK         0.0600 
    229 H229       -4.9643  -25.6102  -56.9604 H         1 UNK         0.0600 
    230 H230       -4.8250  -21.4768  -56.0349 H         1 UNK         0.3000 
    231 H231       -6.3475  -21.0015  -58.3260 H         1 UNK         0.0600 
    232 H232       -5.3314  -19.0622  -56.1950 H         1 UNK         0.0600 
    233 H233       -6.0271  -18.5692  -57.7331 H         1 UNK         0.0600 
    234 H234       -4.5496  -19.5125  -57.7077 H         1 UNK         0.0600 
    235 H235       -9.1861  -20.1158  -55.4589 H         1 UNK         0.3000 
    236 H236       -6.3663  -20.4135  -54.5836 H         1 UNK         0.0600 
    237 H237       -7.7488  -22.5043  -54.0898 H         1 UNK         0.0600 
    238 H238       -7.2662  -21.6563  -52.6330 H         1 UNK         0.0600 
    239 H239       -8.9106  -21.4972  -53.2366 H         1 UNK         0.0600 
    240 H240       -6.0495  -19.4685  -52.4379 H         1 UNK         0.3000 
    241 H241       -6.9671  -16.7693  -52.4105 H         1 UNK         0.0600 
    242 H242       -9.6383  -18.5167  -49.9528 H         1 UNK         0.3800 
    243 H243       -8.6436  -19.4642  -51.0274 H         1 UNK         0.3800 
    244 H244       -4.6931  -17.3622  -51.7208 H         1 UNK         0.0800 
    245 H245       -5.5137  -16.4197  -50.5125 H         1 UNK         0.0800 
    246 H246       -3.6404  -18.3724  -47.8677 H         1 UNK         0.0800 
    247 H247       -4.1405  -16.8319  -48.5118 H         1 UNK         0.0800 
@<TRIPOS>BOND
     1    1    2 1    
     2    1  127 1    
     3    1  128 1    
     4    1  129 1    
     5    2    3 2    
     6    2    4 am   BACKBONE|DICT|INTERRES
     7    4    5 1    
     8    4  130 1    
     9    5    6 1    
    10    5   65 1    
    11    5  131 1    
    12    6    7 1    
    13    6  132 1    
    14    6  133 1    
    15    7    8 1    
    16    8    9 1    
    17    8  134 1    
    18    8  135 1    
    19    9   10 ar   
    20    9   14 ar   
    21   10   11 ar   
    22   10  136 1    
    23   11   12 ar   
    24   11  126 1    
    25   12   13 ar   
    26   12  137 1    
    27   13   14 ar   
    28   13   15 1    
    29   14  138 1    
    30   15   16 1    
    31   15  139 1    
    32   15  140 1    
    33   16   17 1    
    34   17   18 1    
    35   17  141 1    
    36   17  142 1    
    37   18   19 1    
    38   18   67 1    
    39   18  143 1    
    40   19   20 am   BACKBONE|DICT|INTERRES
    41   19  144 1    
    42   20   21 2    
    43   20   22 1    
    44   22   23 1    
    45   22   24 1    
    46   22  145 1    
    47   23  146 1    
    48   23  147 1    
    49   23  148 1    
    50   24   25 am   BACKBONE|DICT|INTERRES
    51   24  149 1    
    52   25   26 2    
    53   25   27 1    
    54   27   28 1    
    55   27   29 1    
    56   27  150 1    
    57   28  151 1    
    58   28  152 1    
    59   28  153 1    
    60   29   30 am   BACKBONE|DICT|INTERRES
    61   29  154 1    
    62   30   31 2    
    63   30   32 1    
    64   32   33 1    
    65   32   34 1    
    66   32  155 1    
    67   33  156 1    
    68   33  157 1    
    69   33  158 1    
    70   34   35 am   BACKBONE|DICT|INTERRES
    71   34  159 1    
    72   35   36 2    
    73   35   37 1    
    74   37   38 1    
    75   37   39 1    
    76   37  160 1    
    77   38  161 1    
    78   38  162 1    
    79   38  163 1    
    80   39   40 am   BACKBONE|DICT|INTERRES
    81   39  164 1    
    82   40   41 2    
    83   40   42 1    
    84   42   43 1    
    85   42   44 1    
    86   42  165 1    
    87   43  166 1    
    88   43  167 1    
    89   43  168 1    
    90   44   45 am   BACKBONE|DICT|INTERRES
    91   44  169 1    
    92   45   46 2    
    93   45   47 1    
    94   47   48 1    
    95   47   49 1    
    96   47  170 1    
    97   48  171 1    
    98   48  172 1    
    99   48  173 1    
   100   49   50 am   BACKBONE|DICT|INTERRES
   101   49  174 1    
   102   50   51 2    
   103   50   52 1    
   104   52   53 1    
   105   52   54 1    
   106   52  175 1    
   107   53  176 1    
   108   53  177 1    
   109   53  178 1    
   110   54   55 am   BACKBONE|DICT|INTERRES
   111   54  179 1    
   112   55   56 2    
   113   55   57 1    
   114   57   58 1    
   115   57   59 1    
   116   57  180 1    
   117   58  181 1    
   118   58  182 1    
   119   58  183 1    
   120   59   60 am   BACKBONE|DICT|INTERRES
   121   59  184 1    
   122   60   61 2    
   123   60   62 1    
   124   62   63 1    
   125   62   64 1    
   126   62  185 1    
   127   63  186 1    
   128   63  187 1    
   129   63  188 1    
   130   64   65 am   BACKBONE|DICT|INTERRES
   131   64  189 1    
   132   65   66 2    
   133   67   68 2    
   134   67   69 am   BACKBONE|DICT|INTERRES
   135   69   70 1    
   136   69  190 1    
   137   70   71 1    
   138   70   72 1    
   139   70  191 1    
   140   71  192 1    
   141   71  193 1    
   142   71  194 1    
   143   72   73 2    
   144   72   74 am   BACKBONE|DICT|INTERRES
   145   74   75 1    
   146   74  195 1    
   147   75   76 1    
   148   75   77 1    
   149   75  196 1    
   150   76  197 1    
   151   76  198 1    
   152   76  199 1    
   153   77   78 2    
   154   77   79 am   BACKBONE|DICT|INTERRES
   155   79   80 1    
   156   79  200 1    
   157   80   81 1    
   158   80   82 1    
   159   80  201 1    
   160   81  202 1    
   161   81  203 1    
   162   81  204 1    
   163   82   83 2    
   164   82   84 am   BACKBONE|DICT|INTERRES
   165   84   85 1    
   166   84  205 1    
   167   85   86 1    
   168   85   87 1    
   169   85  206 1    
   170   86  207 1    
   171   86  208 1    
   172   86  209 1    
   173   87   88 2    
   174   87   89 am   BACKBONE|DICT|INTERRES
   175   89   90 1    
   176   89  210 1    
   177   90   91 1    
   178   90   92 1    
   179   90  211 1    
   180   91  212 1    
   181   91  213 1    
   182   91  214 1    
   183   92   93 2    
   184   92   94 am   BACKBONE|DICT|INTERRES
   185   94   95 1    
   186   94  215 1    
   187   95   96 1    
   188   95   97 1    
   189   95  216 1    
   190   96  217 1    
   191   96  218 1    
   192   96  219 1    
   193   97   98 2    
   194   97   99 am   BACKBONE|DICT|INTERRES
   195   99  100 1    
   196   99  220 1    
   197  100  101 1    
   198  100  102 1    
   199  100  221 1    
   200  101  222 1    
   201  101  223 1    
   202  101  224 1    
   203  102  103 2    
   204  102  104 am   BACKBONE|DICT|INTERRES
   205  104  105 1    
   206  104  225 1    
   207  105  106 1    
   208  105  107 1    
   209  105  226 1    
   210  106  227 1    
   211  106  228 1    
   212  106  229 1    
   213  107  108 2    
   214  107  109 am   BACKBONE|DICT|INTERRES
   215  109  110 1    
   216  109  230 1    
   217  110  111 1    
   218  110  112 1    
   219  110  231 1    
   220  111  232 1    
   221  111  233 1    
   222  111  234 1    
   223  112  113 2    
   224  112  114 am   BACKBONE|DICT|INTERRES
   225  114  115 1    
   226  114  235 1    
   227  115  116 1    
   228  115  117 1    
   229  115  236 1    
   230  116  237 1    
   231  116  238 1    
   232  116  239 1    
   233  117  118 2    
   234  117  119 am   BACKBONE|DICT|INTERRES
   235  119  120 1    
   236  119  240 1    
   237  120  121 1    
   238  120  124 1    
   239  120  241 1    
   240  121  122 am   BACKBONE|DICT|INTERRES
   241  121  123 2    
   242  122  242 1    
   243  122  243 1    
   244  124  125 1    
   245  124  244 1    
   246  124  245 1    
   247  125  126 1    
   248  126  246 1    
   249  126  247 1    
@<TRIPOS>SUBSTRUCTURE
     1 UNK         1 GROUP             0       ****    0 ROOT    
