@<TRIPOS>MOLECULE
3R540
247   249    1
SMALL
USER_CHARGES


@<TRIPOS>ATOM
      1 CA          3.0422  -13.2404  -52.0439 C.3       0 UNK        -0.1800 
      2 C           3.0429  -13.4623  -50.5375 C.2       0 UNK         0.5000 
      3 O           2.2719  -14.2834  -50.0466 O.2       0 UNK        -0.5000 
      4 N           3.9008  -12.7183  -49.8212 N.am      1 UNK        -0.5000 
      5 CA          4.1361  -12.7309  -48.3660 C.3       1 UNK         0.1400 
      6 C6          5.1042  -13.8491  -47.8776 C.3       23 UNK        -0.0398 
      7 S7          4.4695  -15.5589  -47.9800 S.3       23 UNK        -0.2404 
      8 C8          5.4122  -16.1912  -49.4003 C.3       23 UNK        -0.0205 
      9 C9          4.7118  -17.3829  -50.0289 C.ar      23 UNK        -0.0193 
     10 C10         3.9613  -17.2193  -51.1960 C.ar      23 UNK        -0.1150 
     11 C11         3.3025  -18.3062  -51.7746 C.ar      23 UNK        -0.0193 
     12 C12         3.3970  -19.5657  -51.1763 C.ar      23 UNK        -0.1150 
     13 C13         4.1350  -19.7390  -50.0021 C.ar      23 UNK        -0.0193 
     14 C14         4.8017  -18.6466  -49.4400 C.ar      23 UNK        -0.1150 
     15 C15         4.1989  -21.0992  -49.3265 C.3       23 UNK        -0.0205 
     16 S16         3.1735  -21.1385  -47.8236 S.3       23 UNK        -0.2404 
     17 C17         1.4827  -21.0296  -48.5079 C.3       23 UNK        -0.0398 
     18 CA          0.5512  -22.0785  -47.8613 C.3       11 UNK         0.1400 
     19 N           0.3209  -21.8189  -46.4378 N.am      11 UNK        -0.5000 
     20 C          -0.2253  -22.6988  -45.5890 C.2       10 UNK         0.5000 
     21 O          -0.5510  -23.8423  -45.9092 O.2       10 UNK        -0.5000 
     22 CA         -0.5063  -22.1996  -44.1600 C.3       10 UNK         0.1400 
     23 CB          0.7635  -22.2479  -43.2975 C.3       10 UNK        -0.1800 
     24 N          -1.0747  -20.8493  -44.1441 N.am      10 UNK        -0.5000 
     25 C          -2.2762  -20.5399  -44.6526 C.2       9 UNK         0.5000 
     26 O          -3.0421  -21.3732  -45.1337 O.2       9 UNK        -0.5000 
     27 CA         -2.6876  -19.0576  -44.6600 C.3       9 UNK         0.1400 
     28 CB         -3.2906  -18.6623  -43.3043 C.3       9 UNK        -0.1800 
     29 N          -1.5859  -18.1567  -44.9998 N.am      9 UNK        -0.5000 
     30 C          -0.9621  -18.1239  -46.1872 C.2       8 UNK         0.5000 
     31 O          -1.2813  -18.8276  -47.1450 O.2       8 UNK        -0.5000 
     32 CA          0.2645  -17.1974  -46.3066 C.3       8 UNK         0.1400 
     33 CB         -0.1540  -15.7400  -46.5516 C.3       8 UNK        -0.1800 
     34 N           1.1344  -17.2690  -45.1326 N.am      8 UNK        -0.5000 
     35 C           1.7484  -18.3851  -44.7150 C.2       7 UNK         0.5000 
     36 O           1.6681  -19.4689  -45.2915 O.2       7 UNK        -0.5000 
     37 CA          2.5236  -18.2888  -43.3929 C.3       7 UNK         0.1400 
     38 CB          3.8985  -17.6348  -43.6025 C.3       7 UNK        -0.1800 
     39 N           1.7614  -17.5490  -42.3869 N.am      7 UNK        -0.5000 
     40 C           0.6787  -18.0322  -41.7609 C.2       6 UNK         0.5000 
     41 O           0.2372  -19.1671  -41.9409 O.2       6 UNK        -0.5000 
     42 CA         -0.0530  -17.0805  -40.7952 C.3       6 UNK         0.1400 
     43 CB          0.6035  -17.1088  -39.4070 C.3       6 UNK        -0.1800 
     44 N          -0.1031  -15.7000  -41.2793 N.am      6 UNK        -0.5000 
     45 C          -0.7860  -15.3046  -42.3625 C.2       5 UNK         0.5000 
     46 O          -1.4678  -16.0596  -43.0522 O.2       5 UNK        -0.5000 
     47 CA         -0.6493  -13.8290  -42.7775 C.3       5 UNK         0.1400 
     48 CB         -1.6904  -12.9644  -42.0521 C.3       5 UNK        -0.1800 
     49 N           0.6827  -13.2568  -42.5686 N.am      5 UNK        -0.5000 
     50 C           1.8303  -13.7506  -43.0526 C.2       4 UNK         0.5000 
     51 O           1.9188  -14.8333  -43.6339 O.2       4 UNK        -0.5000 
     52 CA          3.0608  -12.8431  -42.8966 C.3       4 UNK         0.1400 
     53 CB          4.3752  -13.5501  -43.2752 C.3       4 UNK        -0.1800 
     54 N           2.8681  -11.6880  -43.7672 N.am      4 UNK        -0.5000 
     55 C           2.3524  -10.5096  -43.3913 C.2       3 UNK         0.5000 
     56 O           2.1003  -10.2210  -42.2210 O.2       3 UNK        -0.5000 
     57 CA          2.0229   -9.4967  -44.5080 C.3       3 UNK         0.1400 
     58 CB          3.1943   -8.5249  -44.7154 C.3       3 UNK        -0.1800 
     59 N           1.6997  -10.1346  -45.7861 N.am      3 UNK        -0.5000 
     60 C           0.6157  -10.8896  -46.0190 C.2       2 UNK         0.5000 
     61 O          -0.2992  -11.0374  -45.2083 O.2       2 UNK        -0.5000 
     62 CA          0.5542  -11.6291  -47.3727 C.3       2 UNK         0.1400 
     63 CB         -0.3616  -10.8852  -48.3563 C.3       2 UNK        -0.1800 
     64 N           1.8568  -11.8501  -48.0126 N.am      2 UNK        -0.5000 
     65 C           2.8688  -12.5618  -47.4930 C.2       1 UNK         0.5000 
     66 O           2.8434  -13.0232  -46.3534 O.2       1 UNK        -0.5000 
     67 C          -0.7723  -22.2274  -48.6414 C.2       11 UNK         0.5000 
     68 O          -0.8543  -23.0911  -49.5138 O.2       11 UNK        -0.5000 
     69 N          -1.7988  -21.4372  -48.2916 N.am      12 UNK        -0.5000 
     70 CA         -3.1550  -21.5743  -48.8274 C.3       12 UNK         0.1400 
     71 CB         -4.0187  -20.3779  -48.4026 C.3       12 UNK        -0.1800 
     72 C          -3.8138  -22.9025  -48.4122 C.2       12 UNK         0.5000 
     73 O          -4.4074  -23.5737  -49.2529 O.2       12 UNK        -0.5000 
     74 N          -3.6650  -23.2942  -47.1390 N.am      13 UNK        -0.5000 
     75 CA         -4.1389  -24.5762  -46.6130 C.3       13 UNK         0.1400 
     76 CB         -3.9307  -24.6317  -45.0928 C.3       13 UNK        -0.1800 
     77 C          -3.4809  -25.7823  -47.3102 C.2       13 UNK         0.5000 
     78 O          -4.1793  -26.7359  -47.6591 O.2       13 UNK        -0.5000 
     79 N          -2.1652  -25.6892  -47.5536 N.am      14 UNK        -0.5000 
     80 CA         -1.3902  -26.6580  -48.3312 C.3       14 UNK         0.1400 
     81 CB          0.1051  -26.3245  -48.2252 C.3       14 UNK        -0.1800 
     82 C          -1.8317  -26.7411  -49.8064 C.2       14 UNK         0.5000 
     83 O          -1.8239  -27.8321  -50.3789 O.2       14 UNK        -0.5000 
     84 N          -2.2601  -25.6101  -50.3844 N.am      15 UNK        -0.5000 
     85 CA         -2.8589  -25.4983  -51.7160 C.3       15 UNK         0.1400 
     86 CB         -2.7025  -24.0551  -52.2273 C.3       15 UNK        -0.1800 
     87 C          -4.3260  -25.9817  -51.7276 C.2       15 UNK         0.5000 
     88 O          -5.2374  -25.2147  -52.0474 O.2       15 UNK        -0.5000 
     89 N          -4.5102  -27.2618  -51.3747 N.am      16 UNK        -0.5000 
     90 CA         -5.7509  -28.0403  -51.3979 C.3       16 UNK         0.1400 
     91 CB         -6.1277  -28.3833  -52.8535 C.3       16 UNK        -0.1800 
     92 C          -6.9074  -27.3956  -50.6062 C.2       16 UNK         0.5000 
     93 O          -8.0281  -27.3136  -51.1120 O.2       16 UNK        -0.5000 
     94 N          -6.6070  -26.9584  -49.3735 N.am      17 UNK        -0.5000 
     95 CA         -7.5253  -26.3249  -48.4219 C.3       17 UNK         0.1400 
     96 CB         -8.6011  -27.3242  -47.9454 C.3       17 UNK        -0.1800 
     97 C          -8.1120  -25.0044  -48.9613 C.2       17 UNK         0.5000 
     98 O          -9.3317  -24.8274  -48.9841 O.2       17 UNK        -0.5000 
     99 N          -7.2140  -24.1041  -49.3832 N.am      18 UNK        -0.5000 
    100 CA        -7.4809  -22.7733  -49.9301 C.3       18 UNK         0.1400 
    101 CB        -8.1526  -21.8581  -48.8847 C.3       18 UNK        -0.1800 
    102 C         -8.2093  -22.8111  -51.2862 C.2       18 UNK         0.5000 
    103 O         -9.1015  -21.9965  -51.5315 O.2       18 UNK        -0.5000 
    104 N         -7.7856  -23.7290  -52.1686 N.am      19 UNK        -0.5000 
    105 CA        -8.1630  -23.7236  -53.5862 C.3       19 UNK         0.1400 
    106 CB        -7.8454  -25.0888  -54.2119 C.3       19 UNK        -0.1800 
    107 C         -7.4452  -22.5929  -54.3516 C.2       19 UNK         0.5000 
    108 O         -7.9762  -22.0851  -55.3400 O.2       19 UNK        -0.5000 
    109 N         -6.2722  -22.1986  -53.8464 N.am      20 UNK        -0.5000 
    110 CA        -5.5348  -20.9928  -54.1905 C.3       20 UNK         0.1400 
    111 CB        -4.3967  -21.3483  -55.1606 C.3       20 UNK        -0.1800 
    112 C         -4.9893  -20.4032  -52.8805 C.2       20 UNK         0.5000 
    113 O         -4.8963  -21.1179  -51.8791 O.2       20 UNK        -0.5000 
    114 N         -4.6300  -19.1187  -52.9049 N.am      21 UNK        -0.5000 
    115 CA        -4.0219  -18.4046  -51.7881 C.3       21 UNK         0.1400 
    116 CB        -5.1146  -17.8349  -50.8668 C.3       21 UNK        -0.1800 
    117 C         -3.1329  -17.2928  -52.3558 C.2       21 UNK         0.5000 
    118 O         -3.4609  -16.7285  -53.4035 O.2       21 UNK        -0.5000 
    119 N         -2.0279  -17.0087  -51.6610 N.am      22 UNK        -0.5000 
    120 CA        -1.0021  -16.0392  -52.0862 C.3       22 UNK         0.1400 
    121 C         -1.1906  -14.6179  -51.4807 C.2       22 UNK         0.5000 
    122 N         -2.1068  -14.4092  -50.5420 N.am      22 UNK        -0.7600 
    123 O         -0.5223  -13.6774  -51.8986 O.2       22 UNK        -0.5000 
    124 C124        0.4273  -16.5859  -51.8353 C.3       23 UNK        -0.0398 
    125 S125        0.7006  -18.1741  -52.7005 S.3       23 UNK        -0.2404 
    126 C126        2.4855  -18.1226  -53.0430 C.3       23 UNK        -0.0205 
    127 H127        3.1547  -14.1885  -52.5686 H         1 UNK         0.0600 
    128 H128        3.8521  -12.5819  -52.3585 H         1 UNK         0.0600 
    129 H129        2.0986  -12.7916  -52.3540 H         1 UNK         0.0600 
    130 H130        4.4781  -12.0589  -50.3244 H         1 UNK         0.3000 
    131 H131        4.6754  -11.7985  -48.1922 H         1 UNK         0.0600 
    132 H132        5.3810  -13.6682  -46.8376 H         1 UNK         0.0800 
    133 H133        6.0417  -13.7806  -48.4302 H         1 UNK         0.0800 
    134 H134        6.4149  -16.4728  -49.0758 H         1 UNK         0.0800 
    135 H135        5.5359  -15.4009  -50.1424 H         1 UNK         0.0800 
    136 H136        3.8833  -16.2425  -51.6493 H         1 UNK         0.1150 
    137 H137        2.8790  -20.4054  -51.6182 H         1 UNK         0.1150 
    138 H138        5.3683  -18.7744  -48.5282 H         1 UNK         0.1150 
    139 H139        3.8857  -21.8925  -50.0070 H         1 UNK         0.0800 
    140 H140        5.2325  -21.3184  -49.0553 H         1 UNK         0.0800 
    141 H141        1.5267  -21.1781  -49.5879 H         1 UNK         0.0800 
    142 H142        1.1019  -20.0189  -48.3507 H         1 UNK         0.0800 
    143 H143        1.0534  -23.0460  -47.9321 H         1 UNK         0.0600 
    144 H144        0.6221  -20.9145  -46.0842 H         1 UNK         0.3000 
    145 H145       -1.2395  -22.8743  -43.7133 H         1 UNK         0.0600 
    146 H146        0.5506  -21.9618  -42.2674 H         1 UNK         0.0600 
    147 H147        1.1807  -23.2554  -43.2757 H         1 UNK         0.0600 
    148 H148        1.5378  -21.5814  -43.6763 H         1 UNK         0.0600 
    149 H149       -0.5097  -20.1192  -43.7264 H         1 UNK         0.3000 
    150 H150       -3.4612  -18.9339  -45.4201 H         1 UNK         0.0600 
    151 H151       -4.1116  -19.3268  -43.0319 H         1 UNK         0.0600 
    152 H152       -3.6906  -17.6487  -43.3322 H         1 UNK         0.0600 
    153 H153       -2.5498  -18.7092  -42.5055 H         1 UNK         0.0600 
    154 H154       -1.3030  -17.5010  -44.2764 H         1 UNK         0.3000 
    155 H155        0.8486  -17.5299  -47.1674 H         1 UNK         0.0600 
    156 H156       -0.7411  -15.3443  -45.7230 H         1 UNK         0.0600 
    157 H157       -0.7578  -15.6540  -47.4558 H         1 UNK         0.0600 
    158 H158        0.7185  -15.0982  -46.6809 H         1 UNK         0.0600 
    159 H159        1.2784  -16.4110  -44.6072 H         1 UNK         0.3000 
    160 H160        2.6876  -19.3034  -43.0232 H         1 UNK         0.0600 
    161 H161        3.8145  -16.6268  -44.0088 H         1 UNK         0.0600 
    162 H162        4.4992  -18.2165  -44.3028 H         1 UNK         0.0600 
    163 H163        4.4548  -17.5750  -42.6671 H         1 UNK         0.0600 
    164 H164        2.0003  -16.5736  -42.2688 H         1 UNK         0.3000 
    165 H165       -1.0794  -17.4392  -40.6928 H         1 UNK         0.0600 
    166 H166        0.0442  -16.5030  -38.6938 H         1 UNK         0.0600 
    167 H167        0.6370  -18.1252  -39.0124 H         1 UNK         0.0600 
    168 H168        1.6274  -16.7341  -39.4369 H         1 UNK         0.0600 
    169 H169        0.4405  -15.0149  -40.7757 H         1 UNK         0.3000 
    170 H170       -0.8536  -13.7732  -43.8484 H         1 UNK         0.0600 
    171 H171       -2.6977  -13.3539  -42.2055 H         1 UNK         0.0600 
    172 H172       -1.5094  -12.9328  -40.9770 H         1 UNK         0.0600 
    173 H173       -1.6796  -11.9402  -42.4261 H         1 UNK         0.0600 
    174 H174        0.7111  -12.3484  -42.1266 H         1 UNK         0.3000 
    175 H175        3.1306  -12.5354  -41.8514 H         1 UNK         0.0600 
    176 H176        4.3663  -13.9032  -44.3071 H         1 UNK         0.0600 
    177 H177        5.2282  -12.8818  -43.1590 H         1 UNK         0.0600 
    178 H178        4.5491  -14.4157  -42.6350 H         1 UNK         0.0600 
    179 H179        2.9467  -11.8923  -44.7591 H         1 UNK         0.3000 
    180 H180        1.1521   -8.9216  -44.1863 H         1 UNK         0.0600 
    181 H181        4.0916   -9.0428  -45.0564 H         1 UNK         0.0600 
    182 H182        3.4447   -8.0116  -43.7860 H         1 UNK         0.0600 
    183 H183        2.9469   -7.7595  -45.4512 H         1 UNK         0.0600 
    184 H184        2.3912  -10.0615  -46.5172 H         1 UNK         0.3000 
    185 H185        0.1180  -12.6112  -47.1791 H         1 UNK         0.0600 
    186 H186       -0.4895  -11.4505  -49.2800 H         1 UNK         0.0600 
    187 H187       -1.3539  -10.7338  -47.9294 H         1 UNK         0.0600 
    188 H188        0.0388   -9.9040  -48.6140 H         1 UNK         0.0600 
    189 H189        1.9589  -11.5037  -48.9552 H         1 UNK         0.3000 
    190 H190       -1.6454  -20.6956  -47.6149 H         1 UNK         0.3000 
    191 H191       -3.0820  -21.5642  -49.9163 H         1 UNK         0.0600 
    192 H192       -4.1675  -20.3458  -47.3241 H         1 UNK         0.0600 
    193 H193       -5.0041  -20.4314  -48.8671 H         1 UNK         0.0600 
    194 H194       -3.5651  -19.4346  -48.7056 H         1 UNK         0.0600 
    195 H195       -3.2198  -22.6630  -46.4772 H         1 UNK         0.3000 
    196 H196       -5.2117  -24.6264  -46.8039 H         1 UNK         0.0600 
    197 H197       -4.3149  -25.5656  -44.6808 H         1 UNK         0.0600 
    198 H198       -4.4543  -23.8160  -44.5939 H         1 UNK         0.0600 
    199 H199       -2.8767  -24.5645  -44.8250 H         1 UNK         0.0600 
    200 H200       -1.6583  -24.8919  -47.1807 H         1 UNK         0.3000 
    201 H201       -1.5497  -27.6416  -47.8847 H         1 UNK         0.0600 
    202 H202        0.4347  -26.3143  -47.1860 H         1 UNK         0.0600 
    203 H203        0.3328  -25.3506  -48.6576 H         1 UNK         0.0600 
    204 H204        0.7079  -27.0655  -48.7514 H         1 UNK         0.0600 
    205 H205       -2.2202  -24.7521  -49.8472 H         1 UNK         0.3000 
    206 H206       -2.3044  -26.1446  -52.3993 H         1 UNK         0.0600 
    207 H207       -1.6553  -23.7530  -52.2454 H         1 UNK         0.0600 
    208 H208       -3.0878  -23.9584  -53.2426 H         1 UNK         0.0600 
    209 H209       -3.2435  -23.3435  -51.6050 H         1 UNK         0.0600 
    210 H210       -3.6809  -27.7689  -51.0808 H         1 UNK         0.3000 
    211 H211       -5.5302  -28.9799  -50.8896 H         1 UNK         0.0600 
    212 H212       -6.3524  -27.4890  -53.4329 H         1 UNK         0.0600 
    213 H213       -7.0048  -29.0302  -52.8923 H         1 UNK         0.0600 
    214 H214       -5.3163  -28.9100  -53.3556 H         1 UNK         0.0600 
    215 H215       -5.6486  -27.0429  -49.0488 H         1 UNK         0.3000 
    216 H216       -6.9290  -26.0608  -47.5487 H         1 UNK         0.0600 
    217 H217       -9.2126  -26.8887  -47.1545 H         1 UNK         0.0600 
    218 H218       -8.1465  -28.2290  -47.5420 H         1 UNK         0.0600 
    219 H219       -9.2736  -27.6177  -48.7519 H         1 UNK         0.0600 
    220 H220       -6.2262  -24.3414  -49.3558 H         1 UNK         0.3000 
    221 H221       -6.5059  -22.3370  -50.1440 H         1 UNK         0.0600 
    222 H222       -9.1684  -22.1788  -48.6532 H         1 UNK         0.0600 
    223 H223       -7.5835  -21.8406  -47.9551 H         1 UNK         0.0600 
    224 H224       -8.2093  -20.8312  -49.2473 H         1 UNK         0.0600 
    225 H225       -7.0274  -24.3543  -51.9079 H         1 UNK         0.3000 
    226 H226       -9.2394  -23.5563  -53.6620 H         1 UNK         0.0600 
    227 H227       -8.3171  -25.8985  -53.6548 H         1 UNK         0.0600 
    228 H228       -8.2121  -25.1401  -55.2376 H         1 UNK         0.0600 
    229 H229       -6.7720  -25.2769  -54.2402 H         1 UNK         0.0600 
    230 H230       -5.9374  -22.6497  -53.0030 H         1 UNK         0.3000 
    231 H231       -6.2018  -20.2609  -54.6508 H         1 UNK         0.0600 
    232 H232       -4.7855  -21.7960  -56.0754 H         1 UNK         0.0600 
    233 H233       -3.6945  -22.0538  -54.7152 H         1 UNK         0.0600 
    234 H234       -3.8334  -20.4595  -55.4470 H         1 UNK         0.0600 
    235 H235       -4.6859  -18.5830  -53.7623 H         1 UNK         0.3000 
    236 H236       -3.3909  -19.0924  -51.2205 H         1 UNK         0.0600 
    237 H237       -4.6760  -17.3123  -50.0162 H         1 UNK         0.0600 
    238 H238       -5.7553  -17.1277  -51.3949 H         1 UNK         0.0600 
    239 H239       -5.7495  -18.6267  -50.4690 H         1 UNK         0.0600 
    240 H240       -1.8290  -17.5165  -50.8116 H         1 UNK         0.3000 
    241 H241       -1.0891  -15.8945  -53.1650 H         1 UNK         0.0600 
    242 H242       -2.2333  -13.4799  -50.1752 H         1 UNK         0.3800 
    243 H243       -2.6886  -15.1624  -50.2145 H         1 UNK         0.3800 
    244 H244        1.1717  -15.8659  -52.1789 H         1 UNK         0.0800 
    245 H245        0.6095  -16.7279  -50.7685 H         1 UNK         0.0800 
    246 H246        2.7390  -17.1866  -53.5432 H         1 UNK         0.0800 
    247 H247        2.7320  -18.9198  -53.7457 H         1 UNK         0.0800 
@<TRIPOS>BOND
     1    1    2 1    
     2    1  127 1    
     3    1  128 1    
     4    1  129 1    
     5    2    3 2    
     6    2    4 am   BACKBONE|DICT|INTERRES
     7    4    5 1    
     8    4  130 1    
     9    5    6 1    
    10    5   65 1    
    11    5  131 1    
    12    6    7 1    
    13    6  132 1    
    14    6  133 1    
    15    7    8 1    
    16    8    9 1    
    17    8  134 1    
    18    8  135 1    
    19    9   10 ar   
    20    9   14 ar   
    21   10   11 ar   
    22   10  136 1    
    23   11   12 ar   
    24   11  126 1    
    25   12   13 ar   
    26   12  137 1    
    27   13   14 ar   
    28   13   15 1    
    29   14  138 1    
    30   15   16 1    
    31   15  139 1    
    32   15  140 1    
    33   16   17 1    
    34   17   18 1    
    35   17  141 1    
    36   17  142 1    
    37   18   19 1    
    38   18   67 1    
    39   18  143 1    
    40   19   20 am   BACKBONE|DICT|INTERRES
    41   19  144 1    
    42   20   21 2    
    43   20   22 1    
    44   22   23 1    
    45   22   24 1    
    46   22  145 1    
    47   23  146 1    
    48   23  147 1    
    49   23  148 1    
    50   24   25 am   BACKBONE|DICT|INTERRES
    51   24  149 1    
    52   25   26 2    
    53   25   27 1    
    54   27   28 1    
    55   27   29 1    
    56   27  150 1    
    57   28  151 1    
    58   28  152 1    
    59   28  153 1    
    60   29   30 am   BACKBONE|DICT|INTERRES
    61   29  154 1    
    62   30   31 2    
    63   30   32 1    
    64   32   33 1    
    65   32   34 1    
    66   32  155 1    
    67   33  156 1    
    68   33  157 1    
    69   33  158 1    
    70   34   35 am   BACKBONE|DICT|INTERRES
    71   34  159 1    
    72   35   36 2    
    73   35   37 1    
    74   37   38 1    
    75   37   39 1    
    76   37  160 1    
    77   38  161 1    
    78   38  162 1    
    79   38  163 1    
    80   39   40 am   BACKBONE|DICT|INTERRES
    81   39  164 1    
    82   40   41 2    
    83   40   42 1    
    84   42   43 1    
    85   42   44 1    
    86   42  165 1    
    87   43  166 1    
    88   43  167 1    
    89   43  168 1    
    90   44   45 am   BACKBONE|DICT|INTERRES
    91   44  169 1    
    92   45   46 2    
    93   45   47 1    
    94   47   48 1    
    95   47   49 1    
    96   47  170 1    
    97   48  171 1    
    98   48  172 1    
    99   48  173 1    
   100   49   50 am   BACKBONE|DICT|INTERRES
   101   49  174 1    
   102   50   51 2    
   103   50   52 1    
   104   52   53 1    
   105   52   54 1    
   106   52  175 1    
   107   53  176 1    
   108   53  177 1    
   109   53  178 1    
   110   54   55 am   BACKBONE|DICT|INTERRES
   111   54  179 1    
   112   55   56 2    
   113   55   57 1    
   114   57   58 1    
   115   57   59 1    
   116   57  180 1    
   117   58  181 1    
   118   58  182 1    
   119   58  183 1    
   120   59   60 am   BACKBONE|DICT|INTERRES
   121   59  184 1    
   122   60   61 2    
   123   60   62 1    
   124   62   63 1    
   125   62   64 1    
   126   62  185 1    
   127   63  186 1    
   128   63  187 1    
   129   63  188 1    
   130   64   65 am   BACKBONE|DICT|INTERRES
   131   64  189 1    
   132   65   66 2    
   133   67   68 2    
   134   67   69 am   BACKBONE|DICT|INTERRES
   135   69   70 1    
   136   69  190 1    
   137   70   71 1    
   138   70   72 1    
   139   70  191 1    
   140   71  192 1    
   141   71  193 1    
   142   71  194 1    
   143   72   73 2    
   144   72   74 am   BACKBONE|DICT|INTERRES
   145   74   75 1    
   146   74  195 1    
   147   75   76 1    
   148   75   77 1    
   149   75  196 1    
   150   76  197 1    
   151   76  198 1    
   152   76  199 1    
   153   77   78 2    
   154   77   79 am   BACKBONE|DICT|INTERRES
   155   79   80 1    
   156   79  200 1    
   157   80   81 1    
   158   80   82 1    
   159   80  201 1    
   160   81  202 1    
   161   81  203 1    
   162   81  204 1    
   163   82   83 2    
   164   82   84 am   BACKBONE|DICT|INTERRES
   165   84   85 1    
   166   84  205 1    
   167   85   86 1    
   168   85   87 1    
   169   85  206 1    
   170   86  207 1    
   171   86  208 1    
   172   86  209 1    
   173   87   88 2    
   174   87   89 am   BACKBONE|DICT|INTERRES
   175   89   90 1    
   176   89  210 1    
   177   90   91 1    
   178   90   92 1    
   179   90  211 1    
   180   91  212 1    
   181   91  213 1    
   182   91  214 1    
   183   92   93 2    
   184   92   94 am   BACKBONE|DICT|INTERRES
   185   94   95 1    
   186   94  215 1    
   187   95   96 1    
   188   95   97 1    
   189   95  216 1    
   190   96  217 1    
   191   96  218 1    
   192   96  219 1    
   193   97   98 2    
   194   97   99 am   BACKBONE|DICT|INTERRES
   195   99  100 1    
   196   99  220 1    
   197  100  101 1    
   198  100  102 1    
   199  100  221 1    
   200  101  222 1    
   201  101  223 1    
   202  101  224 1    
   203  102  103 2    
   204  102  104 am   BACKBONE|DICT|INTERRES
   205  104  105 1    
   206  104  225 1    
   207  105  106 1    
   208  105  107 1    
   209  105  226 1    
   210  106  227 1    
   211  106  228 1    
   212  106  229 1    
   213  107  108 2    
   214  107  109 am   BACKBONE|DICT|INTERRES
   215  109  110 1    
   216  109  230 1    
   217  110  111 1    
   218  110  112 1    
   219  110  231 1    
   220  111  232 1    
   221  111  233 1    
   222  111  234 1    
   223  112  113 2    
   224  112  114 am   BACKBONE|DICT|INTERRES
   225  114  115 1    
   226  114  235 1    
   227  115  116 1    
   228  115  117 1    
   229  115  236 1    
   230  116  237 1    
   231  116  238 1    
   232  116  239 1    
   233  117  118 2    
   234  117  119 am   BACKBONE|DICT|INTERRES
   235  119  120 1    
   236  119  240 1    
   237  120  121 1    
   238  120  124 1    
   239  120  241 1    
   240  121  122 am   BACKBONE|DICT|INTERRES
   241  121  123 2    
   242  122  242 1    
   243  122  243 1    
   244  124  125 1    
   245  124  244 1    
   246  124  245 1    
   247  125  126 1    
   248  126  246 1    
   249  126  247 1    
@<TRIPOS>SUBSTRUCTURE
     1 UNK         1 GROUP             0       ****    0 ROOT    
