@<TRIPOS>MOLECULE
3R540
247   249    1
SMALL
USER_CHARGES


@<TRIPOS>ATOM
      1 CA          2.1402  -16.6678  -47.5543 C.3       0 UNK        -0.1800 
      2 C           0.8546  -15.9841  -47.1119 C.2       0 UNK         0.5000 
      3 O           0.8732  -15.1792  -46.1790 O.2       0 UNK        -0.5000 
      4 N          -0.2657  -16.2962  -47.7789 N.am      1 UNK        -0.5000 
      5 CA         -1.5843  -15.6954  -47.5290 C.3       1 UNK         0.1400 
      6 C6         -2.7227  -16.4175  -48.2897 C.3       23 UNK        -0.0398 
      7 S7         -2.8945  -18.1803  -47.8508 S.3       23 UNK        -0.2404 
      8 C8         -4.2177  -18.1168  -46.6016 C.3       23 UNK        -0.0205 
      9 C9         -4.9122  -19.4612  -46.4357 C.ar      23 UNK        -0.0193 
     10 C10        -5.8963  -19.8372  -47.3527 C.ar      23 UNK        -0.1150 
     11 C11        -6.6034  -21.0321  -47.1990 C.ar      23 UNK        -0.0193 
     12 C12        -6.3145  -21.8572  -46.1069 C.ar      23 UNK        -0.1150 
     13 C13        -5.3414  -21.4906  -45.1697 C.ar      23 UNK        -0.0193 
     14 C14        -4.6314  -20.2961  -45.3476 C.ar      23 UNK        -0.1150 
     15 C15        -5.1336  -22.3454  -43.9231 C.3       23 UNK        -0.0205 
     16 S16        -4.0539  -23.7869  -44.2080 S.3       23 UNK        -0.2404 
     17 C17        -2.3957  -23.0833  -43.9139 C.3       23 UNK        -0.0398 
     18 CA         -1.7452  -22.5913  -45.2256 C.3       11 UNK         0.1400 
     19 N          -0.9363  -21.3903  -45.0255 N.am      11 UNK        -0.5000 
     20 C          -0.5948  -20.5670  -46.0231 C.2       10 UNK         0.5000 
     21 O          -0.8894  -20.7654  -47.2002 O.2       10 UNK        -0.5000 
     22 CA          0.2639  -19.3540  -45.6418 C.3       10 UNK         0.1400 
     23 CB         -0.5600  -18.3369  -44.8419 C.3       10 UNK        -0.1800 
     24 N           1.4476  -19.7287  -44.8709 N.am      10 UNK        -0.5000 
     25 C           2.4255  -20.5251  -45.3255 C.2       9 UNK         0.5000 
     26 O           2.4629  -20.9717  -46.4713 O.2       9 UNK        -0.5000 
     27 CA          3.5253  -20.9317  -44.3288 C.3       9 UNK         0.1400 
     28 CB          4.6774  -19.9181  -44.3494 C.3       9 UNK        -0.1800 
     29 N           3.0550  -21.0925  -42.9536 N.am      9 UNK        -0.5000 
     30 C           2.0954  -21.9227  -42.5275 C.2       8 UNK         0.5000 
     31 O           1.4436  -22.6524  -43.2760 O.2       8 UNK        -0.5000 
     32 CA          1.7857  -21.9208  -41.0160 C.3       8 UNK         0.1400 
     33 CB          2.7495  -22.8468  -40.2506 C.3       8 UNK        -0.1800 
     34 N           1.7219  -20.5817  -40.4098 N.am      8 UNK        -0.5000 
     35 C           2.7001  -19.6803  -40.2402 C.2       7 UNK         0.5000 
     36 O           3.8818  -19.8692  -40.5377 O.2       7 UNK        -0.5000 
     37 CA          2.2664  -18.3044  -39.7016 C.3       7 UNK         0.1400 
     38 CB          2.9742  -17.9852  -38.3755 C.3       7 UNK        -0.1800 
     39 N           2.5233  -17.2235  -40.6576 N.am      7 UNK        -0.5000 
     40 C           2.0604  -17.1677  -41.9141 C.2       6 UNK         0.5000 
     41 O           1.3954  -18.0607  -42.4431 O.2       6 UNK        -0.5000 
     42 CA          2.3966  -15.8988  -42.7209 C.3       6 UNK         0.1400 
     43 CB          3.3524  -16.2227  -43.8773 C.3       6 UNK        -0.1800 
     44 N           1.1927  -15.2670  -43.2627 N.am      6 UNK        -0.5000 
     45 C           0.2446  -14.6873  -42.5173 C.2       5 UNK         0.5000 
     46 O           0.2861  -14.6169  -41.2852 O.2       5 UNK        -0.5000 
     47 CA         -0.9386  -14.0572  -43.2660 C.3       5 UNK         0.1400 
     48 CB         -2.0913  -15.0588  -43.4448 C.3       5 UNK        -0.1800 
     49 N          -1.3902  -12.9173  -42.4697 N.am      5 UNK        -0.5000 
     50 C          -2.0077  -11.7859  -42.8369 C.2       4 UNK         0.5000 
     51 O          -2.3041  -10.9384  -41.9943 O.2       4 UNK        -0.5000 
     52 CA         -2.3411  -11.5221  -44.3272 C.3       4 UNK         0.1400 
     53 CB         -3.1248  -10.2112  -44.5446 C.3       4 UNK        -0.1800 
     54 N          -1.1697  -11.5435  -45.2055 N.am      4 UNK        -0.5000 
     55 C          -0.0161  -10.8686  -45.0761 C.2       3 UNK         0.5000 
     56 O           0.2012  -10.0331  -44.1983 O.2       3 UNK        -0.5000 
     57 CA          1.1024  -11.1999  -46.0876 C.3       3 UNK         0.1400 
     58 CB          2.2195  -12.0062  -45.4050 C.3       3 UNK        -0.1800 
     59 N           0.6215  -11.9541  -47.2474 N.am      3 UNK        -0.5000 
     60 C          -0.0796  -11.4232  -48.2598 C.2       2 UNK         0.5000 
     61 O          -0.3126  -10.2189  -48.3674 O.2       2 UNK        -0.5000 
     62 CA         -0.6395  -12.3961  -49.3172 C.3       2 UNK         0.1400 
     63 CB          0.2492  -12.3948  -50.5704 C.3       2 UNK        -0.1800 
     64 N          -0.7897  -13.7764  -48.8469 N.am      2 UNK        -0.5000 
     65 C          -1.6048  -14.1884  -47.8634 C.2       1 UNK         0.5000 
     66 O          -2.3202  -13.4312  -47.2083 O.2       1 UNK        -0.5000 
     67 C          -0.9689  -23.6980  -45.9708 C.2       11 UNK         0.5000 
     68 O          -1.5748  -24.4504  -46.7320 O.2       11 UNK        -0.5000 
     69 N           0.3614  -23.7431  -45.8014 N.am      12 UNK        -0.5000 
     70 CA          1.2568  -24.5895  -46.5916 C.3       12 UNK         0.1400 
     71 CB          2.6739  -24.5498  -46.0025 C.3       12 UNK        -0.1800 
     72 C           1.2638  -24.1974  -48.0823 C.2       12 UNK         0.5000 
     73 O           1.1790  -25.0793  -48.9358 O.2       12 UNK        -0.5000 
     74 N           1.3103  -22.8883  -48.3729 N.am      13 UNK        -0.5000 
     75 CA          1.1872  -22.3377  -49.7249 C.3       13 UNK         0.1400 
     76 CB          1.5235  -20.8384  -49.7155 C.3       13 UNK        -0.1800 
     77 C          -0.2022  -22.5909  -50.3390 C.2       13 UNK         0.5000 
     78 O          -0.2904  -22.9288  -51.5193 O.2       13 UNK        -0.5000 
     79 N          -1.2587  -22.4716  -49.5239 N.am      14 UNK        -0.5000 
     80 CA         -2.6321  -22.8074  -49.8984 C.3       14 UNK         0.1400 
     81 CB         -3.5948  -22.3841  -48.7829 C.3       14 UNK        -0.1800 
     82 C          -2.8041  -24.2994  -50.2411 C.2       14 UNK         0.5000 
     83 O          -3.4024  -24.6170  -51.2686 O.2       14 UNK        -0.5000 
     84 N          -2.2303  -25.1860  -49.4144 N.am      15 UNK        -0.5000 
     85 CA         -2.1952  -26.6355  -49.6317 C.3       15 UNK         0.1400 
     86 CB         -1.6477  -27.3302  -48.3760 C.3       15 UNK        -0.1800 
     87 C          -1.3832  -27.0412  -50.8775 C.2       15 UNK         0.5000 
     88 O          -1.7622  -27.9875  -51.5682 O.2       15 UNK        -0.5000 
     89 N          -0.3105  -26.2925  -51.1678 N.am      16 UNK        -0.5000 
     90 CA          0.5008  -26.4073  -52.3827 C.3       16 UNK         0.1400 
     91 CB          1.8651  -25.7438  -52.1348 C.3       16 UNK        -0.1800 
     92 C          -0.1755  -25.8142  -53.6392 C.2       16 UNK         0.5000 
     93 O           0.3744  -25.9538  -54.7326 O.2       16 UNK        -0.5000 
     94 N          -1.3426  -25.1754  -53.4683 N.am      17 UNK        -0.5000 
     95 CA         -2.1778  -24.5380  -54.4865 C.3       17 UNK         0.1400 
     96 CB         -2.7136  -25.5763  -55.4954 C.3       17 UNK        -0.1800 
     97 C          -1.4953  -23.3271  -55.1518 C.2       17 UNK         0.5000 
     98 O          -1.5401  -23.1871  -56.3764 O.2       17 UNK        -0.5000 
     99 N          -0.8855  -22.4603  -54.3295 N.am      18 UNK        -0.5000 
    100 CA        -0.3517  -21.1605  -54.7420 C.3       18 UNK         0.1400 
    101 CB         0.3799  -20.5104  -53.5586 C.3       18 UNK        -0.1800 
    102 C         -1.4543  -20.2271  -55.2847 C.2       18 UNK         0.5000 
    103 O         -2.5965  -20.2856  -54.8186 O.2       18 UNK        -0.5000 
    104 N         -1.0807  -19.3992  -56.2695 N.am      19 UNK        -0.5000 
    105 CA        -1.9573  -18.5372  -57.0648 C.3       19 UNK         0.1400 
    106 CB        -1.0991  -17.7208  -58.0455 C.3       19 UNK        -0.1800 
    107 C         -2.8614  -17.6176  -56.2214 C.2       19 UNK         0.5000 
    108 O         -2.3715  -16.6599  -55.6198 O.2       19 UNK        -0.5000 
    109 N         -4.1611  -17.9462  -56.2032 N.am      20 UNK        -0.5000 
    110 CA        -5.2566  -17.2346  -55.5365 C.3       20 UNK         0.1400 
    111 CB        -5.4888  -15.8610  -56.2011 C.3       20 UNK        -0.1800 
    112 C         -5.1201  -17.1347  -54.0009 C.2       20 UNK         0.5000 
    113 O         -5.6947  -16.2211  -53.4058 O.2       20 UNK        -0.5000 
    114 N         -4.3973  -18.0796  -53.3767 N.am      21 UNK        -0.5000 
    115 CA        -4.1232  -18.1217  -51.9338 C.3       21 UNK         0.1400 
    116 CB        -3.2596  -19.3528  -51.6189 C.3       21 UNK        -0.1800 
    117 C         -5.3892  -18.1047  -51.0544 C.2       21 UNK         0.5000 
    118 O         -5.4473  -17.3553  -50.0798 O.2       21 UNK        -0.5000 
    119 N         -6.3941  -18.8912  -51.4544 N.am      22 UNK        -0.5000 
    120 CA        -7.7207  -18.9533  -50.8188 C.3       22 UNK         0.1400 
    121 C         -8.7533  -17.9567  -51.4275 C.2       22 UNK         0.5000 
    122 N         -8.3650  -17.0230  -52.2888 N.am      22 UNK        -0.7600 
    123 O         -9.9361  -18.0180  -51.1028 O.2       22 UNK        -0.5000 
    124 C124       -8.2665  -20.4056  -50.7723 C.3       23 UNK        -0.0398 
    125 S125       -7.1530  -21.5556  -49.8896 S.3       23 UNK        -0.2404 
    126 C126       -7.7278  -21.3892  -48.1657 C.3       23 UNK        -0.0205 
    127 H127        2.4878  -17.3577  -46.7869 H         1 UNK         0.0600 
    128 H128        2.9194  -15.9250  -47.7238 H         1 UNK         0.0600 
    129 H129        2.0009  -17.2312  -48.4773 H         1 UNK         0.0600 
    130 H130       -0.2344  -16.9877  -48.5145 H         1 UNK         0.3000 
    131 H131       -1.7880  -15.7830  -46.4603 H         1 UNK         0.0600 
    132 H132       -3.6784  -15.9177  -48.1213 H         1 UNK         0.0800 
    133 H133       -2.5512  -16.3639  -49.3660 H         1 UNK         0.0800 
    134 H134       -3.8077  -17.7746  -45.6509 H         1 UNK         0.0800 
    135 H135       -4.9642  -17.3774  -46.8956 H         1 UNK         0.0800 
    136 H136       -6.1195  -19.1850  -48.1833 H         1 UNK         0.1150 
    137 H137       -6.8730  -22.7714  -45.9626 H         1 UNK         0.1150 
    138 H138       -3.8868  -19.9996  -44.6223 H         1 UNK         0.1150 
    139 H139       -4.7490  -21.7394  -43.1017 H         1 UNK         0.0800 
    140 H140       -6.1036  -22.7117  -43.5834 H         1 UNK         0.0800 
    141 H141       -1.7726  -23.8260  -43.4120 H         1 UNK         0.0800 
    142 H142       -2.4957  -22.2630  -43.2023 H         1 UNK         0.0800 
    143 H143       -2.5523  -22.2847  -45.8925 H         1 UNK         0.0600 
    144 H144       -0.5916  -21.2096  -44.0943 H         1 UNK         0.3000 
    145 H145        0.5936  -18.8878  -46.5702 H         1 UNK         0.0600 
    146 H146        0.0179  -17.4349  -44.6511 H         1 UNK         0.0600 
    147 H147       -1.4530  -18.0378  -45.3847 H         1 UNK         0.0600 
    148 H148       -0.8809  -18.7364  -43.8794 H         1 UNK         0.0600 
    149 H149        1.4995  -19.3706  -43.9213 H         1 UNK         0.3000 
    150 H150        3.9194  -21.8965  -44.6510 H         1 UNK         0.0600 
    151 H151        5.5211  -20.2699  -43.7555 H         1 UNK         0.0600 
    152 H152        4.3667  -18.9548  -43.9474 H         1 UNK         0.0600 
    153 H153        5.0401  -19.7530  -45.3649 H         1 UNK         0.0600 
    154 H154        3.5227  -20.5365  -42.2425 H         1 UNK         0.3000 
    155 H155        0.7832  -22.3379  -40.9079 H         1 UNK         0.0600 
    156 H156        2.7009  -23.8639  -40.6415 H         1 UNK         0.0600 
    157 H157        2.4940  -22.8931  -39.1920 H         1 UNK         0.0600 
    158 H158        3.7859  -22.5186  -40.3319 H         1 UNK         0.0600 
    159 H159        0.7859  -20.2854  -40.1699 H         1 UNK         0.3000 
    160 H160        1.1910  -18.3224  -39.5133 H         1 UNK         0.0600 
    161 H161        2.7924  -18.7680  -37.6379 H         1 UNK         0.0600 
    162 H162        2.6130  -17.0488  -37.9497 H         1 UNK         0.0600 
    163 H163        4.0541  -17.9011  -38.5052 H         1 UNK         0.0600 
    164 H164        3.0762  -16.4530  -40.3121 H         1 UNK         0.3000 
    165 H165        2.8884  -15.1764  -42.0662 H         1 UNK         0.0600 
    166 H166        3.5616  -15.3383  -44.4798 H         1 UNK         0.0600 
    167 H167        4.3063  -16.5926  -43.5004 H         1 UNK         0.0600 
    168 H168        2.9367  -16.9855  -44.5353 H         1 UNK         0.0600 
    169 H169        1.0859  -15.2917  -44.2734 H         1 UNK         0.3000 
    170 H170       -0.5761  -13.7518  -44.2443 H         1 UNK         0.0600 
    171 H171       -1.7603  -15.9404  -43.9906 H         1 UNK         0.0600 
    172 H172       -2.4809  -15.3971  -42.4839 H         1 UNK         0.0600 
    173 H173       -2.9175  -14.6254  -44.0074 H         1 UNK         0.0600 
    174 H174       -1.1346  -13.0221  -41.4958 H         1 UNK         0.3000 
    175 H175       -2.9863  -12.3392  -44.6502 H         1 UNK         0.0600 
    176 H176       -2.5430   -9.3375  -44.2488 H         1 UNK         0.0600 
    177 H177       -3.4016  -10.0890  -45.5918 H         1 UNK         0.0600 
    178 H178       -4.0476  -10.2048  -43.9632 H         1 UNK         0.0600 
    179 H179       -1.2533  -12.1844  -45.9865 H         1 UNK         0.3000 
    180 H180        1.5258  -10.2547  -46.4340 H         1 UNK         0.0600 
    181 H181        3.0306  -12.2254  -46.0995 H         1 UNK         0.0600 
    182 H182        1.8513  -12.9531  -45.0106 H         1 UNK         0.0600 
    183 H183        2.6488  -11.4505  -44.5703 H         1 UNK         0.0600 
    184 H184        0.7662  -12.9547  -47.2265 H         1 UNK         0.3000 
    185 H185       -1.6300  -12.0326  -49.5986 H         1 UNK         0.0600 
    186 H186        1.2486  -12.7748  -50.3548 H         1 UNK         0.0600 
    187 H187       -0.1816  -13.0091  -51.3613 H         1 UNK         0.0600 
    188 H188        0.3609  -11.3859  -50.9702 H         1 UNK         0.0600 
    189 H189       -0.2230  -14.4699  -49.3127 H         1 UNK         0.3000 
    190 H190        0.7889  -23.1357  -45.1098 H         1 UNK         0.3000 
    191 H191        0.8917  -25.6160  -46.5180 H         1 UNK         0.0600 
    192 H192        3.1256  -23.5645  -46.1050 H         1 UNK         0.0600 
    193 H193        3.3247  -25.2600  -46.5138 H         1 UNK         0.0600 
    194 H194        2.6717  -24.8116  -44.9442 H         1 UNK         0.0600 
    195 H195        1.4263  -22.2172  -47.6198 H         1 UNK         0.3000 
    196 H196        1.9233  -22.8399  -50.3551 H         1 UNK         0.0600 
    197 H197        1.4825  -20.4229  -50.7226 H         1 UNK         0.0600 
    198 H198        2.5290  -20.6634  -49.3328 H         1 UNK         0.0600 
    199 H199        0.8293  -20.2682  -49.0989 H         1 UNK         0.0600 
    200 H200       -1.1109  -22.1038  -48.5881 H         1 UNK         0.3000 
    201 H201       -2.8783  -22.2326  -50.7927 H         1 UNK         0.0600 
    202 H202       -3.4976  -21.3233  -48.5505 H         1 UNK         0.0600 
    203 H203       -3.4313  -22.9483  -47.8673 H         1 UNK         0.0600 
    204 H204       -4.6261  -22.5623  -49.0803 H         1 UNK         0.0600 
    205 H205       -1.8055  -24.8477  -48.5540 H         1 UNK         0.3000 
    206 H206       -3.2225  -26.9722  -49.7846 H         1 UNK         0.0600 
    207 H207       -0.6298  -27.0112  -48.1511 H         1 UNK         0.0600 
    208 H208       -2.2660  -27.1131  -47.5048 H         1 UNK         0.0600 
    209 H209       -1.6329  -28.4134  -48.5029 H         1 UNK         0.0600 
    210 H210       -0.0246  -25.5810  -50.5029 H         1 UNK         0.3000 
    211 H211        0.6729  -27.4672  -52.5801 H         1 UNK         0.0600 
    212 H212        1.7640  -24.6732  -51.9589 H         1 UNK         0.0600 
    213 H213        2.5265  -25.8732  -52.9922 H         1 UNK         0.0600 
    214 H214        2.3662  -26.1805  -51.2708 H         1 UNK         0.0600 
    215 H215       -1.6951  -25.0933  -52.5227 H         1 UNK         0.3000 
    216 H216       -3.0402  -24.1336  -53.9551 H         1 UNK         0.0600 
    217 H217       -3.4466  -25.1254  -56.1653 H         1 UNK         0.0600 
    218 H218       -3.2079  -26.4025  -54.9842 H         1 UNK         0.0600 
    219 H219       -1.9188  -25.9918  -56.1151 H         1 UNK         0.0600 
    220 H220       -0.8463  -22.6671  -53.3347 H         1 UNK         0.3000 
    221 H221        0.3736  -21.3410  -55.5380 H         1 UNK         0.0600 
    222 H222       -0.2863  -20.3574  -52.7098 H         1 UNK         0.0600 
    223 H223        1.2104  -21.1317  -53.2226 H         1 UNK         0.0600 
    224 H224        0.7913  -19.5387  -53.8342 H         1 UNK         0.0600 
    225 H225       -0.1117  -19.4062  -56.5524 H         1 UNK         0.3000 
    226 H226       -2.5951  -19.1949  -57.6590 H         1 UNK         0.0600 
    227 H227       -0.5466  -18.3710  -58.7242 H         1 UNK         0.0600 
    228 H228       -1.7214  -17.0675  -58.6586 H         1 UNK         0.0600 
    229 H229       -0.3783  -17.0910  -57.5225 H         1 UNK         0.0600 
    230 H230       -4.4373  -18.7854  -56.6942 H         1 UNK         0.3000 
    231 H231       -6.1511  -17.8341  -55.7111 H         1 UNK         0.0600 
    232 H232       -6.3970  -15.3893  -55.8240 H         1 UNK         0.0600 
    233 H233       -5.6029  -15.9589  -57.2807 H         1 UNK         0.0600 
    234 H234       -4.6621  -15.1756  -56.0117 H         1 UNK         0.0600 
    235 H235       -3.9467  -18.7918  -53.9408 H         1 UNK         0.3000 
    236 H236       -3.5445  -17.2297  -51.6862 H         1 UNK         0.0600 
    237 H237       -3.0749  -19.4476  -50.5485 H         1 UNK         0.0600 
    238 H238       -3.7390  -20.2737  -51.9522 H         1 UNK         0.0600 
    239 H239       -2.2900  -19.2837  -52.1097 H         1 UNK         0.0600 
    240 H240       -6.2678  -19.4547  -52.2818 H         1 UNK         0.3000 
    241 H241       -7.6236  -18.6282  -49.7827 H         1 UNK         0.0600 
    242 H242       -9.0516  -16.3868  -52.6621 H         1 UNK         0.3800 
    243 H243       -7.3891  -16.8990  -52.5332 H         1 UNK         0.3800 
    244 H244       -9.2504  -20.4428  -50.3019 H         1 UNK         0.0800 
    245 H245       -8.4074  -20.7836  -51.7859 H         1 UNK         0.0800 
    246 H246       -8.2066  -22.3243  -47.8716 H         1 UNK         0.0800 
    247 H247       -8.4965  -20.6193  -48.0919 H         1 UNK         0.0800 
@<TRIPOS>BOND
     1    1    2 1    
     2    1  127 1    
     3    1  128 1    
     4    1  129 1    
     5    2    3 2    
     6    2    4 am   BACKBONE|DICT|INTERRES
     7    4    5 1    
     8    4  130 1    
     9    5    6 1    
    10    5   65 1    
    11    5  131 1    
    12    6    7 1    
    13    6  132 1    
    14    6  133 1    
    15    7    8 1    
    16    8    9 1    
    17    8  134 1    
    18    8  135 1    
    19    9   10 ar   
    20    9   14 ar   
    21   10   11 ar   
    22   10  136 1    
    23   11   12 ar   
    24   11  126 1    
    25   12   13 ar   
    26   12  137 1    
    27   13   14 ar   
    28   13   15 1    
    29   14  138 1    
    30   15   16 1    
    31   15  139 1    
    32   15  140 1    
    33   16   17 1    
    34   17   18 1    
    35   17  141 1    
    36   17  142 1    
    37   18   19 1    
    38   18   67 1    
    39   18  143 1    
    40   19   20 am   BACKBONE|DICT|INTERRES
    41   19  144 1    
    42   20   21 2    
    43   20   22 1    
    44   22   23 1    
    45   22   24 1    
    46   22  145 1    
    47   23  146 1    
    48   23  147 1    
    49   23  148 1    
    50   24   25 am   BACKBONE|DICT|INTERRES
    51   24  149 1    
    52   25   26 2    
    53   25   27 1    
    54   27   28 1    
    55   27   29 1    
    56   27  150 1    
    57   28  151 1    
    58   28  152 1    
    59   28  153 1    
    60   29   30 am   BACKBONE|DICT|INTERRES
    61   29  154 1    
    62   30   31 2    
    63   30   32 1    
    64   32   33 1    
    65   32   34 1    
    66   32  155 1    
    67   33  156 1    
    68   33  157 1    
    69   33  158 1    
    70   34   35 am   BACKBONE|DICT|INTERRES
    71   34  159 1    
    72   35   36 2    
    73   35   37 1    
    74   37   38 1    
    75   37   39 1    
    76   37  160 1    
    77   38  161 1    
    78   38  162 1    
    79   38  163 1    
    80   39   40 am   BACKBONE|DICT|INTERRES
    81   39  164 1    
    82   40   41 2    
    83   40   42 1    
    84   42   43 1    
    85   42   44 1    
    86   42  165 1    
    87   43  166 1    
    88   43  167 1    
    89   43  168 1    
    90   44   45 am   BACKBONE|DICT|INTERRES
    91   44  169 1    
    92   45   46 2    
    93   45   47 1    
    94   47   48 1    
    95   47   49 1    
    96   47  170 1    
    97   48  171 1    
    98   48  172 1    
    99   48  173 1    
   100   49   50 am   BACKBONE|DICT|INTERRES
   101   49  174 1    
   102   50   51 2    
   103   50   52 1    
   104   52   53 1    
   105   52   54 1    
   106   52  175 1    
   107   53  176 1    
   108   53  177 1    
   109   53  178 1    
   110   54   55 am   BACKBONE|DICT|INTERRES
   111   54  179 1    
   112   55   56 2    
   113   55   57 1    
   114   57   58 1    
   115   57   59 1    
   116   57  180 1    
   117   58  181 1    
   118   58  182 1    
   119   58  183 1    
   120   59   60 am   BACKBONE|DICT|INTERRES
   121   59  184 1    
   122   60   61 2    
   123   60   62 1    
   124   62   63 1    
   125   62   64 1    
   126   62  185 1    
   127   63  186 1    
   128   63  187 1    
   129   63  188 1    
   130   64   65 am   BACKBONE|DICT|INTERRES
   131   64  189 1    
   132   65   66 2    
   133   67   68 2    
   134   67   69 am   BACKBONE|DICT|INTERRES
   135   69   70 1    
   136   69  190 1    
   137   70   71 1    
   138   70   72 1    
   139   70  191 1    
   140   71  192 1    
   141   71  193 1    
   142   71  194 1    
   143   72   73 2    
   144   72   74 am   BACKBONE|DICT|INTERRES
   145   74   75 1    
   146   74  195 1    
   147   75   76 1    
   148   75   77 1    
   149   75  196 1    
   150   76  197 1    
   151   76  198 1    
   152   76  199 1    
   153   77   78 2    
   154   77   79 am   BACKBONE|DICT|INTERRES
   155   79   80 1    
   156   79  200 1    
   157   80   81 1    
   158   80   82 1    
   159   80  201 1    
   160   81  202 1    
   161   81  203 1    
   162   81  204 1    
   163   82   83 2    
   164   82   84 am   BACKBONE|DICT|INTERRES
   165   84   85 1    
   166   84  205 1    
   167   85   86 1    
   168   85   87 1    
   169   85  206 1    
   170   86  207 1    
   171   86  208 1    
   172   86  209 1    
   173   87   88 2    
   174   87   89 am   BACKBONE|DICT|INTERRES
   175   89   90 1    
   176   89  210 1    
   177   90   91 1    
   178   90   92 1    
   179   90  211 1    
   180   91  212 1    
   181   91  213 1    
   182   91  214 1    
   183   92   93 2    
   184   92   94 am   BACKBONE|DICT|INTERRES
   185   94   95 1    
   186   94  215 1    
   187   95   96 1    
   188   95   97 1    
   189   95  216 1    
   190   96  217 1    
   191   96  218 1    
   192   96  219 1    
   193   97   98 2    
   194   97   99 am   BACKBONE|DICT|INTERRES
   195   99  100 1    
   196   99  220 1    
   197  100  101 1    
   198  100  102 1    
   199  100  221 1    
   200  101  222 1    
   201  101  223 1    
   202  101  224 1    
   203  102  103 2    
   204  102  104 am   BACKBONE|DICT|INTERRES
   205  104  105 1    
   206  104  225 1    
   207  105  106 1    
   208  105  107 1    
   209  105  226 1    
   210  106  227 1    
   211  106  228 1    
   212  106  229 1    
   213  107  108 2    
   214  107  109 am   BACKBONE|DICT|INTERRES
   215  109  110 1    
   216  109  230 1    
   217  110  111 1    
   218  110  112 1    
   219  110  231 1    
   220  111  232 1    
   221  111  233 1    
   222  111  234 1    
   223  112  113 2    
   224  112  114 am   BACKBONE|DICT|INTERRES
   225  114  115 1    
   226  114  235 1    
   227  115  116 1    
   228  115  117 1    
   229  115  236 1    
   230  116  237 1    
   231  116  238 1    
   232  116  239 1    
   233  117  118 2    
   234  117  119 am   BACKBONE|DICT|INTERRES
   235  119  120 1    
   236  119  240 1    
   237  120  121 1    
   238  120  124 1    
   239  120  241 1    
   240  121  122 am   BACKBONE|DICT|INTERRES
   241  121  123 2    
   242  122  242 1    
   243  122  243 1    
   244  124  125 1    
   245  124  244 1    
   246  124  245 1    
   247  125  126 1    
   248  126  246 1    
   249  126  247 1    
@<TRIPOS>SUBSTRUCTURE
     1 UNK         1 GROUP             0       ****    0 ROOT    
