@<TRIPOS>MOLECULE
3R540
247   249    1
SMALL
USER_CHARGES


@<TRIPOS>ATOM
      1 CA          4.9298  -17.0154  -49.4661 C.3       0 UNK        -0.1800 
      2 C           4.7854  -16.6208  -47.9978 C.2       0 UNK         0.5000 
      3 O           5.7530  -16.7438  -47.2501 O.2       0 UNK        -0.5000 
      4 N           3.6268  -16.1429  -47.5301 N.am      1 UNK        -0.5000 
      5 CA          2.3658  -15.9235  -48.2341 C.3       1 UNK         0.1400 
      6 C6          2.4633  -14.7494  -49.2560 C.3       23 UNK        -0.0398 
      7 S7          0.8940  -14.1028  -49.9438 S.3       23 UNK        -0.2404 
      8 C8          0.6466  -15.1540  -51.4107 C.3       23 UNK        -0.0205 
      9 C9          0.1307  -16.5333  -51.0316 C.ar      23 UNK        -0.0193 
     10 C10        -1.2177  -16.7126  -50.7104 C.ar      23 UNK        -0.1150 
     11 C11        -1.7039  -17.9761  -50.3619 C.ar      23 UNK        -0.0193 
     12 C12        -0.8203  -19.0566  -50.3025 C.ar      23 UNK        -0.1150 
     13 C13         0.5291  -18.8932  -50.6290 C.ar      23 UNK        -0.0193 
     14 C14         0.9934  -17.6319  -51.0115 C.ar      23 UNK        -0.1150 
     15 C15         1.4758  -20.0850  -50.6155 C.3       23 UNK        -0.0205 
     16 S16         2.7823  -19.9557  -49.3479 S.3       23 UNK        -0.2404 
     17 C17         1.8665  -20.0372  -47.7724 C.3       23 UNK        -0.0398 
     18 CA          1.3611  -21.4704  -47.4421 C.3       11 UNK         0.1400 
     19 N           1.6891  -21.9015  -46.0789 N.am      11 UNK        -0.5000 
     20 C           1.5847  -23.1714  -45.6524 C.2       10 UNK         0.5000 
     21 O           1.2279  -24.1029  -46.3714 O.2       10 UNK        -0.5000 
     22 CA          1.8893  -23.4583  -44.1707 C.3       10 UNK         0.1400 
     23 CB          3.3740  -23.8044  -43.9865 C.3       10 UNK        -0.1800 
     24 N           1.5402  -22.3571  -43.2772 N.am      10 UNK        -0.5000 
     25 C           0.3134  -21.8412  -43.1170 C.2       9 UNK         0.5000 
     26 O          -0.6913  -22.2660  -43.6885 O.2       9 UNK        -0.5000 
     27 CA          0.2114  -20.6108  -42.1954 C.3       9 UNK         0.1400 
     28 CB         -0.0671  -21.0689  -40.7552 C.3       9 UNK        -0.1800 
     29 N           1.4128  -19.7653  -42.2094 N.am      9 UNK        -0.5000 
     30 C           1.9588  -19.1960  -43.2941 C.2       8 UNK         0.5000 
     31 O           1.4902  -19.3190  -44.4287 O.2       8 UNK        -0.5000 
     32 CA          3.2545  -18.3887  -43.0775 C.3       8 UNK         0.1400 
     33 CB          3.5354  -17.4184  -44.2349 C.3       8 UNK        -0.1800 
     34 N           3.2419  -17.6262  -41.8287 N.am      8 UNK        -0.5000 
     35 C           3.7364  -18.0414  -40.6556 C.2       7 UNK         0.5000 
     36 O           4.1633  -19.1800  -40.4647 O.2       7 UNK        -0.5000 
     37 CA          3.7387  -17.0249  -39.5022 C.3       7 UNK         0.1400 
     38 CB          4.8749  -16.0060  -39.6854 C.3       7 UNK        -0.1800 
     39 N           2.4644  -16.3126  -39.4336 N.am      7 UNK        -0.5000 
     40 C           1.5910  -16.3877  -38.4198 C.2       6 UNK         0.5000 
     41 O           1.7950  -17.0195  -37.3823 O.2       6 UNK        -0.5000 
     42 CA          0.2508  -15.6399  -38.5930 C.3       6 UNK         0.1400 
     43 CB          0.3221  -14.2514  -37.9395 C.3       6 UNK        -0.1800 
     44 N          -0.1497  -15.4855  -39.9932 N.am      6 UNK        -0.5000 
     45 C          -0.4352  -16.4999  -40.8207 C.2       5 UNK         0.5000 
     46 O          -0.5208  -17.6688  -40.4495 O.2       5 UNK        -0.5000 
     47 CA         -0.6333  -16.1742  -42.3151 C.3       5 UNK         0.1400 
     48 CB         -2.1243  -16.2901  -42.6726 C.3       5 UNK        -0.1800 
     49 N          -0.1099  -14.8721  -42.7630 N.am      5 UNK        -0.5000 
     50 C           1.1608  -14.4483  -42.6485 C.2       4 UNK         0.5000 
     51 O           2.0387  -15.1052  -42.0846 O.2       4 UNK        -0.5000 
     52 CA          1.5006  -13.0690  -43.2478 C.3       4 UNK         0.1400 
     53 CB          3.0151  -12.8690  -43.4381 C.3       4 UNK        -0.1800 
     54 N           0.8392  -12.9132  -44.5385 N.am      4 UNK        -0.5000 
     55 C           0.0111  -11.9220  -44.8961 C.2       3 UNK         0.5000 
     56 O          -0.2438  -10.9524  -44.1813 O.2       3 UNK        -0.5000 
     57 CA         -0.6754  -12.0468  -46.2773 C.3       3 UNK         0.1400 
     58 CB          0.0756  -11.2144  -47.3274 C.3       3 UNK        -0.1800 
     59 N          -0.7676  -13.4297  -46.7533 N.am      3 UNK        -0.5000 
     60 C          -1.4202  -14.4141  -46.1200 C.2       2 UNK         0.5000 
     61 O          -2.1911  -14.2098  -45.1830 O.2       2 UNK        -0.5000 
     62 CA         -1.1114  -15.8684  -46.5418 C.3       2 UNK         0.1400 
     63 CB         -2.3438  -16.5199  -47.1761 C.3       2 UNK        -0.1800 
     64 N           0.0384  -16.0269  -47.4414 N.am      2 UNK        -0.5000 
     65 C           1.3045  -15.7057  -47.1404 C.2       1 UNK         0.5000 
     66 O           1.6384  -15.2164  -46.0585 O.2       1 UNK        -0.5000 
     67 C          -0.1505  -21.5970  -47.6949 C.2       11 UNK         0.5000 
     68 O          -0.5572  -22.2083  -48.6825 O.2       11 UNK        -0.5000 
     69 N          -0.9513  -21.0531  -46.7667 N.am      12 UNK        -0.5000 
     70 CA         -2.4122  -21.1115  -46.7985 C.3       12 UNK         0.1400 
     71 CB         -2.9868  -20.2616  -45.6552 C.3       12 UNK        -0.1800 
     72 C          -2.9446  -22.5533  -46.7369 C.2       12 UNK         0.5000 
     73 O          -3.8804  -22.8804  -47.4660 O.2       12 UNK        -0.5000 
     74 N          -2.3077  -23.3917  -45.9068 N.am      13 UNK        -0.5000 
     75 CA         -2.5890  -24.8208  -45.7880 C.3       13 UNK         0.1400 
     76 CB         -1.8217  -25.3988  -44.5896 C.3       13 UNK        -0.1800 
     77 C          -2.2672  -25.6018  -47.0758 C.2       13 UNK         0.5000 
     78 O          -3.1042  -26.3836  -47.5267 O.2       13 UNK        -0.5000 
     79 N          -1.0824  -25.3630  -47.6590 N.am      14 UNK        -0.5000 
     80 CA         -0.6226  -25.9996  -48.8973 C.3       14 UNK         0.1400 
     81 CB          0.8598  -25.6714  -49.1313 C.3       14 UNK        -0.1800 
     82 C          -1.4604  -25.6033  -50.1254 C.2       14 UNK         0.5000 
     83 O          -1.7713  -26.4599  -50.9537 O.2       14 UNK        -0.5000 
     84 N          -1.8313  -24.3194  -50.2054 N.am      15 UNK        -0.5000 
     85 CA         -2.7040  -23.7684  -51.2421 C.3       15 UNK         0.1400 
     86 CB         -2.5312  -22.2430  -51.2600 C.3       15 UNK        -0.1800 
     87 C          -4.1898  -24.1267  -51.0461 C.2       15 UNK         0.5000 
     88 O          -4.9817  -23.9179  -51.9644 O.2       15 UNK        -0.5000 
     89 N          -4.5541  -24.5982  -49.8431 N.am      16 UNK        -0.5000 
     90 CA         -5.9135  -24.8787  -49.3621 C.3       16 UNK         0.1400 
     91 CB         -6.5046  -26.0975  -50.0992 C.3       16 UNK        -0.1800 
     92 C          -6.8394  -23.6414  -49.4146 C.2       16 UNK         0.5000 
     93 O          -8.0543  -23.7830  -49.5641 O.2       16 UNK        -0.5000 
     94 N          -6.2283  -22.4498  -49.3259 N.am      17 UNK        -0.5000 
     95 CA         -6.8054  -21.1146  -49.5082 C.3       17 UNK         0.1400 
     96 CB         -7.7426  -20.7739  -48.3319 C.3       17 UNK        -0.1800 
     97 C          -7.4733  -20.8847  -50.8869 C.2       17 UNK         0.5000 
     98 O          -8.2988  -19.9777  -51.0123 O.2       17 UNK        -0.5000 
     99 N          -7.1256  -21.6947  -51.8987 N.am      18 UNK        -0.5000 
    100 CA        -7.6680  -21.5969  -53.2515 C.3       18 UNK         0.1400 
    101 CB        -7.4575  -22.9304  -53.9849 C.3       18 UNK        -0.1800 
    102 C         -6.9935  -20.4520  -54.0196 C.2       18 UNK         0.5000 
    103 O         -5.7635  -20.3986  -54.0699 O.2       18 UNK        -0.5000 
    104 N         -7.7993  -19.5853  -54.6470 N.am      19 UNK        -0.5000 
    105 CA        -7.3461  -18.4113  -55.4025 C.3       19 UNK         0.1400 
    106 CB        -8.5693  -17.6271  -55.9001 C.3       19 UNK        -0.1800 
    107 C         -6.4045  -18.7432  -56.5765 C.2       19 UNK         0.5000 
    108 O         -5.5038  -17.9586  -56.8729 O.2       19 UNK        -0.5000 
    109 N         -6.5986  -19.9184  -57.1902 N.am      20 UNK        -0.5000 
    110 CA        -5.7519  -20.4540  -58.2574 C.3       20 UNK         0.1400 
    111 CB        -6.4397  -21.6858  -58.8659 C.3       20 UNK        -0.1800 
    112 C         -4.3238  -20.8092  -57.7942 C.2       20 UNK         0.5000 
    113 O         -3.4050  -20.7851  -58.6142 O.2       20 UNK        -0.5000 
    114 N         -4.1622  -21.1293  -56.5034 N.am      21 UNK        -0.5000 
    115 CA        -2.8761  -21.4244  -55.8763 C.3       21 UNK         0.1400 
    116 CB        -3.0571  -22.5744  -54.8740 C.3       21 UNK        -0.1800 
    117 C         -2.2916  -20.1757  -55.1940 C.2       21 UNK         0.5000 
    118 O         -1.0927  -19.9250  -55.3225 O.2       21 UNK        -0.5000 
    119 N         -3.1430  -19.4143  -54.4947 N.am      22 UNK        -0.5000 
    120 CA        -2.7784  -18.1717  -53.7957 C.3       22 UNK         0.1400 
    121 C         -2.4327  -16.9803  -54.7339 C.2       22 UNK         0.5000 
    122 N         -2.9855  -16.8957  -55.9375 N.am      22 UNK        -0.7600 
    123 O         -1.6450  -16.1146  -54.3638 O.2       22 UNK        -0.5000 
    124 C124       -3.8636  -17.7533  -52.7718 C.3       23 UNK        -0.0398 
    125 S125       -4.0679  -18.9768  -51.4331 S.3       23 UNK        -0.2404 
    126 C126       -3.1834  -18.1768  -50.0599 C.3       23 UNK        -0.0205 
    127 H127        5.5806  -17.8854  -49.5547 H         1 UNK         0.0600 
    128 H128        5.3812  -16.1992  -50.0297 H         1 UNK         0.0600 
    129 H129        3.9832  -17.2744  -49.9339 H         1 UNK         0.0600 
    130 H130        3.5574  -15.8931  -46.5503 H         1 UNK         0.3000 
    131 H131        2.1026  -16.8472  -48.7454 H         1 UNK         0.0600 
    132 H132        3.1090  -15.0248  -50.0889 H         1 UNK         0.0800 
    133 H133        2.9584  -13.9021  -48.7782 H         1 UNK         0.0800 
    134 H134       -0.0768  -14.6727  -52.0709 H         1 UNK         0.0800 
    135 H135        1.5739  -15.2254  -51.9812 H         1 UNK         0.0800 
    136 H136       -1.8899  -15.8666  -50.7462 H         1 UNK         0.1150 
    137 H137       -1.1950  -20.0308  -50.0286 H         1 UNK         0.1150 
    138 H138        2.0321  -17.5058  -51.2814 H         1 UNK         0.1150 
    139 H139        0.9299  -21.0196  -50.4874 H         1 UNK         0.0800 
    140 H140        1.9538  -20.1559  -51.5935 H         1 UNK         0.0800 
    141 H141        1.0701  -19.2900  -47.7758 H         1 UNK         0.0800 
    142 H142        2.5623  -19.6976  -47.0039 H         1 UNK         0.0800 
    143 H143        1.8537  -22.1788  -48.1123 H         1 UNK         0.0600 
    144 H144        1.9154  -21.1731  -45.4127 H         1 UNK         0.3000 
    145 H145        1.2971  -24.3254  -43.8726 H         1 UNK         0.0600 
    146 H146        3.5874  -24.0944  -42.9575 H         1 UNK         0.0600 
    147 H147        3.6617  -24.6412  -44.6245 H         1 UNK         0.0600 
    148 H148        4.0186  -22.9616  -44.2396 H         1 UNK         0.0600 
    149 H149        2.2989  -21.9382  -42.7602 H         1 UNK         0.3000 
    150 H150       -0.6278  -20.0027  -42.5390 H         1 UNK         0.0600 
    151 H151       -0.9766  -21.6693  -40.7062 H         1 UNK         0.0600 
    152 H152       -0.2043  -20.2227  -40.0834 H         1 UNK         0.0600 
    153 H153        0.7488  -21.6763  -40.3613 H         1 UNK         0.0600 
    154 H154        1.8643  -19.6107  -41.3190 H         1 UNK         0.3000 
    155 H155        4.0720  -19.1121  -43.0538 H         1 UNK         0.0600 
    156 H156        4.4788  -16.8917  -44.0907 H         1 UNK         0.0600 
    157 H157        3.6006  -17.9433  -45.1886 H         1 UNK         0.0600 
    158 H158        2.7461  -16.6733  -44.3153 H         1 UNK         0.0600 
    159 H159        2.8741  -16.6798  -41.9012 H         1 UNK         0.3000 
    160 H160        3.9247  -17.5769  -38.5787 H         1 UNK         0.0600 
    161 H161        4.7429  -15.4107  -40.5901 H         1 UNK         0.0600 
    162 H162        5.8416  -16.5062  -39.7573 H         1 UNK         0.0600 
    163 H163        4.9256  -15.3202  -38.8396 H         1 UNK         0.0600 
    164 H164        2.2032  -15.7817  -40.2583 H         1 UNK         0.3000 
    165 H165       -0.5202  -16.2215  -38.0835 H         1 UNK         0.0600 
    166 H166       -0.6399  -13.7412  -37.9897 H         1 UNK         0.0600 
    167 H167        0.5926  -14.3294  -36.8856 H         1 UNK         0.0600 
    168 H168        1.0660  -13.6170  -38.4232 H         1 UNK         0.0600 
    169 H169       -0.1133  -14.5532  -40.3768 H         1 UNK         0.3000 
    170 H170       -0.0944  -16.9436  -42.8712 H         1 UNK         0.0600 
    171 H171       -2.5667  -17.1928  -42.2485 H         1 UNK         0.0600 
    172 H172       -2.6952  -15.4394  -42.2989 H         1 UNK         0.0600 
    173 H173       -2.2747  -16.3528  -43.7479 H         1 UNK         0.0600 
    174 H174       -0.7684  -14.2756  -43.2465 H         1 UNK         0.3000 
    175 H175        1.1401  -12.3217  -42.5386 H         1 UNK         0.0600 
    176 H176        3.5443  -12.9340  -42.4866 H         1 UNK         0.0600 
    177 H177        3.4367  -13.6239  -44.1035 H         1 UNK         0.0600 
    178 H178        3.2320  -11.8890  -43.8631 H         1 UNK         0.0600 
    179 H179        0.9972  -13.6807  -45.1880 H         1 UNK         0.3000 
    180 H180       -1.6894  -11.6534  -46.1811 H         1 UNK         0.0600 
    181 H181        1.0927  -11.5795  -47.4767 H         1 UNK         0.0600 
    182 H182        0.1423  -10.1689  -47.0235 H         1 UNK         0.0600 
    183 H183       -0.4344  -11.2405  -48.2906 H         1 UNK         0.0600 
    184 H184       -0.1724  -13.6785  -47.5302 H         1 UNK         0.3000 
    185 H185       -0.8724  -16.4177  -45.6295 H         1 UNK         0.0600 
    186 H186       -3.1939  -16.5026  -46.4928 H         1 UNK         0.0600 
    187 H187       -2.6419  -15.9974  -48.0848 H         1 UNK         0.0600 
    188 H188       -2.1486  -17.5626  -47.4232 H         1 UNK         0.0600 
    189 H189       -0.1672  -16.3826  -48.3651 H         1 UNK         0.3000 
    190 H190       -0.5313  -20.6136  -45.9598 H         1 UNK         0.3000 
    191 H191       -2.7402  -20.6794  -47.7457 H         1 UNK         0.0600 
    192 H192       -2.6976  -20.6502  -44.6782 H         1 UNK         0.0600 
    193 H193       -4.0768  -20.2463  -45.6926 H         1 UNK         0.0600 
    194 H194       -2.6450  -19.2288  -45.7164 H         1 UNK         0.0600 
    195 H195       -1.5834  -23.0167  -45.3020 H         1 UNK         0.3000 
    196 H196       -3.6572  -24.9319  -45.5898 H         1 UNK         0.0600 
    197 H197       -2.0550  -26.4551  -44.4500 H         1 UNK         0.0600 
    198 H198       -2.0840  -24.8819  -43.6663 H         1 UNK         0.0600 
    199 H199       -0.7435  -25.3163  -44.7241 H         1 UNK         0.0600 
    200 H200       -0.4276  -24.7268  -47.2134 H         1 UNK         0.3000 
    201 H201       -0.7135  -27.0803  -48.7706 H         1 UNK         0.0600 
    202 H202        1.4790  -26.0476  -48.3170 H         1 UNK         0.0600 
    203 H203        1.0259  -24.5962  -49.2097 H         1 UNK         0.0600 
    204 H204        1.2226  -26.1292  -50.0524 H         1 UNK         0.0600 
    205 H205       -1.4801  -23.6621  -49.5126 H         1 UNK         0.3000 
    206 H206       -2.3944  -24.1639  -52.2113 H         1 UNK         0.0600 
    207 H207       -1.5017  -21.9651  -51.4857 H         1 UNK         0.0600 
    208 H208       -3.1642  -21.7787  -52.0154 H         1 UNK         0.0600 
    209 H209       -2.7995  -21.8005  -50.3000 H         1 UNK         0.0600 
    210 H210       -3.8278  -24.6990  -49.1464 H         1 UNK         0.3000 
    211 H211       -5.8141  -25.1407  -48.3078 H         1 UNK         0.0600 
    212 H212       -5.8313  -26.9531  -50.0460 H         1 UNK         0.0600 
    213 H213       -7.4521  -26.4034  -49.6542 H         1 UNK         0.0600 
    214 H214       -6.6917  -25.8819  -51.1516 H         1 UNK         0.0600 
    215 H215       -5.2358  -22.4727  -49.1235 H         1 UNK         0.3000 
    216 H216       -5.9649  -20.4209  -49.4669 H         1 UNK         0.0600 
    217 H217       -8.6414  -21.3911  -48.3406 H         1 UNK         0.0600 
    218 H218       -8.0605  -19.7315  -48.3708 H         1 UNK         0.0600 
    219 H219       -7.2425  -20.9222  -47.3747 H         1 UNK         0.0600 
    220 H220       -6.4096  -22.3980  -51.7529 H         1 UNK         0.3000 
    221 H221       -8.7421  -21.4102  -53.1876 H         1 UNK         0.0600 
    222 H222       -7.9018  -23.7589  -53.4329 H         1 UNK         0.0600 
    223 H223       -6.3988  -23.1526  -54.1246 H         1 UNK         0.0600 
    224 H224       -7.9197  -22.9099  -54.9724 H         1 UNK         0.0600 
    225 H225       -8.7989  -19.7033  -54.5650 H         1 UNK         0.3000 
    226 H226       -6.7915  -17.7723  -54.7130 H         1 UNK         0.0600 
    227 H227       -9.1932  -17.2990  -55.0685 H         1 UNK         0.0600 
    228 H228       -8.2647  -16.7339  -56.4474 H         1 UNK         0.0600 
    229 H229       -9.1876  -18.2272  -56.5689 H         1 UNK         0.0600 
    230 H230       -7.3618  -20.5006  -56.8787 H         1 UNK         0.3000 
    231 H231       -5.6650  -19.6913  -59.0341 H         1 UNK         0.0600 
    232 H232       -6.5738  -22.4773  -58.1274 H         1 UNK         0.0600 
    233 H233       -5.8496  -22.0980  -59.6855 H         1 UNK         0.0600 
    234 H234       -7.4202  -21.4319  -59.2693 H         1 UNK         0.0600 
    235 H235       -4.9573  -21.0657  -55.8796 H         1 UNK         0.3000 
    236 H236       -2.1581  -21.7556  -56.6295 H         1 UNK         0.0600 
    237 H237       -3.3375  -23.4964  -55.3830 H         1 UNK         0.0600 
    238 H238       -2.1320  -22.7702  -54.3306 H         1 UNK         0.0600 
    239 H239       -3.8345  -22.3537  -54.1427 H         1 UNK         0.0600 
    240 H240       -4.1055  -19.7238  -54.3814 H         1 UNK         0.3000 
    241 H241       -1.8647  -18.3813  -53.2358 H         1 UNK         0.0600 
    242 H242       -2.7440  -16.1193  -56.5317 H         1 UNK         0.3800 
    243 H243       -3.7136  -17.5371  -56.2351 H         1 UNK         0.3800 
    244 H244       -4.8253  -17.6334  -53.2717 H         1 UNK         0.0800 
    245 H245       -3.6347  -16.7820  -52.3308 H         1 UNK         0.0800 
    246 H246       -3.6683  -17.2260  -49.8362 H         1 UNK         0.0800 
    247 H247       -3.2941  -18.7951  -49.1692 H         1 UNK         0.0800 
@<TRIPOS>BOND
     1    1    2 1    
     2    1  127 1    
     3    1  128 1    
     4    1  129 1    
     5    2    3 2    
     6    2    4 am   BACKBONE|DICT|INTERRES
     7    4    5 1    
     8    4  130 1    
     9    5    6 1    
    10    5   65 1    
    11    5  131 1    
    12    6    7 1    
    13    6  132 1    
    14    6  133 1    
    15    7    8 1    
    16    8    9 1    
    17    8  134 1    
    18    8  135 1    
    19    9   10 ar   
    20    9   14 ar   
    21   10   11 ar   
    22   10  136 1    
    23   11   12 ar   
    24   11  126 1    
    25   12   13 ar   
    26   12  137 1    
    27   13   14 ar   
    28   13   15 1    
    29   14  138 1    
    30   15   16 1    
    31   15  139 1    
    32   15  140 1    
    33   16   17 1    
    34   17   18 1    
    35   17  141 1    
    36   17  142 1    
    37   18   19 1    
    38   18   67 1    
    39   18  143 1    
    40   19   20 am   BACKBONE|DICT|INTERRES
    41   19  144 1    
    42   20   21 2    
    43   20   22 1    
    44   22   23 1    
    45   22   24 1    
    46   22  145 1    
    47   23  146 1    
    48   23  147 1    
    49   23  148 1    
    50   24   25 am   BACKBONE|DICT|INTERRES
    51   24  149 1    
    52   25   26 2    
    53   25   27 1    
    54   27   28 1    
    55   27   29 1    
    56   27  150 1    
    57   28  151 1    
    58   28  152 1    
    59   28  153 1    
    60   29   30 am   BACKBONE|DICT|INTERRES
    61   29  154 1    
    62   30   31 2    
    63   30   32 1    
    64   32   33 1    
    65   32   34 1    
    66   32  155 1    
    67   33  156 1    
    68   33  157 1    
    69   33  158 1    
    70   34   35 am   BACKBONE|DICT|INTERRES
    71   34  159 1    
    72   35   36 2    
    73   35   37 1    
    74   37   38 1    
    75   37   39 1    
    76   37  160 1    
    77   38  161 1    
    78   38  162 1    
    79   38  163 1    
    80   39   40 am   BACKBONE|DICT|INTERRES
    81   39  164 1    
    82   40   41 2    
    83   40   42 1    
    84   42   43 1    
    85   42   44 1    
    86   42  165 1    
    87   43  166 1    
    88   43  167 1    
    89   43  168 1    
    90   44   45 am   BACKBONE|DICT|INTERRES
    91   44  169 1    
    92   45   46 2    
    93   45   47 1    
    94   47   48 1    
    95   47   49 1    
    96   47  170 1    
    97   48  171 1    
    98   48  172 1    
    99   48  173 1    
   100   49   50 am   BACKBONE|DICT|INTERRES
   101   49  174 1    
   102   50   51 2    
   103   50   52 1    
   104   52   53 1    
   105   52   54 1    
   106   52  175 1    
   107   53  176 1    
   108   53  177 1    
   109   53  178 1    
   110   54   55 am   BACKBONE|DICT|INTERRES
   111   54  179 1    
   112   55   56 2    
   113   55   57 1    
   114   57   58 1    
   115   57   59 1    
   116   57  180 1    
   117   58  181 1    
   118   58  182 1    
   119   58  183 1    
   120   59   60 am   BACKBONE|DICT|INTERRES
   121   59  184 1    
   122   60   61 2    
   123   60   62 1    
   124   62   63 1    
   125   62   64 1    
   126   62  185 1    
   127   63  186 1    
   128   63  187 1    
   129   63  188 1    
   130   64   65 am   BACKBONE|DICT|INTERRES
   131   64  189 1    
   132   65   66 2    
   133   67   68 2    
   134   67   69 am   BACKBONE|DICT|INTERRES
   135   69   70 1    
   136   69  190 1    
   137   70   71 1    
   138   70   72 1    
   139   70  191 1    
   140   71  192 1    
   141   71  193 1    
   142   71  194 1    
   143   72   73 2    
   144   72   74 am   BACKBONE|DICT|INTERRES
   145   74   75 1    
   146   74  195 1    
   147   75   76 1    
   148   75   77 1    
   149   75  196 1    
   150   76  197 1    
   151   76  198 1    
   152   76  199 1    
   153   77   78 2    
   154   77   79 am   BACKBONE|DICT|INTERRES
   155   79   80 1    
   156   79  200 1    
   157   80   81 1    
   158   80   82 1    
   159   80  201 1    
   160   81  202 1    
   161   81  203 1    
   162   81  204 1    
   163   82   83 2    
   164   82   84 am   BACKBONE|DICT|INTERRES
   165   84   85 1    
   166   84  205 1    
   167   85   86 1    
   168   85   87 1    
   169   85  206 1    
   170   86  207 1    
   171   86  208 1    
   172   86  209 1    
   173   87   88 2    
   174   87   89 am   BACKBONE|DICT|INTERRES
   175   89   90 1    
   176   89  210 1    
   177   90   91 1    
   178   90   92 1    
   179   90  211 1    
   180   91  212 1    
   181   91  213 1    
   182   91  214 1    
   183   92   93 2    
   184   92   94 am   BACKBONE|DICT|INTERRES
   185   94   95 1    
   186   94  215 1    
   187   95   96 1    
   188   95   97 1    
   189   95  216 1    
   190   96  217 1    
   191   96  218 1    
   192   96  219 1    
   193   97   98 2    
   194   97   99 am   BACKBONE|DICT|INTERRES
   195   99  100 1    
   196   99  220 1    
   197  100  101 1    
   198  100  102 1    
   199  100  221 1    
   200  101  222 1    
   201  101  223 1    
   202  101  224 1    
   203  102  103 2    
   204  102  104 am   BACKBONE|DICT|INTERRES
   205  104  105 1    
   206  104  225 1    
   207  105  106 1    
   208  105  107 1    
   209  105  226 1    
   210  106  227 1    
   211  106  228 1    
   212  106  229 1    
   213  107  108 2    
   214  107  109 am   BACKBONE|DICT|INTERRES
   215  109  110 1    
   216  109  230 1    
   217  110  111 1    
   218  110  112 1    
   219  110  231 1    
   220  111  232 1    
   221  111  233 1    
   222  111  234 1    
   223  112  113 2    
   224  112  114 am   BACKBONE|DICT|INTERRES
   225  114  115 1    
   226  114  235 1    
   227  115  116 1    
   228  115  117 1    
   229  115  236 1    
   230  116  237 1    
   231  116  238 1    
   232  116  239 1    
   233  117  118 2    
   234  117  119 am   BACKBONE|DICT|INTERRES
   235  119  120 1    
   236  119  240 1    
   237  120  121 1    
   238  120  124 1    
   239  120  241 1    
   240  121  122 am   BACKBONE|DICT|INTERRES
   241  121  123 2    
   242  122  242 1    
   243  122  243 1    
   244  124  125 1    
   245  124  244 1    
   246  124  245 1    
   247  125  126 1    
   248  126  246 1    
   249  126  247 1    
@<TRIPOS>SUBSTRUCTURE
     1 UNK         1 GROUP             0       ****    0 ROOT    
