@<TRIPOS>MOLECULE
3R540
247   249    1
SMALL
USER_CHARGES


@<TRIPOS>ATOM
      1 CA         -4.7900  -12.7091  -48.7169 C.3       0 UNK        -0.1800 
      2 C          -3.3533  -13.1273  -48.4388 C.2       0 UNK         0.5000 
      3 O          -2.5598  -12.3156  -47.9626 O.2       0 UNK        -0.5000 
      4 N          -3.0178  -14.3909  -48.7304 N.am      1 UNK        -0.5000 
      5 CA         -1.6793  -14.9699  -48.5463 C.3       1 UNK         0.1400 
      6 C6         -1.5093  -16.2961  -49.3248 C.3       23 UNK        -0.0398 
      7 S7         -1.5970  -16.0296  -51.1253 S.3       23 UNK        -0.2404 
      8 C8          0.1687  -15.8800  -51.5332 C.3       23 UNK        -0.0205 
      9 C9          0.8467  -17.2357  -51.6675 C.ar      23 UNK        -0.0193 
     10 C10         0.6645  -17.9816  -52.8343 C.ar      23 UNK        -0.1150 
     11 C11         1.3362  -19.1912  -53.0169 C.ar      23 UNK        -0.0193 
     12 C12         2.1942  -19.6585  -52.0185 C.ar      23 UNK        -0.1150 
     13 C13         2.3876  -18.9249  -50.8431 C.ar      23 UNK        -0.0193 
     14 C14         1.7014  -17.7171  -50.6682 C.ar      23 UNK        -0.1150 
     15 C15         3.4112  -19.3950  -49.8161 C.3       23 UNK        -0.0205 
     16 S16         3.0259  -21.0378  -49.1266 S.3       23 UNK        -0.2404 
     17 C17         2.4306  -20.6176  -47.4553 C.3       23 UNK        -0.0398 
     18 CA          1.4067  -21.6459  -46.9155 C.3       11 UNK         0.1400 
     19 N           1.3325  -21.6326  -45.4513 N.am      11 UNK        -0.5000 
     20 C           0.6365  -22.5056  -44.7075 C.2       10 UNK         0.5000 
     21 O           0.0192  -23.4629  -45.1728 O.2       10 UNK        -0.5000 
     22 CA          0.5676  -22.2308  -43.1937 C.3       10 UNK         0.1400 
     23 CB          1.8507  -22.6931  -42.4888 C.3       10 UNK        -0.1800 
     24 N           0.3106  -20.8210  -42.8944 N.am      10 UNK        -0.5000 
     25 C          -0.8076  -20.1719  -43.2484 C.2       9 UNK         0.5000 
     26 O          -1.7599  -20.7109  -43.8100 O.2       9 UNK        -0.5000 
     27 CA         -0.8620  -18.6598  -42.9759 C.3       9 UNK         0.1400 
     28 CB         -1.3519  -18.3795  -41.5490 C.3       9 UNK        -0.1800 
     29 N           0.4167  -17.9859  -43.2099 N.am      9 UNK        -0.5000 
     30 C           1.0273  -17.9112  -44.4018 C.2       8 UNK         0.5000 
     31 O           0.5498  -18.3633  -45.4429 O.2       8 UNK        -0.5000 
     32 CA          2.4348  -17.2860  -44.4165 C.3       8 UNK         0.1400 
     33 CB          2.3875  -15.7659  -44.2037 C.3       8 UNK        -0.1800 
     34 N           3.3148  -17.8864  -43.4132 N.am      8 UNK        -0.5000 
     35 C           3.7186  -19.1642  -43.4278 C.2       7 UNK         0.5000 
     36 O           3.4090  -19.9673  -44.3063 O.2       7 UNK        -0.5000 
     37 CA          4.5879  -19.6385  -42.2481 C.3       7 UNK         0.1400 
     38 CB          6.0739  -19.3855  -42.5424 C.3       7 UNK        -0.1800 
     39 N           4.2411  -19.0311  -40.9603 N.am      7 UNK        -0.5000 
     40 C           3.0423  -19.0983  -40.3649 C.2       6 UNK         0.5000 
     41 O           2.0588  -19.6366  -40.8775 O.2       6 UNK        -0.5000 
     42 CA          2.9007  -18.4451  -38.9800 C.3       6 UNK         0.1400 
     43 CB          4.1230  -17.6159  -38.5295 C.3       6 UNK        -0.1800 
     44 N           1.7157  -17.6011  -39.0069 N.am      6 UNK        -0.5000 
     45 C           0.9257  -17.2992  -37.9756 C.2       5 UNK         0.5000 
     46 O           1.1162  -17.7049  -36.8274 O.2       5 UNK        -0.5000 
     47 CA         -0.2593  -16.3605  -38.2944 C.3       5 UNK         0.1400 
     48 CB         -1.1071  -16.0297  -37.0529 C.3       5 UNK        -0.1800 
     49 N           0.1785  -15.1049  -38.9125 N.am      5 UNK        -0.5000 
     50 C           0.5739  -14.9482  -40.1814 C.2       4 UNK         0.5000 
     51 O           0.6341  -15.8675  -41.0050 O.2       4 UNK        -0.5000 
     52 CA          1.0228  -13.5420  -40.5886 C.3       4 UNK         0.1400 
     53 CB          2.5419  -13.3819  -40.4089 C.3       4 UNK        -0.1800 
     54 N           0.6653  -13.3438  -41.9855 N.am      4 UNK        -0.5000 
     55 C           0.3990  -12.1708  -42.5681 C.2       3 UNK         0.5000 
     56 O           0.4801  -11.0865  -41.9892 O.2       3 UNK        -0.5000 
     57 CA         -0.0337  -12.2080  -44.0475 C.3       3 UNK         0.1400 
     58 CB          1.1516  -11.8598  -44.9609 C.3       3 UNK        -0.1800 
     59 N          -0.5885  -13.4942  -44.4752 N.am      3 UNK        -0.5000 
     60 C          -1.7544  -14.0167  -44.0767 C.2       2 UNK         0.5000 
     61 O          -2.5038  -13.4712  -43.2654 O.2       2 UNK        -0.5000 
     62 CA         -2.1438  -15.3633  -44.7226 C.3       2 UNK         0.1400 
     63 CB         -3.4307  -15.9623  -44.1281 C.3       2 UNK        -0.1800 
     64 N          -2.3032  -15.2436  -46.1725 N.am      2 UNK        -0.5000 
     65 C          -1.3037  -15.1623  -47.0627 C.2       1 UNK         0.5000 
     66 O          -0.1146  -15.2141  -46.7485 O.2       1 UNK        -0.5000 
     67 C           0.0194  -21.4454  -47.5553 C.2       11 UNK         0.5000 
     68 O          -0.3563  -22.2084  -48.4456 O.2       11 UNK        -0.5000 
     69 N          -0.7320  -20.4551  -47.0514 N.am      12 UNK        -0.5000 
     70 CA         -2.0950  -20.1526  -47.4809 C.3       12 UNK         0.1400 
     71 CB         -2.5957  -18.8901  -46.7643 C.3       12 UNK        -0.1800 
     72 C          -3.0607  -21.3314  -47.2636 C.2       12 UNK         0.5000 
     73 O          -3.8023  -21.6761  -48.1806 O.2       12 UNK        -0.5000 
     74 N          -2.9990  -21.9500  -46.0755 N.am      13 UNK        -0.5000 
     75 CA         -3.7839  -23.1267  -45.7036 C.3       13 UNK         0.1400 
     76 CB         -3.6041  -23.4136  -44.2053 C.3       13 UNK        -0.1800 
     77 C          -3.4370  -24.3695  -46.5418 C.2       13 UNK         0.5000 
     78 O          -4.3476  -25.0666  -46.9910 O.2       13 UNK        -0.5000 
     79 N          -2.1374  -24.6099  -46.7713 N.am      14 UNK        -0.5000 
     80 CA         -1.6293  -25.7003  -47.6099 C.3       14 UNK         0.1400 
     81 CB         -0.0991  -25.7690  -47.4947 C.3       14 UNK        -0.1800 
     82 C          -2.0572  -25.5752  -49.0846 C.2       14 UNK         0.5000 
     83 O          -2.3266  -26.5887  -49.7297 O.2       14 UNK        -0.5000 
     84 N          -2.1523  -24.3329  -49.5730 N.am      15 UNK        -0.5000 
     85 CA         -2.6392  -23.9794  -50.9051 C.3       15 UNK         0.1400 
     86 CB         -1.9045  -22.7129  -51.3668 C.3       15 UNK        -0.1800 
     87 C          -4.1742  -23.8063  -50.9709 C.2       15 UNK         0.5000 
     88 O          -4.6770  -23.3353  -51.9925 O.2       15 UNK        -0.5000 
     89 N          -4.8944  -24.1840  -49.9028 N.am      16 UNK        -0.5000 
     90 CA         -6.3484  -24.1351  -49.7270 C.3       16 UNK         0.1400 
     91 CB         -7.0552  -25.1115  -50.6931 C.3       16 UNK        -0.1800 
     92 C          -6.9007  -22.6976  -49.7931 C.2       16 UNK         0.5000 
     93 O          -6.9480  -22.0198  -48.7663 O.2       16 UNK        -0.5000 
     94 N          -7.3189  -22.2624  -50.9885 N.am      17 UNK        -0.5000 
     95 CA         -7.7608  -20.8940  -51.2648 C.3       17 UNK         0.1400 
     96 CB         -8.7132  -20.9132  -52.4701 C.3       17 UNK        -0.1800 
     97 C          -6.5833  -19.9285  -51.5121 C.2       17 UNK         0.5000 
     98 O          -6.7712  -18.7161  -51.4000 O.2       17 UNK        -0.5000 
     99 N          -5.4037  -20.4826  -51.8312 N.am      18 UNK        -0.5000 
    100 CA        -4.1462  -19.8018  -52.1471 C.3       18 UNK         0.1400 
    101 CB        -3.6379  -19.0132  -50.9241 C.3       18 UNK        -0.1800 
    102 C         -4.2057  -18.9581  -53.4377 C.2       18 UNK         0.5000 
    103 O         -5.1482  -19.0884  -54.2242 O.2       18 UNK        -0.5000 
    104 N         -3.1611  -18.1463  -53.6594 N.am      19 UNK        -0.5000 
    105 CA        -2.9381  -17.2955  -54.8322 C.3       19 UNK         0.1400 
    106 CB        -3.9227  -16.1051  -54.8276 C.3       19 UNK        -0.1800 
    107 C         -2.9474  -18.1194  -56.1372 C.2       19 UNK         0.5000 
    108 O         -2.0023  -18.8695  -56.3824 O.2       19 UNK        -0.5000 
    109 N         -4.0214  -18.0018  -56.9294 N.am      20 UNK        -0.5000 
    110 CA        -4.2463  -18.7560  -58.1640 C.3       20 UNK         0.1400 
    111 CB        -5.4840  -18.1897  -58.8759 C.3       20 UNK        -0.1800 
    112 C         -4.3970  -20.2760  -57.9496 C.2       20 UNK         0.5000 
    113 O         -4.0892  -21.0442  -58.8629 O.2       20 UNK        -0.5000 
    114 N         -4.8284  -20.6954  -56.7490 N.am      21 UNK        -0.5000 
    115 CA        -4.9926  -22.1034  -56.3695 C.3       21 UNK         0.1400 
    116 CB        -5.7680  -22.1915  -55.0495 C.3       21 UNK        -0.1800 
    117 C         -3.6665  -22.8856  -56.2751 C.2       21 UNK         0.5000 
    118 O         -3.6971  -24.1170  -56.2753 O.2       21 UNK        -0.5000 
    119 N         -2.5317  -22.1734  -56.2348 N.am      22 UNK        -0.5000 
    120 CA        -1.1858  -22.7455  -56.3870 C.3       22 UNK         0.1400 
    121 C         -0.8927  -23.3128  -57.8105 C.2       22 UNK         0.5000 
    122 N         -1.6659  -22.9826  -58.8405 N.am      22 UNK        -0.7600 
    123 O          0.0577  -24.0711  -57.9824 O.2       22 UNK        -0.5000 
    124 C124       -0.0808  -21.7357  -55.9928 C.3       23 UNK        -0.0398 
    125 S125       -0.2214  -21.1009  -54.2896 S.3       23 UNK        -0.2404 
    126 C126        1.1860  -19.9531  -54.3219 C.3       23 UNK        -0.0205 
    127 H127       -4.8087  -11.8789  -49.4230 H         1 UNK         0.0600 
    128 H128       -5.3764  -13.5263  -49.1377 H         1 UNK         0.0600 
    129 H129       -5.2715  -12.3846  -47.7945 H         1 UNK         0.0600 
    130 H130       -3.7065  -15.0022  -49.1456 H         1 UNK         0.3000 
    131 H131       -0.9563  -14.2554  -48.9465 H         1 UNK         0.0600 
    132 H132       -2.2892  -17.0056  -49.0467 H         1 UNK         0.0800 
    133 H133       -0.5618  -16.7807  -49.0824 H         1 UNK         0.0800 
    134 H134        0.2615  -15.3405  -52.4770 H         1 UNK         0.0800 
    135 H135        0.6721  -15.2647  -50.7859 H         1 UNK         0.0800 
    136 H136        0.0209  -17.6059  -53.6161 H         1 UNK         0.1150 
    137 H137        2.7352  -20.5828  -52.1666 H         1 UNK         0.1150 
    138 H138        1.8634  -17.1319  -49.7738 H         1 UNK         0.1150 
    139 H139        4.3838  -19.4517  -50.3068 H         1 UNK         0.0800 
    140 H140        3.5268  -18.6652  -49.0134 H         1 UNK         0.0800 
    141 H141        2.0228  -19.6052  -47.4361 H         1 UNK         0.0800 
    142 H142        3.3128  -20.5988  -46.8156 H         1 UNK         0.0800 
    143 H143        1.7509  -22.6454  -47.1907 H         1 UNK         0.0600 
    144 H144        1.8502  -20.8951  -44.9818 H         1 UNK         0.3000 
    145 H145       -0.2651  -22.8099  -42.7889 H         1 UNK         0.0600 
    146 H146        1.8002  -22.5113  -41.4151 H         1 UNK         0.0600 
    147 H147        2.0076  -23.7628  -42.6321 H         1 UNK         0.0600 
    148 H148        2.7302  -22.1806  -42.8755 H         1 UNK         0.0600 
    149 H149        1.0258  -20.3184  -42.3763 H         1 UNK         0.3000 
    150 H150       -1.5926  -18.2410  -43.6685 H         1 UNK         0.0600 
    151 H151       -2.2799  -18.9136  -41.3407 H         1 UNK         0.0600 
    152 H152       -1.5548  -17.3184  -41.4066 H         1 UNK         0.0600 
    153 H153       -0.6186  -18.6899  -40.8040 H         1 UNK         0.0600 
    154 H154        0.8617  -17.5726  -42.4011 H         1 UNK         0.3000 
    155 H155        2.8668  -17.4746  -45.4017 H         1 UNK         0.0600 
    156 H156        1.7321  -15.2880  -44.9296 H         1 UNK         0.0600 
    157 H157        3.3759  -15.3224  -44.3239 H         1 UNK         0.0600 
    158 H158        2.0283  -15.5077  -43.2094 H         1 UNK         0.0600 
    159 H159        3.6088  -17.2982  -42.6481 H         1 UNK         0.3000 
    160 H160        4.4438  -20.7155  -42.1478 H         1 UNK         0.0600 
    161 H161        6.3692  -19.8458  -43.4864 H         1 UNK         0.0600 
    162 H162        6.7086  -19.8097  -41.7642 H         1 UNK         0.0600 
    163 H163        6.2949  -18.3198  -42.6134 H         1 UNK         0.0600 
    164 H164        4.9892  -18.5595  -40.4732 H         1 UNK         0.3000 
    165 H165        2.7462  -19.2581  -38.2679 H         1 UNK         0.0600 
    166 H166        3.9593  -17.1858  -37.5412 H         1 UNK         0.0600 
    167 H167        5.0198  -18.2325  -38.4588 H         1 UNK         0.0600 
    168 H168        4.3286  -16.7922  -39.2145 H         1 UNK         0.0600 
    169 H169        1.4593  -17.2249  -39.9147 H         1 UNK         0.3000 
    170 H170       -0.9042  -16.8879  -38.9994 H         1 UNK         0.0600 
    171 H171       -1.4926  -16.9381  -36.5881 H         1 UNK         0.0600 
    172 H172       -0.5275  -15.4944  -36.2998 H         1 UNK         0.0600 
    173 H173       -1.9668  -15.4132  -37.3158 H         1 UNK         0.0600 
    174 H174        0.2061  -14.3040  -38.2979 H         1 UNK         0.3000 
    175 H175        0.4983  -12.8115  -39.9688 H         1 UNK         0.0600 
    176 H176        2.8332  -13.5460  -39.3707 H         1 UNK         0.0600 
    177 H177        3.0957  -14.0936  -41.0228 H         1 UNK         0.0600 
    178 H178        2.8687  -12.3789  -40.6833 H         1 UNK         0.0600 
    179 H179        0.5291  -14.1983  -42.5078 H         1 UNK         0.3000 
    180 H180       -0.8058  -11.4476  -44.1820 H         1 UNK         0.0600 
    181 H181        1.9511  -12.5974  -44.8804 H         1 UNK         0.0600 
    182 H182        1.5736  -10.8879  -44.7019 H         1 UNK         0.0600 
    183 H183        0.8432  -11.8112  -46.0056 H         1 UNK         0.0600 
    184 H184       -0.0790  -13.9947  -45.1968 H         1 UNK         0.3000 
    185 H185       -1.3291  -16.0590  -44.5208 H         1 UNK         0.0600 
    186 H186       -3.6509  -16.9370  -44.5633 H         1 UNK         0.0600 
    187 H187       -3.3340  -16.1039  -43.0509 H         1 UNK         0.0600 
    188 H188       -4.2929  -15.3170  -44.2999 H         1 UNK         0.0600 
    189 H189       -3.2482  -15.1435  -46.5127 H         1 UNK         0.3000 
    190 H190       -0.3338  -19.8532  -46.3358 H         1 UNK         0.3000 
    191 H191       -2.0480  -19.9438  -48.5506 H         1 UNK         0.0600 
    192 H192       -2.7484  -19.0626  -45.6994 H         1 UNK         0.0600 
    193 H193       -3.5465  -18.5565  -47.1815 H         1 UNK         0.0600 
    194 H194       -1.8843  -18.0723  -46.8657 H         1 UNK         0.0600 
    195 H195       -2.3844  -21.5720  -45.3583 H         1 UNK         0.3000 
    196 H196       -4.8356  -22.8920  -45.8806 H         1 UNK         0.0600 
    197 H197       -2.5611  -23.6124  -43.9560 H         1 UNK         0.0600 
    198 H198       -4.1880  -24.2827  -43.8999 H         1 UNK         0.0600 
    199 H199       -3.9361  -22.5695  -43.6007 H         1 UNK         0.0600 
    200 H200       -1.4403  -24.0142  -46.3323 H         1 UNK         0.3000 
    201 H201       -2.0415  -26.6353  -47.2252 H         1 UNK         0.0600 
    202 H202        0.2105  -25.9513  -46.4655 H         1 UNK         0.0600 
    203 H203        0.3708  -24.8425  -47.8263 H         1 UNK         0.0600 
    204 H204        0.3038  -26.5792  -48.1036 H         1 UNK         0.0600 
    205 H205       -1.8628  -23.5584  -48.9842 H         1 UNK         0.3000 
    206 H206       -2.3828  -24.7802  -51.6013 H         1 UNK         0.0600 
    207 H207       -2.1627  -21.8521  -50.7489 H         1 UNK         0.0600 
    208 H208       -2.1510  -22.4788  -52.4023 H         1 UNK         0.0600 
    209 H209       -0.8230  -22.8424  -51.3191 H         1 UNK         0.0600 
    210 H210       -4.3855  -24.4975  -49.0855 H         1 UNK         0.3000 
    211 H211       -6.5415  -24.4895  -48.7134 H         1 UNK         0.0600 
    212 H212       -6.8506  -24.8898  -51.7406 H         1 UNK         0.0600 
    213 H213       -8.1367  -25.0817  -50.5552 H         1 UNK         0.0600 
    214 H214       -6.7357  -26.1371  -50.5077 H         1 UNK         0.0600 
    215 H215       -7.2167  -22.8785  -51.7824 H         1 UNK         0.3000 
    216 H216       -8.3172  -20.5173  -50.4038 H         1 UNK         0.0600 
    217 H217       -9.0691  -19.9089  -52.7036 H         1 UNK         0.0600 
    218 H218       -9.5896  -21.5297  -52.2696 H         1 UNK         0.0600 
    219 H219       -8.2257  -21.3039  -53.3626 H         1 UNK         0.0600 
    220 H220       -5.3631  -21.4949  -51.8992 H         1 UNK         0.3000 
    221 H221       -3.4336  -20.5967  -52.3537 H         1 UNK         0.0600 
    222 H222       -4.1317  -18.0451  -50.8317 H         1 UNK         0.0600 
    223 H223       -3.8193  -19.5632  -50.0018 H         1 UNK         0.0600 
    224 H224       -2.5637  -18.8405  -50.9891 H         1 UNK         0.0600 
    225 H225       -2.4242  -18.1248  -52.9691 H         1 UNK         0.3000 
    226 H226       -1.9323  -16.8855  -54.7375 H         1 UNK         0.0600 
    227 H227       -3.7890  -15.4998  -53.9308 H         1 UNK         0.0600 
    228 H228       -3.7528  -15.4507  -55.6835 H         1 UNK         0.0600 
    229 H229       -4.9649  -16.4249  -54.8524 H         1 UNK         0.0600 
    230 H230       -4.7699  -17.3946  -56.6287 H         1 UNK         0.3000 
    231 H231       -3.3797  -18.6031  -58.8106 H         1 UNK         0.0600 
    232 H232       -5.6663  -18.7106  -59.8169 H         1 UNK         0.0600 
    233 H233       -5.3557  -17.1329  -59.1109 H         1 UNK         0.0600 
    234 H234       -6.3813  -18.2926  -58.2644 H         1 UNK         0.0600 
    235 H235       -5.0292  -20.0075  -56.0289 H         1 UNK         0.3000 
    236 H236       -5.5946  -22.5837  -57.1435 H         1 UNK         0.0600 
    237 H237       -6.0201  -23.2252  -54.8097 H         1 UNK         0.0600 
    238 H238       -5.1790  -21.8025  -54.2213 H         1 UNK         0.0600 
    239 H239       -6.6990  -21.6285  -55.1014 H         1 UNK         0.0600 
    240 H240       -2.5847  -21.1634  -56.2290 H         1 UNK         0.3000 
    241 H241       -1.1161  -23.5922  -55.7014 H         1 UNK         0.0600 
    242 H242       -1.4607  -23.3625  -59.7512 H         1 UNK         0.3800 
    243 H243       -2.4551  -22.3569  -58.7289 H         1 UNK         0.3800 
    244 H244       -0.0906  -20.8864  -56.6786 H         1 UNK         0.0800 
    245 H245        0.9039  -22.1969  -56.0905 H         1 UNK         0.0800 
    246 H246        2.1005  -20.5084  -54.5364 H         1 UNK         0.0800 
    247 H247        1.0551  -19.2481  -55.1447 H         1 UNK         0.0800 
@<TRIPOS>BOND
     1    1    2 1    
     2    1  127 1    
     3    1  128 1    
     4    1  129 1    
     5    2    3 2    
     6    2    4 am   BACKBONE|DICT|INTERRES
     7    4    5 1    
     8    4  130 1    
     9    5    6 1    
    10    5   65 1    
    11    5  131 1    
    12    6    7 1    
    13    6  132 1    
    14    6  133 1    
    15    7    8 1    
    16    8    9 1    
    17    8  134 1    
    18    8  135 1    
    19    9   10 ar   
    20    9   14 ar   
    21   10   11 ar   
    22   10  136 1    
    23   11   12 ar   
    24   11  126 1    
    25   12   13 ar   
    26   12  137 1    
    27   13   14 ar   
    28   13   15 1    
    29   14  138 1    
    30   15   16 1    
    31   15  139 1    
    32   15  140 1    
    33   16   17 1    
    34   17   18 1    
    35   17  141 1    
    36   17  142 1    
    37   18   19 1    
    38   18   67 1    
    39   18  143 1    
    40   19   20 am   BACKBONE|DICT|INTERRES
    41   19  144 1    
    42   20   21 2    
    43   20   22 1    
    44   22   23 1    
    45   22   24 1    
    46   22  145 1    
    47   23  146 1    
    48   23  147 1    
    49   23  148 1    
    50   24   25 am   BACKBONE|DICT|INTERRES
    51   24  149 1    
    52   25   26 2    
    53   25   27 1    
    54   27   28 1    
    55   27   29 1    
    56   27  150 1    
    57   28  151 1    
    58   28  152 1    
    59   28  153 1    
    60   29   30 am   BACKBONE|DICT|INTERRES
    61   29  154 1    
    62   30   31 2    
    63   30   32 1    
    64   32   33 1    
    65   32   34 1    
    66   32  155 1    
    67   33  156 1    
    68   33  157 1    
    69   33  158 1    
    70   34   35 am   BACKBONE|DICT|INTERRES
    71   34  159 1    
    72   35   36 2    
    73   35   37 1    
    74   37   38 1    
    75   37   39 1    
    76   37  160 1    
    77   38  161 1    
    78   38  162 1    
    79   38  163 1    
    80   39   40 am   BACKBONE|DICT|INTERRES
    81   39  164 1    
    82   40   41 2    
    83   40   42 1    
    84   42   43 1    
    85   42   44 1    
    86   42  165 1    
    87   43  166 1    
    88   43  167 1    
    89   43  168 1    
    90   44   45 am   BACKBONE|DICT|INTERRES
    91   44  169 1    
    92   45   46 2    
    93   45   47 1    
    94   47   48 1    
    95   47   49 1    
    96   47  170 1    
    97   48  171 1    
    98   48  172 1    
    99   48  173 1    
   100   49   50 am   BACKBONE|DICT|INTERRES
   101   49  174 1    
   102   50   51 2    
   103   50   52 1    
   104   52   53 1    
   105   52   54 1    
   106   52  175 1    
   107   53  176 1    
   108   53  177 1    
   109   53  178 1    
   110   54   55 am   BACKBONE|DICT|INTERRES
   111   54  179 1    
   112   55   56 2    
   113   55   57 1    
   114   57   58 1    
   115   57   59 1    
   116   57  180 1    
   117   58  181 1    
   118   58  182 1    
   119   58  183 1    
   120   59   60 am   BACKBONE|DICT|INTERRES
   121   59  184 1    
   122   60   61 2    
   123   60   62 1    
   124   62   63 1    
   125   62   64 1    
   126   62  185 1    
   127   63  186 1    
   128   63  187 1    
   129   63  188 1    
   130   64   65 am   BACKBONE|DICT|INTERRES
   131   64  189 1    
   132   65   66 2    
   133   67   68 2    
   134   67   69 am   BACKBONE|DICT|INTERRES
   135   69   70 1    
   136   69  190 1    
   137   70   71 1    
   138   70   72 1    
   139   70  191 1    
   140   71  192 1    
   141   71  193 1    
   142   71  194 1    
   143   72   73 2    
   144   72   74 am   BACKBONE|DICT|INTERRES
   145   74   75 1    
   146   74  195 1    
   147   75   76 1    
   148   75   77 1    
   149   75  196 1    
   150   76  197 1    
   151   76  198 1    
   152   76  199 1    
   153   77   78 2    
   154   77   79 am   BACKBONE|DICT|INTERRES
   155   79   80 1    
   156   79  200 1    
   157   80   81 1    
   158   80   82 1    
   159   80  201 1    
   160   81  202 1    
   161   81  203 1    
   162   81  204 1    
   163   82   83 2    
   164   82   84 am   BACKBONE|DICT|INTERRES
   165   84   85 1    
   166   84  205 1    
   167   85   86 1    
   168   85   87 1    
   169   85  206 1    
   170   86  207 1    
   171   86  208 1    
   172   86  209 1    
   173   87   88 2    
   174   87   89 am   BACKBONE|DICT|INTERRES
   175   89   90 1    
   176   89  210 1    
   177   90   91 1    
   178   90   92 1    
   179   90  211 1    
   180   91  212 1    
   181   91  213 1    
   182   91  214 1    
   183   92   93 2    
   184   92   94 am   BACKBONE|DICT|INTERRES
   185   94   95 1    
   186   94  215 1    
   187   95   96 1    
   188   95   97 1    
   189   95  216 1    
   190   96  217 1    
   191   96  218 1    
   192   96  219 1    
   193   97   98 2    
   194   97   99 am   BACKBONE|DICT|INTERRES
   195   99  100 1    
   196   99  220 1    
   197  100  101 1    
   198  100  102 1    
   199  100  221 1    
   200  101  222 1    
   201  101  223 1    
   202  101  224 1    
   203  102  103 2    
   204  102  104 am   BACKBONE|DICT|INTERRES
   205  104  105 1    
   206  104  225 1    
   207  105  106 1    
   208  105  107 1    
   209  105  226 1    
   210  106  227 1    
   211  106  228 1    
   212  106  229 1    
   213  107  108 2    
   214  107  109 am   BACKBONE|DICT|INTERRES
   215  109  110 1    
   216  109  230 1    
   217  110  111 1    
   218  110  112 1    
   219  110  231 1    
   220  111  232 1    
   221  111  233 1    
   222  111  234 1    
   223  112  113 2    
   224  112  114 am   BACKBONE|DICT|INTERRES
   225  114  115 1    
   226  114  235 1    
   227  115  116 1    
   228  115  117 1    
   229  115  236 1    
   230  116  237 1    
   231  116  238 1    
   232  116  239 1    
   233  117  118 2    
   234  117  119 am   BACKBONE|DICT|INTERRES
   235  119  120 1    
   236  119  240 1    
   237  120  121 1    
   238  120  124 1    
   239  120  241 1    
   240  121  122 am   BACKBONE|DICT|INTERRES
   241  121  123 2    
   242  122  242 1    
   243  122  243 1    
   244  124  125 1    
   245  124  244 1    
   246  124  245 1    
   247  125  126 1    
   248  126  246 1    
   249  126  247 1    
@<TRIPOS>SUBSTRUCTURE
     1 UNK         1 GROUP             0       ****    0 ROOT    
