@<TRIPOS>MOLECULE
3R540
247   249    1
SMALL
USER_CHARGES


@<TRIPOS>ATOM
      1 CA          4.5451  -12.4399  -47.4409 C.3       0 UNK        -0.1800 
      2 C           3.2286  -12.6532  -46.7107 C.2       0 UNK         0.5000 
      3 O           3.2269  -12.8162  -45.4901 O.2       0 UNK        -0.5000 
      4 N           2.1060  -12.6226  -47.4406 N.am      1 UNK        -0.5000 
      5 CA          0.7320  -12.9041  -46.9849 C.3       1 UNK         0.1400 
      6 C6         -0.2057  -13.2685  -48.1691 C.3       23 UNK        -0.0398 
      7 S7          0.4844  -14.5512  -49.2747 S.3       23 UNK        -0.2404 
      8 C8         -0.4201  -16.0364  -48.7449 C.3       23 UNK        -0.0205 
      9 C9          0.0900  -17.2680  -49.4780 C.ar      23 UNK        -0.0193 
     10 C10        -0.5407  -17.7119  -50.6446 C.ar      23 UNK        -0.1150 
     11 C11        -0.0634  -18.8368  -51.3259 C.ar      23 UNK        -0.0193 
     12 C12         1.0494  -19.5207  -50.8277 C.ar      23 UNK        -0.1150 
     13 C13         1.6971  -19.0788  -49.6710 C.ar      23 UNK        -0.0193 
     14 C14         1.2083  -17.9550  -48.9975 C.ar      23 UNK        -0.1150 
     15 C15         2.9498  -19.7903  -49.1781 C.3       23 UNK        -0.0205 
     16 S16         2.5866  -21.3801  -48.3677 S.3       23 UNK        -0.2404 
     17 C17         1.7349  -20.8287  -46.8525 C.3       23 UNK        -0.0398 
     18 CA          0.4187  -21.5885  -46.5741 C.3       11 UNK         0.1400 
     19 N          -0.0076  -21.3944  -45.1840 N.am      11 UNK        -0.5000 
     20 C          -1.0256  -22.0285  -44.5846 C.2       10 UNK         0.5000 
     21 O          -1.7116  -22.8918  -45.1304 O.2       10 UNK        -0.5000 
     22 CA         -1.3625  -21.5792  -43.1525 C.3       10 UNK         0.1400 
     23 CB         -0.4229  -22.2321  -42.1271 C.3       10 UNK        -0.1800 
     24 N          -1.2931  -20.1222  -43.0368 N.am      10 UNK        -0.5000 
     25 C          -2.2487  -19.2940  -43.4833 C.2       9 UNK         0.5000 
     26 O          -3.3340  -19.6794  -43.9174 O.2       9 UNK        -0.5000 
     27 CA         -1.9382  -17.7848  -43.4687 C.3       9 UNK         0.1400 
     28 CB         -2.5009  -17.1355  -42.1963 C.3       9 UNK        -0.1800 
     29 N          -0.5056  -17.4914  -43.5953 N.am      9 UNK        -0.5000 
     30 C           0.1857  -17.6830  -44.7297 C.2       8 UNK         0.5000 
     31 O          -0.3284  -18.0935  -45.7669 O.2       8 UNK        -0.5000 
     32 CA          1.7047  -17.4389  -44.7145 C.3       8 UNK         0.1400 
     33 CB          2.0513  -16.0221  -45.1851 C.3       8 UNK        -0.1800 
     34 N           2.3388  -17.7080  -43.4275 N.am      8 UNK        -0.5000 
     35 C           2.4336  -18.9260  -42.8771 C.2       7 UNK         0.5000 
     36 O           1.8863  -19.9245  -43.3487 O.2       7 UNK        -0.5000 
     37 CA          3.2714  -19.0468  -41.5948 C.3       7 UNK         0.1400 
     38 CB          4.7679  -19.0962  -41.9392 C.3       7 UNK        -0.1800 
     39 N           3.0227  -17.9148  -40.7045 N.am      7 UNK        -0.5000 
     40 C           2.3270  -17.9798  -39.5618 C.2       6 UNK         0.5000 
     41 O           1.9021  -19.0284  -39.0750 O.2       6 UNK        -0.5000 
     42 CA          2.0335  -16.6452  -38.8430 C.3       6 UNK         0.1400 
     43 CB          3.1037  -16.3641  -37.7774 C.3       6 UNK        -0.1800 
     44 N           1.9370  -15.4870  -39.7368 N.am      6 UNK        -0.5000 
     45 C           1.0692  -15.3651  -40.7509 C.2       5 UNK         0.5000 
     46 O           0.2379  -16.2212  -41.0453 O.2       5 UNK        -0.5000 
     47 CA          1.1803  -14.1047  -41.6272 C.3       5 UNK         0.1400 
     48 CB          0.2702  -12.9982  -41.0764 C.3       5 UNK        -0.1800 
     49 N           2.5383  -13.5762  -41.8096 N.am      5 UNK        -0.5000 
     50 C           3.6280  -14.2659  -42.1860 C.2       4 UNK         0.5000 
     51 O           3.6470  -15.4913  -42.3200 O.2       4 UNK        -0.5000 
     52 CA          4.9009  -13.4470  -42.4634 C.3       4 UNK         0.1400 
     53 CB          5.8588  -14.1702  -43.4279 C.3       4 UNK        -0.1800 
     54 N           4.5502  -12.1479  -43.0344 N.am      4 UNK        -0.5000 
     55 C           4.8747  -10.9547  -42.5235 C.2       3 UNK         0.5000 
     56 O           5.5199  -10.8044  -41.4854 O.2       3 UNK        -0.5000 
     57 CA          4.3901   -9.7144  -43.2983 C.3       3 UNK         0.1400 
     58 CB          5.4324   -9.3010  -44.3486 C.3       3 UNK        -0.1800 
     59 N           3.0964   -9.9028  -43.9599 N.am      3 UNK        -0.5000 
     60 C           1.9195  -10.0131  -43.3253 C.2       2 UNK         0.5000 
     61 O           1.7983  -10.0045  -42.1008 O.2       2 UNK        -0.5000 
     62 CA          0.6810  -10.1964  -44.2145 C.3       2 UNK         0.1400 
     63 CB          0.2860   -8.8626  -44.8783 C.3       2 UNK        -0.1800 
     64 N           0.9677  -11.2277  -45.2064 N.am      2 UNK        -0.5000 
     65 C           0.1322  -11.7950  -46.0798 C.2       1 UNK         0.5000 
     66 O          -1.0553  -11.4838  -46.1825 O.2       1 UNK        -0.5000 
     67 C          -0.6937  -21.2351  -47.5903 C.2       11 UNK         0.5000 
     68 O          -0.8517  -21.9401  -48.5873 O.2       11 UNK        -0.5000 
     69 N          -1.4990  -20.2078  -47.2792 N.am      12 UNK        -0.5000 
     70 CA         -2.6549  -19.7445  -48.0528 C.3       12 UNK         0.1400 
     71 CB         -3.2311  -18.4792  -47.4006 C.3       12 UNK        -0.1800 
     72 C          -3.7658  -20.7928  -48.2764 C.2       12 UNK         0.5000 
     73 O          -4.6164  -20.5798  -49.1386 O.2       12 UNK        -0.5000 
     74 N          -3.7228  -21.9330  -47.5702 N.am      13 UNK        -0.5000 
     75 CA         -4.5173  -23.1285  -47.8712 C.3       13 UNK         0.1400 
     76 CB         -4.1825  -24.2200  -46.8453 C.3       13 UNK        -0.1800 
     77 C          -4.2943  -23.6510  -49.3087 C.2       13 UNK         0.5000 
     78 O          -5.2366  -24.1471  -49.9303 O.2       13 UNK        -0.5000 
     79 N          -3.0673  -23.4703  -49.8217 N.am      14 UNK        -0.5000 
     80 CA         -2.6509  -23.8076  -51.1813 C.3       14 UNK         0.1400 
     81 CB         -1.1207  -23.9505  -51.2135 C.3       14 UNK        -0.1800 
     82 C          -3.1123  -22.7920  -52.2470 C.2       14 UNK         0.5000 
     83 O          -2.8421  -23.0110  -53.4263 O.2       14 UNK        -0.5000 
     84 N          -3.7878  -21.7013  -51.8568 N.am      15 UNK        -0.5000 
     85 CA         -4.2848  -20.6551  -52.7576 C.3       15 UNK         0.1400 
     86 CB         -4.3246  -19.3181  -51.9922 C.3       15 UNK        -0.1800 
     87 C          -5.6646  -20.9936  -53.3653 C.2       15 UNK         0.5000 
     88 O          -6.4452  -20.0780  -53.6267 O.2       15 UNK        -0.5000 
     89 N          -5.9666  -22.2905  -53.5346 N.am      16 UNK        -0.5000 
     90 CA         -7.2658  -22.8674  -53.9110 C.3       16 UNK         0.1400 
     91 CB         -7.7810  -22.3168  -55.2587 C.3       16 UNK        -0.1800 
     92 C          -8.3255  -22.7716  -52.7933 C.2       16 UNK         0.5000 
     93 O          -9.4950  -23.0701  -53.0404 O.2       16 UNK        -0.5000 
     94 N          -7.9080  -22.3766  -51.5819 N.am      17 UNK        -0.5000 
     95 CA         -8.7599  -22.2717  -50.3995 C.3       17 UNK         0.1400 
     96 CB         -8.0699  -21.3854  -49.3530 C.3       17 UNK        -0.1800 
     97 C          -9.1038  -23.6545  -49.8211 C.2       17 UNK         0.5000 
     98 O         -10.2569  -23.8867  -49.4558 O.2       17 UNK        -0.5000 
     99 N          -8.1073  -24.5478  -49.7790 N.am      18 UNK        -0.5000 
    100 CA        -8.2585  -25.9503  -49.3970 C.3       18 UNK         0.1400 
    101 CB        -7.4343  -26.2290  -48.1311 C.3       18 UNK        -0.1800 
    102 C         -7.8165  -26.8800  -50.5378 C.2       18 UNK         0.5000 
    103 O         -8.4534  -27.9133  -50.7476 O.2       18 UNK        -0.5000 
    104 N         -6.7494  -26.5099  -51.2580 N.am      19 UNK        -0.5000 
    105 CA        -6.1685  -27.2869  -52.3500 C.3       19 UNK         0.1400 
    106 CB        -5.2934  -28.4149  -51.7673 C.3       19 UNK        -0.1800 
    107 C         -5.3436  -26.3690  -53.2637 C.2       19 UNK         0.5000 
    108 O         -5.1163  -25.2083  -52.9175 O.2       19 UNK        -0.5000 
    109 N         -4.8929  -26.9251  -54.3971 N.am      20 UNK        -0.5000 
    110 CA        -3.9916  -26.3230  -55.3871 C.3       20 UNK         0.1400 
    111 CB        -2.5629  -26.2233  -54.8055 C.3       20 UNK        -0.1800 
    112 C         -4.5265  -25.0036  -55.9918 C.2       20 UNK         0.5000 
    113 O         -5.7407  -24.8581  -56.1425 O.2       20 UNK        -0.5000 
    114 N         -3.6182  -24.0947  -56.3665 N.am      21 UNK        -0.5000 
    115 CA        -3.8934  -22.7738  -56.9373 C.3       21 UNK         0.1400 
    116 CB        -4.4704  -22.8990  -58.3645 C.3       21 UNK        -0.1800 
    117 C         -2.6246  -21.8978  -56.8871 C.2       21 UNK         0.5000 
    118 O         -2.3552  -21.1429  -57.8224 O.2       21 UNK        -0.5000 
    119 N         -1.8496  -22.0313  -55.8024 N.am      22 UNK        -0.5000 
    120 CA        -0.5771  -21.3364  -55.5378 C.3       22 UNK         0.1400 
    121 C          0.6026  -21.7081  -56.4931 C.2       22 UNK         0.5000 
    122 N          0.5307  -22.8051  -57.2372 N.am      22 UNK        -0.7600 
    123 O          1.6138  -21.0139  -56.5481 O.2       22 UNK        -0.5000 
    124 C124       -0.7735  -19.8025  -55.3566 C.3       23 UNK        -0.0398 
    125 S125        0.3064  -19.0991  -54.0632 S.3       23 UNK        -0.2404 
    126 C126       -0.7471  -19.3177  -52.5969 C.3       23 UNK        -0.0205 
    127 H127        5.0214  -11.5226  -47.0961 H         1 UNK         0.0600 
    128 H128        4.4030  -12.3678  -48.5193 H         1 UNK         0.0600 
    129 H129        5.2205  -13.2718  -47.2412 H         1 UNK         0.0600 
    130 H130        2.1867  -12.4594  -48.4342 H         1 UNK         0.3000 
    131 H131        0.7822  -13.7849  -46.3466 H         1 UNK         0.0600 
    132 H132       -1.1773  -13.6034  -47.8013 H         1 UNK         0.0800 
    133 H133       -0.4028  -12.3837  -48.7768 H         1 UNK         0.0800 
    134 H134       -1.4865  -15.9001  -48.9305 H         1 UNK         0.0800 
    135 H135       -0.3064  -16.1706  -47.6688 H         1 UNK         0.0800 
    136 H136       -1.3992  -17.1760  -51.0243 H         1 UNK         0.1150 
    137 H137        1.4234  -20.3887  -51.3524 H         1 UNK         0.1150 
    138 H138        1.7056  -17.6015  -48.1056 H         1 UNK         0.1150 
    139 H139        3.6110  -19.9742  -50.0261 H         1 UNK         0.0800 
    140 H140        3.5109  -19.1548  -48.4911 H         1 UNK         0.0800 
    141 H141        1.5475  -19.7578  -46.8939 H         1 UNK         0.0800 
    142 H142        2.4322  -20.9779  -46.0266 H         1 UNK         0.0800 
    143 H143        0.6202  -22.6563  -46.6840 H         1 UNK         0.0600 
    144 H144        0.5291  -20.7311  -44.6356 H         1 UNK         0.3000 
    145 H145       -2.3805  -21.9050  -42.9273 H         1 UNK         0.0600 
    146 H146       -0.6748  -21.9261  -41.1117 H         1 UNK         0.0600 
    147 H147       -0.5016  -23.3192  -42.1680 H         1 UNK         0.0600 
    148 H148        0.6211  -21.9749  -42.3045 H         1 UNK         0.0600 
    149 H149       -0.4168  -19.7299  -42.7217 H         1 UNK         0.3000 
    150 H150       -2.4499  -17.3377  -44.3238 H         1 UNK         0.0600 
    151 H151       -3.5795  -17.2825  -42.1285 H         1 UNK         0.0600 
    152 H152       -2.3186  -16.0608  -42.1865 H         1 UNK         0.0600 
    153 H153       -2.0563  -17.5625  -41.2967 H         1 UNK         0.0600 
    154 H154       -0.0357  -17.1515  -42.7614 H         1 UNK         0.3000 
    155 H155        2.1511  -18.1277  -45.4321 H         1 UNK         0.0600 
    156 H156        1.5874  -15.2601  -44.5615 H         1 UNK         0.0600 
    157 H157        1.7148  -15.8680  -46.2101 H         1 UNK         0.0600 
    158 H158        3.1280  -15.8512  -45.1743 H         1 UNK         0.0600 
    159 H159        2.8255  -16.9261  -42.9944 H         1 UNK         0.3000 
    160 H160        3.0033  -19.9889  -41.1121 H         1 UNK         0.0600 
    161 H161        5.1023  -18.1775  -42.4236 H         1 UNK         0.0600 
    162 H162        4.9867  -19.9242  -42.6148 H         1 UNK         0.0600 
    163 H163        5.3714  -19.2393  -41.0428 H         1 UNK         0.0600 
    164 H164        3.3067  -17.0026  -41.0458 H         1 UNK         0.3000 
    165 H165        1.0697  -16.7524  -38.3411 H         1 UNK         0.0600 
    166 H166        2.8592  -15.4746  -37.1965 H         1 UNK         0.0600 
    167 H167        3.1856  -17.1958  -37.0763 H         1 UNK         0.0600 
    168 H168        4.0868  -16.2144  -38.2256 H         1 UNK         0.0600 
    169 H169        2.5975  -14.7396  -39.5832 H         1 UNK         0.3000 
    170 H170        0.8065  -14.3748  -42.6151 H         1 UNK         0.0600 
    171 H171       -0.7392  -13.3713  -40.8961 H         1 UNK         0.0600 
    172 H172        0.6469  -12.5984  -40.1342 H         1 UNK         0.0600 
    173 H173        0.1826  -12.1734  -41.7813 H         1 UNK         0.0600 
    174 H174        2.6367  -12.5752  -41.7146 H         1 UNK         0.3000 
    175 H175        5.4078  -13.3255  -41.5046 H         1 UNK         0.0600 
    176 H176        5.3813  -14.3745  -44.3872 H         1 UNK         0.0600 
    177 H177        6.7500  -13.5724  -43.6185 H         1 UNK         0.0600 
    178 H178        6.1906  -15.1233  -43.0143 H         1 UNK         0.0600 
    179 H179        4.0169  -12.1925  -43.8993 H         1 UNK         0.3000 
    180 H180        4.2871   -8.8970  -42.5814 H         1 UNK         0.0600 
    181 H181        5.5705  -10.0746  -45.1047 H         1 UNK         0.0600 
    182 H182        6.4028   -9.1193  -43.8848 H         1 UNK         0.0600 
    183 H183        5.1393   -8.3819  -44.8563 H         1 UNK         0.0600 
    184 H184        3.1043   -9.8935  -44.9689 H         1 UNK         0.3000 
    185 H185       -0.1437  -10.5389  -43.5869 H         1 UNK         0.0600 
    186 H186       -0.6593   -8.9457  -45.4139 H         1 UNK         0.0600 
    187 H187        0.1608   -8.0777  -44.1313 H         1 UNK         0.0600 
    188 H188        1.0424   -8.5246  -45.5873 H         1 UNK         0.0600 
    189 H189        1.8999  -11.6336  -45.1633 H         1 UNK         0.3000 
    190 H190       -1.2416  -19.6293  -46.4853 H         1 UNK         0.3000 
    191 H191       -2.2824  -19.4730  -49.0419 H         1 UNK         0.0600 
    192 H192       -4.0574  -18.0772  -47.9884 H         1 UNK         0.0600 
    193 H193       -2.4798  -17.6942  -47.3247 H         1 UNK         0.0600 
    194 H194       -3.6094  -18.6816  -46.3991 H         1 UNK         0.0600 
    195 H195       -2.9967  -22.0408  -46.8734 H         1 UNK         0.3000 
    196 H196       -5.5712  -22.8711  -47.7622 H         1 UNK         0.0600 
    197 H197       -3.1334  -24.5135  -46.9007 H         1 UNK         0.0600 
    198 H198       -4.3807  -23.8796  -45.8288 H         1 UNK         0.0600 
    199 H199       -4.7805  -25.1155  -47.0081 H         1 UNK         0.0600 
    200 H200       -2.3637  -23.0072  -49.2525 H         1 UNK         0.3000 
    201 H201       -3.0790  -24.7772  -51.4370 H         1 UNK         0.0600 
    202 H202       -0.7720  -24.6557  -50.4590 H         1 UNK         0.0600 
    203 H203       -0.6234  -22.9959  -51.0371 H         1 UNK         0.0600 
    204 H204       -0.7827  -24.3196  -52.1826 H         1 UNK         0.0600 
    205 H205       -4.0022  -21.5790  -50.8738 H         1 UNK         0.3000 
    206 H206       -3.5846  -20.5426  -53.5873 H         1 UNK         0.0600 
    207 H207       -3.4356  -19.1706  -51.3806 H         1 UNK         0.0600 
    208 H208       -4.3938  -18.4767  -52.6824 H         1 UNK         0.0600 
    209 H209       -5.1869  -19.2614  -51.3267 H         1 UNK         0.0600 
    210 H210       -5.2592  -22.9798  -53.3020 H         1 UNK         0.3000 
    211 H211       -7.0911  -23.9332  -54.0500 H         1 UNK         0.0600 
    212 H212       -8.6241  -22.9069  -55.6190 H         1 UNK         0.0600 
    213 H213       -7.0104  -22.3597  -56.0273 H         1 UNK         0.0600 
    214 H214       -8.1225  -21.2850  -55.1788 H         1 UNK         0.0600 
    215 H215       -6.9292  -22.1637  -51.4621 H         1 UNK         0.3000 
    216 H216       -9.6952  -21.7868  -50.6875 H         1 UNK         0.0600 
    217 H217       -7.1010  -21.7879  -49.0632 H         1 UNK         0.0600 
    218 H218       -8.6759  -21.2987  -48.4504 H         1 UNK         0.0600 
    219 H219       -7.9079  -20.3775  -49.7357 H         1 UNK         0.0600 
    220 H220       -7.1759  -24.2610  -50.0622 H         1 UNK         0.3000 
    221 H221       -9.3036  -26.1780  -49.1777 H         1 UNK         0.0600 
    222 H222       -7.7030  -25.5478  -47.3237 H         1 UNK         0.0600 
    223 H223       -6.3666  -26.1251  -48.3211 H         1 UNK         0.0600 
    224 H224       -7.6042  -27.2451  -47.7733 H         1 UNK         0.0600 
    225 H225       -6.2565  -25.6464  -51.0523 H         1 UNK         0.3000 
    226 H226       -6.9714  -27.7178  -52.9517 H         1 UNK         0.0600 
    227 H227       -4.4790  -28.0138  -51.1627 H         1 UNK         0.0600 
    228 H228       -5.8763  -29.0867  -51.1372 H         1 UNK         0.0600 
    229 H229       -4.8489  -29.0236  -52.5552 H         1 UNK         0.0600 
    230 H230       -5.1779  -27.8716  -54.6039 H         1 UNK         0.3000 
    231 H231       -3.9526  -27.0266  -56.2197 H         1 UNK         0.0600 
    232 H232       -2.5087  -25.5144  -53.9806 H         1 UNK         0.0600 
    233 H233       -1.8362  -25.9199  -55.5593 H         1 UNK         0.0600 
    234 H234       -2.2325  -27.1896  -54.4245 H         1 UNK         0.0600 
    235 H235       -2.6443  -24.3014  -56.2001 H         1 UNK         0.3000 
    236 H236       -4.6321  -22.2781  -56.3055 H         1 UNK         0.0600 
    237 H237       -5.4065  -23.4563  -58.3752 H         1 UNK         0.0600 
    238 H238       -4.6849  -21.9181  -58.7903 H         1 UNK         0.0600 
    239 H239       -3.7725  -23.4042  -59.0329 H         1 UNK         0.0600 
    240 H240       -2.1941  -22.5967  -55.0265 H         1 UNK         0.3000 
    241 H241       -0.2703  -21.7433  -54.5736 H         1 UNK         0.0600 
    242 H242        1.3003  -23.0407  -57.8442 H         1 UNK         0.3800 
    243 H243       -0.2858  -23.3919  -57.2142 H         1 UNK         0.3800 
    244 H244       -1.8056  -19.5749  -55.0880 H         1 UNK         0.0800 
    245 H245       -0.5994  -19.2732  -56.2949 H         1 UNK         0.0800 
    246 H246       -1.6706  -18.7649  -52.7632 H         1 UNK         0.0800 
    247 H247       -1.0178  -20.3688  -52.4865 H         1 UNK         0.0800 
@<TRIPOS>BOND
     1    1    2 1    
     2    1  127 1    
     3    1  128 1    
     4    1  129 1    
     5    2    3 2    
     6    2    4 am   BACKBONE|DICT|INTERRES
     7    4    5 1    
     8    4  130 1    
     9    5    6 1    
    10    5   65 1    
    11    5  131 1    
    12    6    7 1    
    13    6  132 1    
    14    6  133 1    
    15    7    8 1    
    16    8    9 1    
    17    8  134 1    
    18    8  135 1    
    19    9   10 ar   
    20    9   14 ar   
    21   10   11 ar   
    22   10  136 1    
    23   11   12 ar   
    24   11  126 1    
    25   12   13 ar   
    26   12  137 1    
    27   13   14 ar   
    28   13   15 1    
    29   14  138 1    
    30   15   16 1    
    31   15  139 1    
    32   15  140 1    
    33   16   17 1    
    34   17   18 1    
    35   17  141 1    
    36   17  142 1    
    37   18   19 1    
    38   18   67 1    
    39   18  143 1    
    40   19   20 am   BACKBONE|DICT|INTERRES
    41   19  144 1    
    42   20   21 2    
    43   20   22 1    
    44   22   23 1    
    45   22   24 1    
    46   22  145 1    
    47   23  146 1    
    48   23  147 1    
    49   23  148 1    
    50   24   25 am   BACKBONE|DICT|INTERRES
    51   24  149 1    
    52   25   26 2    
    53   25   27 1    
    54   27   28 1    
    55   27   29 1    
    56   27  150 1    
    57   28  151 1    
    58   28  152 1    
    59   28  153 1    
    60   29   30 am   BACKBONE|DICT|INTERRES
    61   29  154 1    
    62   30   31 2    
    63   30   32 1    
    64   32   33 1    
    65   32   34 1    
    66   32  155 1    
    67   33  156 1    
    68   33  157 1    
    69   33  158 1    
    70   34   35 am   BACKBONE|DICT|INTERRES
    71   34  159 1    
    72   35   36 2    
    73   35   37 1    
    74   37   38 1    
    75   37   39 1    
    76   37  160 1    
    77   38  161 1    
    78   38  162 1    
    79   38  163 1    
    80   39   40 am   BACKBONE|DICT|INTERRES
    81   39  164 1    
    82   40   41 2    
    83   40   42 1    
    84   42   43 1    
    85   42   44 1    
    86   42  165 1    
    87   43  166 1    
    88   43  167 1    
    89   43  168 1    
    90   44   45 am   BACKBONE|DICT|INTERRES
    91   44  169 1    
    92   45   46 2    
    93   45   47 1    
    94   47   48 1    
    95   47   49 1    
    96   47  170 1    
    97   48  171 1    
    98   48  172 1    
    99   48  173 1    
   100   49   50 am   BACKBONE|DICT|INTERRES
   101   49  174 1    
   102   50   51 2    
   103   50   52 1    
   104   52   53 1    
   105   52   54 1    
   106   52  175 1    
   107   53  176 1    
   108   53  177 1    
   109   53  178 1    
   110   54   55 am   BACKBONE|DICT|INTERRES
   111   54  179 1    
   112   55   56 2    
   113   55   57 1    
   114   57   58 1    
   115   57   59 1    
   116   57  180 1    
   117   58  181 1    
   118   58  182 1    
   119   58  183 1    
   120   59   60 am   BACKBONE|DICT|INTERRES
   121   59  184 1    
   122   60   61 2    
   123   60   62 1    
   124   62   63 1    
   125   62   64 1    
   126   62  185 1    
   127   63  186 1    
   128   63  187 1    
   129   63  188 1    
   130   64   65 am   BACKBONE|DICT|INTERRES
   131   64  189 1    
   132   65   66 2    
   133   67   68 2    
   134   67   69 am   BACKBONE|DICT|INTERRES
   135   69   70 1    
   136   69  190 1    
   137   70   71 1    
   138   70   72 1    
   139   70  191 1    
   140   71  192 1    
   141   71  193 1    
   142   71  194 1    
   143   72   73 2    
   144   72   74 am   BACKBONE|DICT|INTERRES
   145   74   75 1    
   146   74  195 1    
   147   75   76 1    
   148   75   77 1    
   149   75  196 1    
   150   76  197 1    
   151   76  198 1    
   152   76  199 1    
   153   77   78 2    
   154   77   79 am   BACKBONE|DICT|INTERRES
   155   79   80 1    
   156   79  200 1    
   157   80   81 1    
   158   80   82 1    
   159   80  201 1    
   160   81  202 1    
   161   81  203 1    
   162   81  204 1    
   163   82   83 2    
   164   82   84 am   BACKBONE|DICT|INTERRES
   165   84   85 1    
   166   84  205 1    
   167   85   86 1    
   168   85   87 1    
   169   85  206 1    
   170   86  207 1    
   171   86  208 1    
   172   86  209 1    
   173   87   88 2    
   174   87   89 am   BACKBONE|DICT|INTERRES
   175   89   90 1    
   176   89  210 1    
   177   90   91 1    
   178   90   92 1    
   179   90  211 1    
   180   91  212 1    
   181   91  213 1    
   182   91  214 1    
   183   92   93 2    
   184   92   94 am   BACKBONE|DICT|INTERRES
   185   94   95 1    
   186   94  215 1    
   187   95   96 1    
   188   95   97 1    
   189   95  216 1    
   190   96  217 1    
   191   96  218 1    
   192   96  219 1    
   193   97   98 2    
   194   97   99 am   BACKBONE|DICT|INTERRES
   195   99  100 1    
   196   99  220 1    
   197  100  101 1    
   198  100  102 1    
   199  100  221 1    
   200  101  222 1    
   201  101  223 1    
   202  101  224 1    
   203  102  103 2    
   204  102  104 am   BACKBONE|DICT|INTERRES
   205  104  105 1    
   206  104  225 1    
   207  105  106 1    
   208  105  107 1    
   209  105  226 1    
   210  106  227 1    
   211  106  228 1    
   212  106  229 1    
   213  107  108 2    
   214  107  109 am   BACKBONE|DICT|INTERRES
   215  109  110 1    
   216  109  230 1    
   217  110  111 1    
   218  110  112 1    
   219  110  231 1    
   220  111  232 1    
   221  111  233 1    
   222  111  234 1    
   223  112  113 2    
   224  112  114 am   BACKBONE|DICT|INTERRES
   225  114  115 1    
   226  114  235 1    
   227  115  116 1    
   228  115  117 1    
   229  115  236 1    
   230  116  237 1    
   231  116  238 1    
   232  116  239 1    
   233  117  118 2    
   234  117  119 am   BACKBONE|DICT|INTERRES
   235  119  120 1    
   236  119  240 1    
   237  120  121 1    
   238  120  124 1    
   239  120  241 1    
   240  121  122 am   BACKBONE|DICT|INTERRES
   241  121  123 2    
   242  122  242 1    
   243  122  243 1    
   244  124  125 1    
   245  124  244 1    
   246  124  245 1    
   247  125  126 1    
   248  126  246 1    
   249  126  247 1    
@<TRIPOS>SUBSTRUCTURE
     1 UNK         1 GROUP             0       ****    0 ROOT    
