@<TRIPOS>MOLECULE
3R540
247   249    1
SMALL
USER_CHARGES


@<TRIPOS>ATOM
      1 CA          7.4880  -15.5338  -44.2568 C.3       0 UNK        -0.1800 
      2 C           6.0853  -15.3400  -44.8142 C.2       0 UNK         0.5000 
      3 O           5.1285  -15.8756  -44.2623 O.2       0 UNK        -0.5000 
      4 N           5.9597  -14.5695  -45.8999 N.am      1 UNK        -0.5000 
      5 CA          4.6956  -14.2925  -46.6008 C.3       1 UNK         0.1400 
      6 C6          4.9239  -14.0918  -48.1210 C.3       23 UNK        -0.0398 
      7 S7          5.8180  -15.4844  -48.8887 S.3       23 UNK        -0.2404 
      8 C8          5.4006  -15.2541  -50.6431 C.3       23 UNK        -0.0205 
      9 C9          4.0686  -15.8948  -51.0002 C.ar      23 UNK        -0.0193 
     10 C10         2.9477  -15.1086  -51.2861 C.ar      23 UNK        -0.1150 
     11 C11         1.7353  -15.6965  -51.6658 C.ar      23 UNK        -0.0193 
     12 C12         1.6660  -17.0938  -51.7548 C.ar      23 UNK        -0.1150 
     13 C13         2.7674  -17.8912  -51.4410 C.ar      23 UNK        -0.0193 
     14 C14         3.9687  -17.2860  -51.0709 C.ar      23 UNK        -0.1150 
     15 C15         2.6580  -19.4063  -51.5018 C.3       23 UNK        -0.0205 
     16 S16         2.0906  -20.0935  -49.9153 S.3       23 UNK        -0.2404 
     17 C17         0.3145  -19.6691  -49.9311 C.3       23 UNK        -0.0398 
     18 CA         -0.5255  -20.6879  -49.1223 C.3       11 UNK         0.1400 
     19 N          -0.1297  -20.7134  -47.7057 N.am      11 UNK        -0.5000 
     20 C          -0.2689  -21.7357  -46.8499 C.2       10 UNK         0.5000 
     21 O          -0.8793  -22.7692  -47.1326 O.2       10 UNK        -0.5000 
     22 CA          0.2982  -21.5547  -45.4274 C.3       10 UNK         0.1400 
     23 CB          0.7797  -22.8769  -44.8008 C.3       10 UNK        -0.1800 
     24 N           1.3234  -20.5151  -45.3315 N.am      10 UNK        -0.5000 
     25 C           2.5586  -20.4926  -45.8556 C.2       9 UNK         0.5000 
     26 O           3.0555  -21.4207  -46.4931 O.2       9 UNK        -0.5000 
     27 CA          3.3785  -19.2066  -45.6153 C.3       9 UNK         0.1400 
     28 CB          3.6775  -18.4739  -46.9350 C.3       9 UNK        -0.1800 
     29 N           2.6806  -18.2917  -44.7061 N.am      9 UNK        -0.5000 
     30 C           2.8901  -18.2307  -43.3840 C.2       8 UNK         0.5000 
     31 O           3.7630  -18.8693  -42.7945 O.2       8 UNK        -0.5000 
     32 CA          1.9177  -17.3532  -42.5755 C.3       8 UNK         0.1400 
     33 CB          2.2587  -15.8625  -42.7128 C.3       8 UNK        -0.1800 
     34 N           0.5166  -17.5660  -42.9456 N.am      8 UNK        -0.5000 
     35 C          -0.1836  -18.6734  -42.6575 C.2       7 UNK         0.5000 
     36 O           0.3089  -19.6723  -42.1347 O.2       7 UNK        -0.5000 
     37 CA         -1.6789  -18.6799  -43.0106 C.3       7 UNK         0.1400 
     38 CB         -2.4894  -17.9653  -41.9184 C.3       7 UNK        -0.1800 
     39 N          -1.9317  -18.0267  -44.2917 N.am      7 UNK        -0.5000 
     40 C          -2.4176  -18.6368  -45.3803 C.2       6 UNK         0.5000 
     41 O          -2.6986  -19.8356  -45.4398 O.2       6 UNK        -0.5000 
     42 CA         -2.6187  -17.7544  -46.6274 C.3       6 UNK         0.1400 
     43 CB         -3.9763  -17.0382  -46.5345 C.3       6 UNK        -0.1800 
     44 N          -1.5850  -16.7419  -46.8363 N.am      6 UNK        -0.5000 
     45 C          -0.2566  -16.9098  -46.7911 C.2       5 UNK         0.5000 
     46 O           0.2998  -18.0007  -46.6771 O.2       5 UNK        -0.5000 
     47 CA          0.5933  -15.6245  -46.7920 C.3       5 UNK         0.1400 
     48 CB          1.0515  -15.3082  -48.2193 C.3       5 UNK        -0.1800 
     49 N          -0.0953  -14.4546  -46.2274 N.am      5 UNK        -0.5000 
     50 C          -0.6410  -14.3900  -45.0041 C.2       4 UNK         0.5000 
     51 O          -0.6073  -15.3169  -44.1908 O.2       4 UNK        -0.5000 
     52 CA         -1.3597  -13.0889  -44.6359 C.3       4 UNK         0.1400 
     53 CB         -2.6236  -13.3578  -43.7932 C.3       4 UNK        -0.1800 
     54 N          -0.4257  -12.2443  -43.9053 N.am      4 UNK        -0.5000 
     55 C          -0.5639  -10.9334  -43.6909 C.2       3 UNK         0.5000 
     56 O          -1.5153  -10.2699  -44.1057 O.2       3 UNK        -0.5000 
     57 CA          0.5510  -10.2327  -42.8917 C.3       3 UNK         0.1400 
     58 CB          0.5334  -10.6481  -41.4070 C.3       3 UNK        -0.1800 
     59 N           1.8878  -10.3741  -43.4830 N.am      3 UNK        -0.5000 
     60 C           2.6396  -11.4758  -43.6111 C.2       2 UNK         0.5000 
     61 O           2.3089  -12.5932  -43.2079 O.2       2 UNK        -0.5000 
     62 CA          4.0119  -11.2658  -44.2793 C.3       2 UNK         0.1400 
     63 CB          5.0497  -10.8226  -43.2360 C.3       2 UNK        -0.1800 
     64 N           4.5194  -12.4562  -44.9603 N.am      2 UNK        -0.5000 
     65 C           3.9460  -13.0789  -45.9999 C.2       1 UNK         0.5000 
     66 O           2.8890  -12.7076  -46.5114 O.2       1 UNK        -0.5000 
     67 C          -2.0496  -20.4919  -49.3121 C.2       11 UNK         0.5000 
     68 O          -2.4873  -19.7564  -50.1984 O.2       11 UNK        -0.5000 
     69 N          -2.8228  -21.1686  -48.4634 N.am      12 UNK        -0.5000 
     70 CA         -4.2700  -21.3227  -48.4699 C.3       12 UNK         0.1400 
     71 CB         -5.0060  -20.0265  -48.0932 C.3       12 UNK        -0.1800 
     72 C          -4.6011  -22.4488  -47.4861 C.2       12 UNK         0.5000 
     73 O          -5.3143  -23.3787  -47.8548 O.2       12 UNK        -0.5000 
     74 N          -4.0316  -22.3658  -46.2728 N.am      13 UNK        -0.5000 
     75 CA         -4.2131  -23.3251  -45.1824 C.3       13 UNK         0.1400 
     76 CB         -3.5150  -22.7930  -43.9203 C.3       13 UNK        -0.1800 
     77 C          -3.7305  -24.7488  -45.5201 C.2       13 UNK         0.5000 
     78 O          -4.5048  -25.6976  -45.3908 O.2       13 UNK        -0.5000 
     79 N          -2.4741  -24.8740  -45.9706 N.am      14 UNK        -0.5000 
     80 CA         -1.8781  -26.1478  -46.3901 C.3       14 UNK         0.1400 
     81 CB         -0.3525  -26.0818  -46.2226 C.3       14 UNK        -0.1800 
     82 C          -2.2452  -26.5030  -47.8415 C.2       14 UNK         0.5000 
     83 O          -2.2373  -27.6785  -48.2064 O.2       14 UNK        -0.5000 
     84 N          -2.5808  -25.4777  -48.6339 N.am      15 UNK        -0.5000 
     85 CA         -3.0156  -25.5769  -50.0264 C.3       15 UNK         0.1400 
     86 CB         -2.7555  -24.2204  -50.6932 C.3       15 UNK        -0.1800 
     87 C          -4.4941  -25.9955  -50.1870 C.2       15 UNK         0.5000 
     88 O          -4.9602  -26.1283  -51.3221 O.2       15 UNK        -0.5000 
     89 N          -5.2090  -26.1551  -49.0608 N.am      16 UNK        -0.5000 
     90 CA         -6.6151  -26.5563  -48.9183 C.3       16 UNK         0.1400 
     91 CB         -6.7915  -28.0252  -49.3550 C.3       16 UNK        -0.1800 
     92 C          -7.6089  -25.6096  -49.6258 C.2       16 UNK         0.5000 
     93 O          -8.6907  -26.0427  -50.0261 O.2       16 UNK        -0.5000 
     94 N          -7.1990  -24.3442  -49.8034 N.am      17 UNK        -0.5000 
     95 CA         -7.8320  -23.2922  -50.6078 C.3       17 UNK         0.1400 
     96 CB         -9.1525  -22.8367  -49.9546 C.3       17 UNK        -0.1800 
     97 C          -8.0080  -23.6637  -52.1020 C.2       17 UNK         0.5000 
     98 O          -8.8228  -23.0426  -52.7871 O.2       17 UNK        -0.5000 
     99 N          -7.2680  -24.6766  -52.5764 N.am      18 UNK        -0.5000 
    100 CA        -7.4256  -25.2910  -53.8917 C.3       18 UNK         0.1400 
    101 CB        -7.7247  -26.7886  -53.7113 C.3       18 UNK        -0.1800 
    102 C         -6.1723  -25.0853  -54.7500 C.2       18 UNK         0.5000 
    103 O         -6.2885  -24.6213  -55.8850 O.2       18 UNK        -0.5000 
    104 N         -4.9954  -25.4184  -54.1999 N.am      19 UNK        -0.5000 
    105 CA        -3.7065  -25.2550  -54.8822 C.3       19 UNK         0.1400 
    106 CB        -2.6723  -26.1961  -54.2443 C.3       19 UNK        -0.1800 
    107 C         -3.2116  -23.7942  -54.8786 C.2       19 UNK         0.5000 
    108 O         -2.4059  -23.4189  -55.7308 O.2       19 UNK        -0.5000 
    109 N         -3.7182  -23.0024  -53.9300 N.am      20 UNK        -0.5000 
    110 CA        -3.4765  -21.5836  -53.7174 C.3       20 UNK         0.1400 
    111 CB        -2.0550  -21.3454  -53.1718 C.3       20 UNK        -0.1800 
    112 C         -4.5359  -21.0991  -52.7185 C.2       20 UNK         0.5000 
    113 O         -5.0998  -21.9159  -51.9855 O.2       20 UNK        -0.5000 
    114 N         -4.7795  -19.7878  -52.6998 N.am      21 UNK        -0.5000 
    115 CA        -5.6890  -19.1138  -51.7759 C.3       21 UNK         0.1400 
    116 CB        -7.1421  -19.2207  -52.2785 C.3       21 UNK        -0.1800 
    117 C         -5.2009  -17.6675  -51.5942 C.2       21 UNK         0.5000 
    118 O         -5.9529  -16.7161  -51.8141 O.2       21 UNK        -0.5000 
    119 N         -3.9129  -17.5335  -51.2595 N.am      22 UNK        -0.5000 
    120 CA        -3.1357  -16.2832  -51.2424 C.3       22 UNK         0.1400 
    121 C         -3.4395  -15.3499  -50.0310 C.2       22 UNK         0.5000 
    122 N         -4.7058  -15.0820  -49.7453 N.am      22 UNK        -0.7600 
    123 O         -2.5439  -14.8700  -49.3408 O.2       22 UNK        -0.5000 
    124 C124       -1.6253  -16.5821  -51.4675 C.3       23 UNK        -0.0398 
    125 S125       -0.8928  -15.5488  -52.7857 S.3       23 UNK        -0.2404 
    126 C126        0.5398  -14.7799  -51.9508 C.3       23 UNK        -0.0205 
    127 H127        8.2362  -15.0038  -44.8467 H         1 UNK         0.0600 
    128 H128        7.7455  -16.5929  -44.2532 H         1 UNK         0.0600 
    129 H129        7.5384  -15.1660  -43.2320 H         1 UNK         0.0600 
    130 H130        6.7857  -14.1656  -46.3187 H         1 UNK         0.3000 
    131 H131        4.0317  -15.1511  -46.4813 H         1 UNK         0.0600 
    132 H132        5.4920  -13.1791  -48.3090 H         1 UNK         0.0800 
    133 H133        3.9699  -13.9709  -48.6358 H         1 UNK         0.0800 
    134 H134        6.1844  -15.7096  -51.2500 H         1 UNK         0.0800 
    135 H135        5.4060  -14.1913  -50.8902 H         1 UNK         0.0800 
    136 H136        3.0209  -14.0320  -51.2209 H         1 UNK         0.1150 
    137 H137        0.7584  -17.5856  -52.0604 H         1 UNK         0.1150 
    138 H138        4.8288  -17.8973  -50.8357 H         1 UNK         0.1150 
    139 H139        1.9875  -19.7126  -52.3062 H         1 UNK         0.0800 
    140 H140        3.6317  -19.8368  -51.7402 H         1 UNK         0.0800 
    141 H141       -0.0186  -19.6457  -50.9697 H         1 UNK         0.0800 
    142 H142        0.1869  -18.6598  -49.5365 H         1 UNK         0.0800 
    143 H143       -0.3129  -21.6755  -49.5376 H         1 UNK         0.0600 
    144 H144        0.3014  -19.8622  -47.3583 H         1 UNK         0.3000 
    145 H145       -0.5314  -21.1991  -44.8174 H         1 UNK         0.0600 
    146 H146        1.2236  -22.7099  -43.8193 H         1 UNK         0.0600 
    147 H147       -0.0536  -23.5647  -44.6617 H         1 UNK         0.0600 
    148 H148        1.5198  -23.3774  -45.4258 H         1 UNK         0.0600 
    149 H149        1.0370  -19.6789  -44.8449 H         1 UNK         0.3000 
    150 H150        4.3337  -19.5087  -45.1815 H         1 UNK         0.0600 
    151 H151        4.2308  -19.1163  -47.6210 H         1 UNK         0.0600 
    152 H152        4.2874  -17.5873  -46.7629 H         1 UNK         0.0600 
    153 H153        2.7693  -18.1619  -47.4491 H         1 UNK         0.0600 
    154 H154        1.9192  -17.7636  -45.1081 H         1 UNK         0.3000 
    155 H155        2.0273  -17.6209  -41.5223 H         1 UNK         0.0600 
    156 H156        3.2623  -15.6570  -42.3398 H         1 UNK         0.0600 
    157 H157        1.5695  -15.2426  -42.1392 H         1 UNK         0.0600 
    158 H158        2.2212  -15.5286  -43.7503 H         1 UNK         0.0600 
    159 H159        0.0442  -16.7682  -43.3660 H         1 UNK         0.3000 
    160 H160       -2.0022  -19.7227  -43.0408 H         1 UNK         0.0600 
    161 H161       -2.2208  -16.9107  -41.8412 H         1 UNK         0.0600 
    162 H162       -2.3199  -18.4219  -40.9424 H         1 UNK         0.0600 
    163 H163       -3.5585  -18.0233  -42.1233 H         1 UNK         0.0600 
    164 H164       -1.6926  -17.0433  -44.3527 H         1 UNK         0.3000 
    165 H165       -2.6211  -18.4056  -47.4992 H         1 UNK         0.0600 
    166 H166       -4.2741  -16.6361  -47.5006 H         1 UNK         0.0600 
    167 H167       -4.7716  -17.7080  -46.2084 H         1 UNK         0.0600 
    168 H168       -3.9469  -16.2131  -45.8219 H         1 UNK         0.0600 
    169 H169       -1.9201  -15.8021  -46.9944 H         1 UNK         0.3000 
    170 H170        1.4777  -15.8097  -46.1801 H         1 UNK         0.0600 
    171 H171        1.6377  -16.1294  -48.6349 H         1 UNK         0.0600 
    172 H172        0.1984  -15.1459  -48.8765 H         1 UNK         0.0600 
    173 H173        1.6721  -14.4144  -48.2527 H         1 UNK         0.0600 
    174 H174       -0.1444  -13.6410  -46.8239 H         1 UNK         0.3000 
    175 H175       -1.6560  -12.5841  -45.5579 H         1 UNK         0.0600 
    176 H176       -3.2903  -14.0554  -44.3014 H         1 UNK         0.0600 
    177 H177       -2.3762  -13.7878  -42.8217 H         1 UNK         0.0600 
    178 H178       -3.1886  -12.4426  -43.6177 H         1 UNK         0.0600 
    179 H179        0.4278  -12.6926  -43.5777 H         1 UNK         0.3000 
    180 H180        0.3311   -9.1644  -42.9248 H         1 UNK         0.0600 
    181 H181        0.7295  -11.7121  -41.2727 H         1 UNK         0.0600 
    182 H182       -0.4390  -10.4401  -40.9590 H         1 UNK         0.0600 
    183 H183        1.2792  -10.0959  -40.8354 H         1 UNK         0.0600 
    184 H184        2.2604   -9.5157  -43.8651 H         1 UNK         0.3000 
    185 H185        3.9122  -10.4785  -45.0293 H         1 UNK         0.0600 
    186 H186        4.7299   -9.9145  -42.7231 H         1 UNK         0.0600 
    187 H187        5.2064  -11.5897  -42.4763 H         1 UNK         0.0600 
    188 H188        6.0121  -10.6083  -43.7011 H         1 UNK         0.0600 
    189 H189        5.3693  -12.8555  -44.5921 H         1 UNK         0.3000 
    190 H190       -2.3327  -21.7634  -47.8012 H         1 UNK         0.3000 
    191 H191       -4.5813  -21.6250  -49.4692 H         1 UNK         0.0600 
    192 H192       -4.8844  -19.7939  -47.0372 H         1 UNK         0.0600 
    193 H193       -6.0760  -20.1288  -48.2762 H         1 UNK         0.0600 
    194 H194       -4.6572  -19.1715  -48.6706 H         1 UNK         0.0600 
    195 H195       -3.5033  -21.5283  -46.0420 H         1 UNK         0.3000 
    196 H196       -5.2836  -23.3833  -44.9748 H         1 UNK         0.0600 
    197 H197       -3.6412  -23.4803  -43.0829 H         1 UNK         0.0600 
    198 H198       -3.9306  -21.8317  -43.6171 H         1 UNK         0.0600 
    199 H199       -2.4448  -22.6568  -44.0764 H         1 UNK         0.0600 
    200 H200       -1.9097  -24.0432  -46.1200 H         1 UNK         0.3000 
    201 H201       -2.2511  -26.9494  -45.7489 H         1 UNK         0.0600 
    202 H202       -0.0781  -25.9144  -45.1814 H         1 UNK         0.0600 
    203 H203        0.0876  -25.2844  -46.8224 H         1 UNK         0.0600 
    204 H204        0.1146  -27.0180  -46.5310 H         1 UNK         0.0600 
    205 H205       -2.5391  -24.5503  -48.2383 H         1 UNK         0.3000 
    206 H206       -2.4074  -26.3302  -50.5309 H         1 UNK         0.0600 
    207 H207       -1.7161  -23.9116  -50.5802 H         1 UNK         0.0600 
    208 H208       -2.9628  -24.2675  -51.7581 H         1 UNK         0.0600 
    209 H209       -3.3882  -23.4394  -50.2766 H         1 UNK         0.0600 
    210 H210       -4.7390  -25.9450  -48.1914 H         1 UNK         0.3000 
    211 H211       -6.8427  -26.4936  -47.8533 H         1 UNK         0.0600 
    212 H212       -6.6417  -28.1471  -50.4284 H         1 UNK         0.0600 
    213 H213       -7.7928  -28.3882  -49.1207 H         1 UNK         0.0600 
    214 H214       -6.0841  -28.6765  -48.8416 H         1 UNK         0.0600 
    215 H215       -6.3297  -24.0794  -49.3487 H         1 UNK         0.3000 
    216 H216       -7.1521  -22.4416  -50.5784 H         1 UNK         0.0600 
    217 H217       -9.5519  -21.9529  -50.4532 H         1 UNK         0.0600 
    218 H218       -9.0035  -22.5757  -48.9068 H         1 UNK         0.0600 
    219 H219       -9.9166  -23.6130  -50.0026 H         1 UNK         0.0600 
    220 H220       -6.5946  -25.1130  -51.9562 H         1 UNK         0.3000 
    221 H221       -8.2669  -24.8459  -54.4268 H         1 UNK         0.0600 
    222 H222       -6.9313  -27.2991  -53.1636 H         1 UNK         0.0600 
    223 H223       -8.6540  -26.9371  -53.1608 H         1 UNK         0.0600 
    224 H224       -7.8338  -27.2857  -54.6759 H         1 UNK         0.0600 
    225 H225       -4.9730  -25.7887  -53.2541 H         1 UNK         0.3000 
    226 H226       -3.8233  -25.5527  -55.9265 H         1 UNK         0.0600 
    227 H227       -2.9779  -27.2376  -54.3445 H         1 UNK         0.0600 
    228 H228       -1.7006  -26.0957  -54.7295 H         1 UNK         0.0600 
    229 H229       -2.5318  -25.9933  -53.1839 H         1 UNK         0.0600 
    230 H230       -4.4038  -23.3835  -53.2890 H         1 UNK         0.3000 
    231 H231       -3.6093  -21.0549  -54.6632 H         1 UNK         0.0600 
    232 H232       -1.2936  -21.6832  -53.8745 H         1 UNK         0.0600 
    233 H233       -1.8945  -21.8676  -52.2286 H         1 UNK         0.0600 
    234 H234       -1.8775  -20.2847  -52.9910 H         1 UNK         0.0600 
    235 H235       -4.2604  -19.1779  -53.3166 H         1 UNK         0.3000 
    236 H236       -5.6295  -19.5957  -50.8000 H         1 UNK         0.0600 
    237 H237       -7.8297  -18.7203  -51.5959 H         1 UNK         0.0600 
    238 H238       -7.2602  -18.7644  -53.2619 H         1 UNK         0.0600 
    239 H239       -7.4604  -20.2608  -52.3519 H         1 UNK         0.0600 
    240 H240       -3.3960  -18.3749  -51.0088 H         1 UNK         0.3000 
    241 H241       -3.4835  -15.7130  -52.1059 H         1 UNK         0.0600 
    242 H242       -4.9338  -14.4753  -48.9747 H         1 UNK         0.3800 
    243 H243       -5.4375  -15.4747  -50.3272 H         1 UNK         0.3800 
    244 H244       -1.0450  -16.5062  -50.5470 H         1 UNK         0.0800 
    245 H245       -1.4936  -17.6144  -51.7939 H         1 UNK         0.0800 
    246 H246        0.8805  -13.9607  -52.5857 H         1 UNK         0.0800 
    247 H247        0.2033  -14.3197  -51.0219 H         1 UNK         0.0800 
@<TRIPOS>BOND
     1    1    2 1    
     2    1  127 1    
     3    1  128 1    
     4    1  129 1    
     5    2    3 2    
     6    2    4 am   BACKBONE|DICT|INTERRES
     7    4    5 1    
     8    4  130 1    
     9    5    6 1    
    10    5   65 1    
    11    5  131 1    
    12    6    7 1    
    13    6  132 1    
    14    6  133 1    
    15    7    8 1    
    16    8    9 1    
    17    8  134 1    
    18    8  135 1    
    19    9   10 ar   
    20    9   14 ar   
    21   10   11 ar   
    22   10  136 1    
    23   11   12 ar   
    24   11  126 1    
    25   12   13 ar   
    26   12  137 1    
    27   13   14 ar   
    28   13   15 1    
    29   14  138 1    
    30   15   16 1    
    31   15  139 1    
    32   15  140 1    
    33   16   17 1    
    34   17   18 1    
    35   17  141 1    
    36   17  142 1    
    37   18   19 1    
    38   18   67 1    
    39   18  143 1    
    40   19   20 am   BACKBONE|DICT|INTERRES
    41   19  144 1    
    42   20   21 2    
    43   20   22 1    
    44   22   23 1    
    45   22   24 1    
    46   22  145 1    
    47   23  146 1    
    48   23  147 1    
    49   23  148 1    
    50   24   25 am   BACKBONE|DICT|INTERRES
    51   24  149 1    
    52   25   26 2    
    53   25   27 1    
    54   27   28 1    
    55   27   29 1    
    56   27  150 1    
    57   28  151 1    
    58   28  152 1    
    59   28  153 1    
    60   29   30 am   BACKBONE|DICT|INTERRES
    61   29  154 1    
    62   30   31 2    
    63   30   32 1    
    64   32   33 1    
    65   32   34 1    
    66   32  155 1    
    67   33  156 1    
    68   33  157 1    
    69   33  158 1    
    70   34   35 am   BACKBONE|DICT|INTERRES
    71   34  159 1    
    72   35   36 2    
    73   35   37 1    
    74   37   38 1    
    75   37   39 1    
    76   37  160 1    
    77   38  161 1    
    78   38  162 1    
    79   38  163 1    
    80   39   40 am   BACKBONE|DICT|INTERRES
    81   39  164 1    
    82   40   41 2    
    83   40   42 1    
    84   42   43 1    
    85   42   44 1    
    86   42  165 1    
    87   43  166 1    
    88   43  167 1    
    89   43  168 1    
    90   44   45 am   BACKBONE|DICT|INTERRES
    91   44  169 1    
    92   45   46 2    
    93   45   47 1    
    94   47   48 1    
    95   47   49 1    
    96   47  170 1    
    97   48  171 1    
    98   48  172 1    
    99   48  173 1    
   100   49   50 am   BACKBONE|DICT|INTERRES
   101   49  174 1    
   102   50   51 2    
   103   50   52 1    
   104   52   53 1    
   105   52   54 1    
   106   52  175 1    
   107   53  176 1    
   108   53  177 1    
   109   53  178 1    
   110   54   55 am   BACKBONE|DICT|INTERRES
   111   54  179 1    
   112   55   56 2    
   113   55   57 1    
   114   57   58 1    
   115   57   59 1    
   116   57  180 1    
   117   58  181 1    
   118   58  182 1    
   119   58  183 1    
   120   59   60 am   BACKBONE|DICT|INTERRES
   121   59  184 1    
   122   60   61 2    
   123   60   62 1    
   124   62   63 1    
   125   62   64 1    
   126   62  185 1    
   127   63  186 1    
   128   63  187 1    
   129   63  188 1    
   130   64   65 am   BACKBONE|DICT|INTERRES
   131   64  189 1    
   132   65   66 2    
   133   67   68 2    
   134   67   69 am   BACKBONE|DICT|INTERRES
   135   69   70 1    
   136   69  190 1    
   137   70   71 1    
   138   70   72 1    
   139   70  191 1    
   140   71  192 1    
   141   71  193 1    
   142   71  194 1    
   143   72   73 2    
   144   72   74 am   BACKBONE|DICT|INTERRES
   145   74   75 1    
   146   74  195 1    
   147   75   76 1    
   148   75   77 1    
   149   75  196 1    
   150   76  197 1    
   151   76  198 1    
   152   76  199 1    
   153   77   78 2    
   154   77   79 am   BACKBONE|DICT|INTERRES
   155   79   80 1    
   156   79  200 1    
   157   80   81 1    
   158   80   82 1    
   159   80  201 1    
   160   81  202 1    
   161   81  203 1    
   162   81  204 1    
   163   82   83 2    
   164   82   84 am   BACKBONE|DICT|INTERRES
   165   84   85 1    
   166   84  205 1    
   167   85   86 1    
   168   85   87 1    
   169   85  206 1    
   170   86  207 1    
   171   86  208 1    
   172   86  209 1    
   173   87   88 2    
   174   87   89 am   BACKBONE|DICT|INTERRES
   175   89   90 1    
   176   89  210 1    
   177   90   91 1    
   178   90   92 1    
   179   90  211 1    
   180   91  212 1    
   181   91  213 1    
   182   91  214 1    
   183   92   93 2    
   184   92   94 am   BACKBONE|DICT|INTERRES
   185   94   95 1    
   186   94  215 1    
   187   95   96 1    
   188   95   97 1    
   189   95  216 1    
   190   96  217 1    
   191   96  218 1    
   192   96  219 1    
   193   97   98 2    
   194   97   99 am   BACKBONE|DICT|INTERRES
   195   99  100 1    
   196   99  220 1    
   197  100  101 1    
   198  100  102 1    
   199  100  221 1    
   200  101  222 1    
   201  101  223 1    
   202  101  224 1    
   203  102  103 2    
   204  102  104 am   BACKBONE|DICT|INTERRES
   205  104  105 1    
   206  104  225 1    
   207  105  106 1    
   208  105  107 1    
   209  105  226 1    
   210  106  227 1    
   211  106  228 1    
   212  106  229 1    
   213  107  108 2    
   214  107  109 am   BACKBONE|DICT|INTERRES
   215  109  110 1    
   216  109  230 1    
   217  110  111 1    
   218  110  112 1    
   219  110  231 1    
   220  111  232 1    
   221  111  233 1    
   222  111  234 1    
   223  112  113 2    
   224  112  114 am   BACKBONE|DICT|INTERRES
   225  114  115 1    
   226  114  235 1    
   227  115  116 1    
   228  115  117 1    
   229  115  236 1    
   230  116  237 1    
   231  116  238 1    
   232  116  239 1    
   233  117  118 2    
   234  117  119 am   BACKBONE|DICT|INTERRES
   235  119  120 1    
   236  119  240 1    
   237  120  121 1    
   238  120  124 1    
   239  120  241 1    
   240  121  122 am   BACKBONE|DICT|INTERRES
   241  121  123 2    
   242  122  242 1    
   243  122  243 1    
   244  124  125 1    
   245  124  244 1    
   246  124  245 1    
   247  125  126 1    
   248  126  246 1    
   249  126  247 1    
@<TRIPOS>SUBSTRUCTURE
     1 UNK         1 GROUP             0       ****    0 ROOT    
