@<TRIPOS>MOLECULE
3R540
247   249    1
SMALL
USER_CHARGES


@<TRIPOS>ATOM
      1 CA          0.5100   -9.7455  -54.1366 C.3       0 UNK        -0.1800 
      2 C           1.8760   -9.7014  -53.4667 C.2       0 UNK         0.5000 
      3 O           2.3436   -8.6238  -53.0983 O.2       0 UNK        -0.5000 
      4 N           2.5162  -10.8671  -53.3112 N.am      1 UNK        -0.5000 
      5 CA          3.8240  -11.0386  -52.6644 C.3       1 UNK         0.1400 
      6 C6          4.4616  -12.4160  -52.9923 C.3       23 UNK        -0.0398 
      7 S7          3.3434  -13.8445  -52.7541 S.3       23 UNK        -0.2404 
      8 C8          3.9398  -14.5000  -51.1654 C.3       23 UNK        -0.0205 
      9 C9          2.9293  -15.4514  -50.5455 C.ar      23 UNK        -0.0193 
     10 C10         1.6741  -14.9753  -50.1527 C.ar      23 UNK        -0.1150 
     11 C11         0.7243  -15.8479  -49.6198 C.ar      23 UNK        -0.0193 
     12 C12         1.0550  -17.1911  -49.4423 C.ar      23 UNK        -0.1150 
     13 C13         2.3008  -17.6898  -49.8315 C.ar      23 UNK        -0.0193 
     14 C14         3.2364  -16.8065  -50.3814 C.ar      23 UNK        -0.1150 
     15 C15         2.6183  -19.1826  -49.7480 C.3       23 UNK        -0.0205 
     16 S16         2.1975  -19.9549  -48.1474 S.3       23 UNK        -0.2404 
     17 C17         0.4047  -20.2771  -48.3057 C.3       23 UNK        -0.0398 
     18 CA         -0.0042  -21.6909  -47.8418 C.3       11 UNK         0.1400 
     19 N           0.2270  -21.8782  -46.4051 N.am      11 UNK        -0.5000 
     20 C           0.1137  -23.0385  -45.7464 C.2       10 UNK         0.5000 
     21 O          -0.1598  -24.1077  -46.2900 O.2       10 UNK        -0.5000 
     22 CA          0.2700  -22.9820  -44.2154 C.3       10 UNK         0.1400 
     23 CB          1.7497  -22.9556  -43.8040 C.3       10 UNK        -0.1800 
     24 N          -0.4329  -21.8360  -43.6341 N.am      10 UNK        -0.5000 
     25 C          -1.7678  -21.7141  -43.6075 C.2       9 UNK         0.5000 
     26 O          -2.5355  -22.5814  -44.0244 O.2       9 UNK        -0.5000 
     27 CA         -2.3458  -20.3916  -43.0689 C.3       9 UNK         0.1400 
     28 CB         -2.4176  -20.4158  -41.5353 C.3       9 UNK        -0.1800 
     29 N          -1.5943  -19.2158  -43.5116 N.am      9 UNK        -0.5000 
     30 C          -1.4823  -18.8243  -44.7896 C.2       8 UNK         0.5000 
     31 O          -2.0566  -19.3803  -45.7232 O.2       8 UNK        -0.5000 
     32 CA         -0.5226  -17.6585  -45.0904 C.3       8 UNK         0.1400 
     33 CB         -1.2221  -16.3053  -44.9003 C.3       8 UNK        -0.1800 
     34 N           0.6941  -17.7001  -44.2813 N.am      8 UNK        -0.5000 
     35 C           1.5797  -18.7051  -44.2718 C.2       7 UNK         0.5000 
     36 O           1.4684  -19.7191  -44.9570 O.2       7 UNK        -0.5000 
     37 CA          2.7439  -18.5895  -43.2764 C.3       7 UNK         0.1400 
     38 CB          3.8221  -17.6184  -43.7805 C.3       7 UNK        -0.1800 
     39 N           2.2737  -18.1668  -41.9588 N.am      7 UNK        -0.5000 
     40 C           1.5817  -18.9485  -41.1191 C.2       6 UNK         0.5000 
     41 O           1.3137  -20.1288  -41.3470 O.2       6 UNK        -0.5000 
     42 CA          1.0843  -18.2902  -39.8183 C.3       6 UNK         0.1400 
     43 CB          2.1753  -18.3352  -38.7381 C.3       6 UNK        -0.1800 
     44 N           0.6506  -16.9041  -40.0106 N.am      6 UNK        -0.5000 
     45 C          -0.4390  -16.5466  -40.7041 C.2       5 UNK         0.5000 
     46 O          -1.1952  -17.3501  -41.2490 O.2       5 UNK        -0.5000 
     47 CA         -0.7060  -15.0355  -40.8514 C.3       5 UNK         0.1400 
     48 CB         -1.4324  -14.4934  -39.6112 C.3       5 UNK        -0.1800 
     49 N           0.4910  -14.2247  -41.1078 N.am      5 UNK        -0.5000 
     50 C           1.3428  -14.4180  -42.1230 C.2       4 UNK         0.5000 
     51 O           1.2786  -15.3792  -42.8901 O.2       4 UNK        -0.5000 
     52 CA          2.4790  -13.3933  -42.2928 C.3       4 UNK         0.1400 
     53 CB          3.6365  -13.7219  -41.3370 C.3       4 UNK        -0.1800 
     54 N           2.9889  -13.3983  -43.6658 N.am      4 UNK        -0.5000 
     55 C           2.3097  -12.9596  -44.7330 C.2       3 UNK         0.5000 
     56 O           1.2335  -12.3576  -44.6694 O.2       3 UNK        -0.5000 
     57 CA          2.9310  -13.2708  -46.1009 C.3       3 UNK         0.1400 
     58 CB          2.6113  -14.7129  -46.5381 C.3       3 UNK        -0.1800 
     59 N           2.4060  -12.3377  -47.0926 N.am      3 UNK        -0.5000 
     60 C           3.0751  -11.8987  -48.1621 C.2       2 UNK         0.5000 
     61 O           4.2368  -12.2263  -48.4085 O.2       2 UNK        -0.5000 
     62 CA          2.3066  -10.9263  -49.0824 C.3       2 UNK         0.1400 
     63 CB          2.4538   -9.4696  -48.6014 C.3       2 UNK        -0.1800 
     64 N           2.6412  -11.0561  -50.5079 N.am      2 UNK        -0.5000 
     65 C           3.7886  -10.7623  -51.1429 C.2       1 UNK         0.5000 
     66 O           4.7817  -10.2696  -50.6059 O.2       1 UNK        -0.5000 
     67 C          -1.4679  -21.9750  -48.2483 C.2       11 UNK         0.5000 
     68 O          -1.7035  -22.4266  -49.3702 O.2       11 UNK        -0.5000 
     69 N          -2.4238  -21.7075  -47.3473 N.am      12 UNK        -0.5000 
     70 CA         -3.8276  -22.0800  -47.4951 C.3       12 UNK         0.1400 
     71 CB         -4.7044  -21.3032  -46.5026 C.3       12 UNK        -0.1800 
     72 C          -4.0180  -23.5951  -47.3559 C.2       12 UNK         0.5000 
     73 O          -4.5978  -24.2092  -48.2512 O.2       12 UNK        -0.5000 
     74 N          -3.4882  -24.1771  -46.2703 N.am      13 UNK        -0.5000 
     75 CA         -3.5441  -25.6111  -45.9695 C.3       13 UNK         0.1400 
     76 CB         -2.8801  -25.8786  -44.6113 C.3       13 UNK        -0.1800 
     77 C          -2.9197  -26.4963  -47.0644 C.2       13 UNK         0.5000 
     78 O          -3.4723  -27.5515  -47.3763 O.2       13 UNK        -0.5000 
     79 N          -1.8287  -26.0183  -47.6790 N.am      14 UNK        -0.5000 
     80 CA         -1.1571  -26.6332  -48.8280 C.3       14 UNK         0.1400 
     81 CB          0.1065  -25.8231  -49.1570 C.3       14 UNK        -0.1800 
     82 C          -2.0442  -26.7668  -50.0845 C.2       14 UNK         0.5000 
     83 O          -1.7904  -27.6458  -50.9088 O.2       14 UNK        -0.5000 
     84 N          -3.0688  -25.9126  -50.1992 N.am      15 UNK        -0.5000 
     85 CA         -4.0676  -25.9157  -51.2675 C.3       15 UNK         0.1400 
     86 CB         -4.1569  -24.4921  -51.8404 C.3       15 UNK        -0.1800 
     87 C          -5.4465  -26.3813  -50.7559 C.2       15 UNK         0.5000 
     88 O          -6.4448  -26.1591  -51.4421 O.2       15 UNK        -0.5000 
     89 N          -5.5015  -26.9610  -49.5448 N.am      16 UNK        -0.5000 
     90 CA         -6.7032  -27.4087  -48.8259 C.3       16 UNK         0.1400 
     91 CB         -7.3135  -28.6425  -49.5223 C.3       16 UNK        -0.1800 
     92 C          -7.7426  -26.2876  -48.5870 C.2       16 UNK         0.5000 
     93 O          -8.9395  -26.5660  -48.4989 O.2       16 UNK        -0.5000 
     94 N          -7.2613  -25.0371  -48.5120 N.am      17 UNK        -0.5000 
     95 CA         -8.0071  -23.7799  -48.4003 C.3       17 UNK         0.1400 
     96 CB         -8.7312  -23.6937  -47.0415 C.3       17 UNK        -0.1800 
     97 C          -8.9399  -23.4854  -49.5980 C.2       17 UNK         0.5000 
     98 O          -9.8530  -22.6688  -49.4671 O.2       17 UNK        -0.5000 
     99 N          -8.6973  -24.1301  -50.7501 N.am      18 UNK        -0.5000 
    100 CA        -9.5211  -24.0001  -51.9557 C.3       18 UNK         0.1400 
    101 CB        -9.2904  -25.2258  -52.8527 C.3       18 UNK        -0.1800 
    102 C         -9.2576  -22.7036  -52.7462 C.2       18 UNK         0.5000 
    103 O        -10.1197  -22.2878  -53.5217 O.2       18 UNK        -0.5000 
    104 N         -8.0817  -22.0953  -52.5465 N.am      19 UNK        -0.5000 
    105 CA        -7.6396  -20.8682  -53.2150 C.3       19 UNK         0.1400 
    106 CB        -7.2854  -21.1490  -54.6888 C.3       19 UNK        -0.1800 
    107 C         -6.4418  -20.2280  -52.4951 C.2       19 UNK         0.5000 
    108 O         -6.3336  -19.0018  -52.4956 O.2       19 UNK        -0.5000 
    109 N         -5.5861  -21.0739  -51.8978 N.am      20 UNK        -0.5000 
    110 CA        -4.2968  -20.7763  -51.2596 C.3       20 UNK         0.1400 
    111 CB        -4.3822  -19.6240  -50.2366 C.3       20 UNK        -0.1800 
    112 C         -3.1728  -20.5424  -52.2825 C.2       20 UNK         0.5000 
    113 O         -3.4142  -20.0651  -53.3920 O.2       20 UNK        -0.5000 
    114 N         -1.9453  -20.8839  -51.8758 N.am      21 UNK        -0.5000 
    115 CA        -0.7283  -20.8018  -52.6882 C.3       21 UNK         0.1400 
    116 CB         0.2930  -21.8125  -52.1341 C.3       21 UNK        -0.1800 
    117 C         -0.1306  -19.3795  -52.8180 C.2       21 UNK         0.5000 
    118 O          1.0273  -19.2546  -53.2195 O.2       21 UNK        -0.5000 
    119 N         -0.9014  -18.3380  -52.4754 N.am      22 UNK        -0.5000 
    120 CA        -0.5242  -16.9220  -52.6127 C.3       22 UNK         0.1400 
    121 C         -0.2865  -16.4953  -54.0883 C.2       22 UNK         0.5000 
    122 N          0.7245  -15.6782  -54.3522 N.am      22 UNK        -0.7600 
    123 O         -1.0389  -16.8605  -54.9889 O.2       22 UNK        -0.5000 
    124 C124       -1.5546  -15.9668  -51.9466 C.3       23 UNK        -0.0398 
    125 S125       -1.9428  -16.3519  -50.2013 S.3       23 UNK        -0.2404 
    126 C126       -0.6863  -15.3726  -49.3044 C.3       23 UNK        -0.0205 
    127 H127       -0.2504   -9.3482  -53.4642 H         1 UNK         0.0600 
    128 H128        0.2247  -10.7618  -54.4097 H         1 UNK         0.0600 
    129 H129        0.5164   -9.1392  -55.0424 H         1 UNK         0.0600 
    130 H130        2.0873  -11.7201  -53.6425 H         1 UNK         0.3000 
    131 H131        4.4854  -10.2798  -53.0887 H         1 UNK         0.0600 
    132 H132        4.7616  -12.4212  -54.0410 H         1 UNK         0.0800 
    133 H133        5.3861  -12.5651  -52.4311 H         1 UNK         0.0800 
    134 H134        4.1232  -13.6815  -50.4737 H         1 UNK         0.0800 
    135 H135        4.9003  -14.9939  -51.3203 H         1 UNK         0.0800 
    136 H136        1.4281  -13.9335  -50.2983 H         1 UNK         0.1150 
    137 H137        0.2970  -17.8463  -49.0543 H         1 UNK         0.1150 
    138 H138        4.1987  -17.1784  -50.7040 H         1 UNK         0.1150 
    139 H139        2.1110  -19.7026  -50.5604 H         1 UNK         0.0800 
    140 H140        3.6851  -19.3403  -49.9130 H         1 UNK         0.0800 
    141 H141        0.1093  -20.1161  -49.3435 H         1 UNK         0.0800 
    142 H142       -0.1308  -19.5338  -47.7150 H         1 UNK         0.0800 
    143 H143        0.6158  -22.4173  -48.3714 H         1 UNK         0.0600 
    144 H144        0.5238  -21.0549  -45.8852 H         1 UNK         0.3000 
    145 H145       -0.1729  -23.8908  -43.8029 H         1 UNK         0.0600 
    146 H146        1.8565  -22.9441  -42.7191 H         1 UNK         0.0600 
    147 H147        2.2701  -23.8397  -44.1739 H         1 UNK         0.0600 
    148 H148        2.2691  -22.0830  -44.1991 H         1 UNK         0.0600 
    149 H149        0.1378  -21.0757  -43.2880 H         1 UNK         0.3000 
    150 H150       -3.3639  -20.2977  -43.4522 H         1 UNK         0.0600 
    151 H151       -2.9731  -21.2859  -41.1831 H         1 UNK         0.0600 
    152 H152       -2.9246  -19.5305  -41.1513 H         1 UNK         0.0600 
    153 H153       -1.4252  -20.4544  -41.0855 H         1 UNK         0.0600 
    154 H154       -1.1443  -18.6637  -42.7888 H         1 UNK         0.3000 
    155 H155       -0.2198  -17.7362  -46.1361 H         1 UNK         0.0600 
    156 H156       -1.5372  -16.1592  -43.8669 H         1 UNK         0.0600 
    157 H157       -2.1096  -16.2329  -45.5300 H         1 UNK         0.0600 
    158 H158       -0.5630  -15.4792  -45.1686 H         1 UNK         0.0600 
    159 H159        0.8748  -16.8869  -43.6935 H         1 UNK         0.3000 
    160 H160        3.1995  -19.5778  -43.1829 H         1 UNK         0.0600 
    161 H161        3.4597  -16.5919  -43.8149 H         1 UNK         0.0600 
    162 H162        4.1508  -17.8866  -44.7855 H         1 UNK         0.0600 
    163 H163        4.6997  -17.6388  -43.1344 H         1 UNK         0.0600 
    164 H164        2.3843  -17.1899  -41.7299 H         1 UNK         0.3000 
    165 H165        0.2286  -18.8680  -39.4620 H         1 UNK         0.0600 
    166 H166        1.8070  -17.9444  -37.7893 H         1 UNK         0.0600 
    167 H167        2.5057  -19.3595  -38.5601 H         1 UNK         0.0600 
    168 H168        3.0517  -17.7524  -39.0245 H         1 UNK         0.0600 
    169 H169        1.2231  -16.1804  -39.6015 H         1 UNK         0.3000 
    170 H170       -1.3685  -14.9088  -41.7098 H         1 UNK         0.0600 
    171 H171       -2.3374  -15.0672  -39.4062 H         1 UNK         0.0600 
    172 H172       -0.8034  -14.5433  -38.7215 H         1 UNK         0.0600 
    173 H173       -1.7337  -13.4553  -39.7522 H         1 UNK         0.0600 
    174 H174        0.6245  -13.4246  -40.5062 H         1 UNK         0.3000 
    175 H175        2.0943  -12.3974  -42.0633 H         1 UNK         0.0600 
    176 H176        4.0478  -14.7142  -41.5279 H         1 UNK         0.0600 
    177 H177        4.4464  -12.9988  -41.4358 H         1 UNK         0.0600 
    178 H178        3.3078  -13.6975  -40.2973 H         1 UNK         0.0600 
    179 H179        3.8501  -13.9027  -43.8144 H         1 UNK         0.3000 
    180 H180        4.0129  -13.1493  -46.0127 H         1 UNK         0.0600 
    181 H181        3.0895  -14.9531  -47.4877 H         1 UNK         0.0600 
    182 H182        1.5384  -14.8693  -46.6561 H         1 UNK         0.0600 
    183 H183        2.9675  -15.4376  -45.8071 H         1 UNK         0.0600 
    184 H184        1.4819  -11.9828  -46.8811 H         1 UNK         0.3000 
    185 H185        1.2492  -11.1878  -49.0151 H         1 UNK         0.0600 
    186 H186        3.4956   -9.1488  -48.5832 H         1 UNK         0.0600 
    187 H187        1.9021   -8.7837  -49.2444 H         1 UNK         0.0600 
    188 H188        2.0629   -9.3527  -47.5901 H         1 UNK         0.0600 
    189 H189        1.9090  -11.4517  -51.0795 H         1 UNK         0.3000 
    190 H190       -2.1692  -21.2207  -46.4944 H         1 UNK         0.3000 
    191 H191       -4.1543  -21.8055  -48.4952 H         1 UNK         0.0600 
    192 H192       -4.4374  -21.5116  -45.4677 H         1 UNK         0.0600 
    193 H193       -5.7565  -21.5620  -46.6272 H         1 UNK         0.0600 
    194 H194       -4.6137  -20.2282  -46.6595 H         1 UNK         0.0600 
    195 H195       -3.0391  -23.5901  -45.5718 H         1 UNK         0.3000 
    196 H196       -4.5985  -25.8840  -45.8918 H         1 UNK         0.0600 
    197 H197       -2.9381  -26.9356  -44.3484 H         1 UNK         0.0600 
    198 H198       -3.3706  -25.3181  -43.8153 H         1 UNK         0.0600 
    199 H199       -1.8266  -25.5985  -44.6172 H         1 UNK         0.0600 
    200 H200       -1.4006  -25.1745  -47.3064 H         1 UNK         0.3000 
    201 H201       -0.8542  -27.6398  -48.5334 H         1 UNK         0.0600 
    202 H202        0.7912  -25.7973  -48.3092 H         1 UNK         0.0600 
    203 H203       -0.1362  -24.7937  -49.4237 H         1 UNK         0.0600 
    204 H204        0.6472  -26.2616  -49.9967 H         1 UNK         0.0600 
    205 H205       -3.2247  -25.2372  -49.4593 H         1 UNK         0.3000 
    206 H206       -3.7724  -26.5931  -52.0707 H         1 UNK         0.0600 
    207 H207       -3.1751  -24.1125  -52.1252 H         1 UNK         0.0600 
    208 H208       -4.7891  -24.4626  -52.7287 H         1 UNK         0.0600 
    209 H209       -4.5842  -23.8116  -51.1059 H         1 UNK         0.0600 
    210 H210       -4.6320  -27.0857  -49.0383 H         1 UNK         0.3000 
    211 H211       -6.3654  -27.7202  -47.8366 H         1 UNK         0.0600 
    212 H212       -7.7309  -28.3905  -50.4977 H         1 UNK         0.0600 
    213 H213       -8.1166  -29.0745  -48.9243 H         1 UNK         0.0600 
    214 H214       -6.5658  -29.4220  -49.6685 H         1 UNK         0.0600 
    215 H215       -6.2513  -24.9197  -48.5679 H         1 UNK         0.3000 
    216 H216       -7.2547  -22.9903  -48.4164 H         1 UNK         0.0600 
    217 H217       -9.1557  -22.7015  -46.8844 H         1 UNK         0.0600 
    218 H218       -8.0437  -23.8836  -46.2172 H         1 UNK         0.0600 
    219 H219       -9.5476  -24.4128  -46.9713 H         1 UNK         0.0600 
    220 H220       -7.9398  -24.8038  -50.7924 H         1 UNK         0.3000 
    221 H221      -10.5718  -23.9960  -51.6577 H         1 UNK         0.0600 
    222 H222       -8.2673  -25.2620  -53.2287 H         1 UNK         0.0600 
    223 H223       -9.4823  -26.1534  -52.3128 H         1 UNK         0.0600 
    224 H224       -9.9556  -25.2080  -53.7169 H         1 UNK         0.0600 
    225 H225       -7.4791  -22.4681  -51.8294 H         1 UNK         0.3000 
    226 H226       -8.4579  -20.1456  -53.1824 H         1 UNK         0.0600 
    227 H227       -8.1548  -21.4825  -55.2550 H         1 UNK         0.0600 
    228 H228       -6.9103  -20.2495  -55.1787 H         1 UNK         0.0600 
    229 H229       -6.5146  -21.9156  -54.7760 H         1 UNK         0.0600 
    230 H230       -5.7439  -22.0561  -52.0584 H         1 UNK         0.3000 
    231 H231       -4.0346  -21.6788  -50.7115 H         1 UNK         0.0600 
    232 H232       -5.2197  -19.7598  -49.5524 H         1 UNK         0.0600 
    233 H233       -4.4949  -18.6529  -50.7190 H         1 UNK         0.0600 
    234 H234       -3.4747  -19.5733  -49.6332 H         1 UNK         0.0600 
    235 H235       -1.8376  -21.3159  -50.9624 H         1 UNK         0.3000 
    236 H236       -0.9781  -21.1185  -53.7029 H         1 UNK         0.0600 
    237 H237        1.1880  -21.8546  -52.7558 H         1 UNK         0.0600 
    238 H238        0.6077  -21.5596  -51.1227 H         1 UNK         0.0600 
    239 H239       -0.1255  -22.8190  -52.1076 H         1 UNK         0.0600 
    240 H240       -1.8513  -18.5185  -52.1896 H         1 UNK         0.3000 
    241 H241        0.4304  -16.8104  -52.1015 H         1 UNK         0.0600 
    242 H242        0.8773  -15.3853  -55.3045 H         1 UNK         0.3800 
    243 H243        1.3612  -15.3683  -53.6330 H         1 UNK         0.3800 
    244 H244       -1.2039  -14.9346  -52.0022 H         1 UNK         0.0800 
    245 H245       -2.4956  -15.9921  -52.4991 H         1 UNK         0.0800 
    246 H246       -0.8097  -14.3163  -49.5479 H         1 UNK         0.0800 
    247 H247       -0.8595  -15.4680  -48.2317 H         1 UNK         0.0800 
@<TRIPOS>BOND
     1    1    2 1    
     2    1  127 1    
     3    1  128 1    
     4    1  129 1    
     5    2    3 2    
     6    2    4 am   BACKBONE|DICT|INTERRES
     7    4    5 1    
     8    4  130 1    
     9    5    6 1    
    10    5   65 1    
    11    5  131 1    
    12    6    7 1    
    13    6  132 1    
    14    6  133 1    
    15    7    8 1    
    16    8    9 1    
    17    8  134 1    
    18    8  135 1    
    19    9   10 ar   
    20    9   14 ar   
    21   10   11 ar   
    22   10  136 1    
    23   11   12 ar   
    24   11  126 1    
    25   12   13 ar   
    26   12  137 1    
    27   13   14 ar   
    28   13   15 1    
    29   14  138 1    
    30   15   16 1    
    31   15  139 1    
    32   15  140 1    
    33   16   17 1    
    34   17   18 1    
    35   17  141 1    
    36   17  142 1    
    37   18   19 1    
    38   18   67 1    
    39   18  143 1    
    40   19   20 am   BACKBONE|DICT|INTERRES
    41   19  144 1    
    42   20   21 2    
    43   20   22 1    
    44   22   23 1    
    45   22   24 1    
    46   22  145 1    
    47   23  146 1    
    48   23  147 1    
    49   23  148 1    
    50   24   25 am   BACKBONE|DICT|INTERRES
    51   24  149 1    
    52   25   26 2    
    53   25   27 1    
    54   27   28 1    
    55   27   29 1    
    56   27  150 1    
    57   28  151 1    
    58   28  152 1    
    59   28  153 1    
    60   29   30 am   BACKBONE|DICT|INTERRES
    61   29  154 1    
    62   30   31 2    
    63   30   32 1    
    64   32   33 1    
    65   32   34 1    
    66   32  155 1    
    67   33  156 1    
    68   33  157 1    
    69   33  158 1    
    70   34   35 am   BACKBONE|DICT|INTERRES
    71   34  159 1    
    72   35   36 2    
    73   35   37 1    
    74   37   38 1    
    75   37   39 1    
    76   37  160 1    
    77   38  161 1    
    78   38  162 1    
    79   38  163 1    
    80   39   40 am   BACKBONE|DICT|INTERRES
    81   39  164 1    
    82   40   41 2    
    83   40   42 1    
    84   42   43 1    
    85   42   44 1    
    86   42  165 1    
    87   43  166 1    
    88   43  167 1    
    89   43  168 1    
    90   44   45 am   BACKBONE|DICT|INTERRES
    91   44  169 1    
    92   45   46 2    
    93   45   47 1    
    94   47   48 1    
    95   47   49 1    
    96   47  170 1    
    97   48  171 1    
    98   48  172 1    
    99   48  173 1    
   100   49   50 am   BACKBONE|DICT|INTERRES
   101   49  174 1    
   102   50   51 2    
   103   50   52 1    
   104   52   53 1    
   105   52   54 1    
   106   52  175 1    
   107   53  176 1    
   108   53  177 1    
   109   53  178 1    
   110   54   55 am   BACKBONE|DICT|INTERRES
   111   54  179 1    
   112   55   56 2    
   113   55   57 1    
   114   57   58 1    
   115   57   59 1    
   116   57  180 1    
   117   58  181 1    
   118   58  182 1    
   119   58  183 1    
   120   59   60 am   BACKBONE|DICT|INTERRES
   121   59  184 1    
   122   60   61 2    
   123   60   62 1    
   124   62   63 1    
   125   62   64 1    
   126   62  185 1    
   127   63  186 1    
   128   63  187 1    
   129   63  188 1    
   130   64   65 am   BACKBONE|DICT|INTERRES
   131   64  189 1    
   132   65   66 2    
   133   67   68 2    
   134   67   69 am   BACKBONE|DICT|INTERRES
   135   69   70 1    
   136   69  190 1    
   137   70   71 1    
   138   70   72 1    
   139   70  191 1    
   140   71  192 1    
   141   71  193 1    
   142   71  194 1    
   143   72   73 2    
   144   72   74 am   BACKBONE|DICT|INTERRES
   145   74   75 1    
   146   74  195 1    
   147   75   76 1    
   148   75   77 1    
   149   75  196 1    
   150   76  197 1    
   151   76  198 1    
   152   76  199 1    
   153   77   78 2    
   154   77   79 am   BACKBONE|DICT|INTERRES
   155   79   80 1    
   156   79  200 1    
   157   80   81 1    
   158   80   82 1    
   159   80  201 1    
   160   81  202 1    
   161   81  203 1    
   162   81  204 1    
   163   82   83 2    
   164   82   84 am   BACKBONE|DICT|INTERRES
   165   84   85 1    
   166   84  205 1    
   167   85   86 1    
   168   85   87 1    
   169   85  206 1    
   170   86  207 1    
   171   86  208 1    
   172   86  209 1    
   173   87   88 2    
   174   87   89 am   BACKBONE|DICT|INTERRES
   175   89   90 1    
   176   89  210 1    
   177   90   91 1    
   178   90   92 1    
   179   90  211 1    
   180   91  212 1    
   181   91  213 1    
   182   91  214 1    
   183   92   93 2    
   184   92   94 am   BACKBONE|DICT|INTERRES
   185   94   95 1    
   186   94  215 1    
   187   95   96 1    
   188   95   97 1    
   189   95  216 1    
   190   96  217 1    
   191   96  218 1    
   192   96  219 1    
   193   97   98 2    
   194   97   99 am   BACKBONE|DICT|INTERRES
   195   99  100 1    
   196   99  220 1    
   197  100  101 1    
   198  100  102 1    
   199  100  221 1    
   200  101  222 1    
   201  101  223 1    
   202  101  224 1    
   203  102  103 2    
   204  102  104 am   BACKBONE|DICT|INTERRES
   205  104  105 1    
   206  104  225 1    
   207  105  106 1    
   208  105  107 1    
   209  105  226 1    
   210  106  227 1    
   211  106  228 1    
   212  106  229 1    
   213  107  108 2    
   214  107  109 am   BACKBONE|DICT|INTERRES
   215  109  110 1    
   216  109  230 1    
   217  110  111 1    
   218  110  112 1    
   219  110  231 1    
   220  111  232 1    
   221  111  233 1    
   222  111  234 1    
   223  112  113 2    
   224  112  114 am   BACKBONE|DICT|INTERRES
   225  114  115 1    
   226  114  235 1    
   227  115  116 1    
   228  115  117 1    
   229  115  236 1    
   230  116  237 1    
   231  116  238 1    
   232  116  239 1    
   233  117  118 2    
   234  117  119 am   BACKBONE|DICT|INTERRES
   235  119  120 1    
   236  119  240 1    
   237  120  121 1    
   238  120  124 1    
   239  120  241 1    
   240  121  122 am   BACKBONE|DICT|INTERRES
   241  121  123 2    
   242  122  242 1    
   243  122  243 1    
   244  124  125 1    
   245  124  244 1    
   246  124  245 1    
   247  125  126 1    
   248  126  246 1    
   249  126  247 1    
@<TRIPOS>SUBSTRUCTURE
     1 UNK         1 GROUP             0       ****    0 ROOT    
