@<TRIPOS>MOLECULE
3R540
247   249    1
SMALL
USER_CHARGES


@<TRIPOS>ATOM
      1 CA          5.1769  -10.5475  -49.3290 C.3       0 UNK        -0.1800 
      2 C           3.9644  -11.2898  -49.8867 C.2       0 UNK         0.5000 
      3 O           3.4720  -10.9236  -50.9520 O.2       0 UNK        -0.5000 
      4 N           3.4511  -12.3345  -49.2244 N.am      1 UNK        -0.5000 
      5 CA          3.8529  -12.8402  -47.9094 C.3       1 UNK         0.1400 
      6 C6          3.5507  -14.3518  -47.7600 C.3       23 UNK        -0.0398 
      7 S7          4.7261  -15.3796  -48.7066 S.3       23 UNK        -0.2404 
      8 C8          3.8939  -15.5854  -50.3140 C.3       23 UNK        -0.0205 
      9 C9          2.7386  -16.5717  -50.2489 C.ar      23 UNK        -0.0193 
     10 C10         1.4223  -16.1141  -50.1315 C.ar      23 UNK        -0.1150 
     11 C11         0.3590  -17.0194  -50.1025 C.ar      23 UNK        -0.0193 
     12 C12         0.6207  -18.3901  -50.1746 C.ar      23 UNK        -0.1150 
     13 C13         1.9279  -18.8585  -50.3236 C.ar      23 UNK        -0.0193 
     14 C14         2.9845  -17.9445  -50.3529 C.ar      23 UNK        -0.1150 
     15 C15         2.1857  -20.3498  -50.4903 C.3       23 UNK        -0.0205 
     16 S16         3.0022  -21.1014  -49.0457 S.3       23 UNK        -0.2404 
     17 C17         1.8605  -20.6822  -47.6874 C.3       23 UNK        -0.0398 
     18 CA          0.8748  -21.8112  -47.3092 C.3       11 UNK         0.1400 
     19 N           0.3331  -21.5923  -45.9676 N.am      11 UNK        -0.5000 
     20 C          -0.4018  -22.4670  -45.2706 C.2       10 UNK         0.5000 
     21 O          -0.6624  -23.6040  -45.6614 O.2       10 UNK        -0.5000 
     22 CA         -0.9826  -21.9639  -43.9352 C.3       10 UNK         0.1400 
     23 CB          0.0544  -22.0788  -42.8085 C.3       10 UNK        -0.1800 
     24 N          -1.4714  -20.5847  -44.0214 N.am      10 UNK        -0.5000 
     25 C          -2.4999  -20.2002  -44.7913 C.2       9 UNK         0.5000 
     26 O          -3.1762  -20.9824  -45.4572 O.2       9 UNK        -0.5000 
     27 CA         -2.8005  -18.6931  -44.8722 C.3       9 UNK         0.1400 
     28 CB         -3.6251  -18.2349  -43.6606 C.3       9 UNK        -0.1800 
     29 N          -1.5911  -17.8780  -44.9867 N.am      9 UNK        -0.5000 
     30 C          -0.7439  -17.9086  -46.0255 C.2       8 UNK         0.5000 
     31 O          -0.9198  -18.6022  -47.0264 O.2       8 UNK        -0.5000 
     32 CA          0.5443  -17.0707  -45.8961 C.3       8 UNK         0.1400 
     33 CB          0.2759  -15.5909  -46.2080 C.3       8 UNK        -0.1800 
     34 N           1.1517  -17.1889  -44.5683 N.am      8 UNK        -0.5000 
     35 C           1.6131  -18.3349  -44.0463 C.2       7 UNK         0.5000 
     36 O           1.6294  -19.4042  -44.6525 O.2       7 UNK        -0.5000 
     37 CA          2.0752  -18.2964  -42.5814 C.3       7 UNK         0.1400 
     38 CB          3.5219  -17.7929  -42.4709 C.3       7 UNK        -0.1800 
     39 N           1.1868  -17.4722  -41.7621 N.am      7 UNK        -0.5000 
     40 C          -0.0608  -17.8291  -41.4220 C.2       6 UNK         0.5000 
     41 O          -0.5665  -18.9097  -41.7247 O.2       6 UNK        -0.5000 
     42 CA         -0.8978  -16.7887  -40.6540 C.3       6 UNK         0.1400 
     43 CB         -0.6068  -16.8651  -39.1481 C.3       6 UNK        -0.1800 
     44 N          -0.6665  -15.4221  -41.1243 N.am      6 UNK        -0.5000 
     45 C          -0.9952  -14.9735  -42.3443 C.2       5 UNK         0.5000 
     46 O          -1.5893  -15.6516  -43.1801 O.2       5 UNK        -0.5000 
     47 CA         -0.5381  -13.5492  -42.7122 C.3       5 UNK         0.1400 
     48 CB         -1.6285  -12.5246  -42.3683 C.3       5 UNK        -0.1800 
     49 N           0.7143  -13.1569  -42.0625 N.am      5 UNK        -0.5000 
     50 C           1.8967  -13.7608  -42.2277 C.2       4 UNK         0.5000 
     51 O           2.0604  -14.7257  -42.9771 O.2       4 UNK        -0.5000 
     52 CA          3.0743  -13.1935  -41.4045 C.3       4 UNK         0.1400 
     53 CB          4.3283  -14.0814  -41.4866 C.3       4 UNK        -0.1800 
     54 N           3.4389  -11.8337  -41.8058 N.am      4 UNK        -0.5000 
     55 C           2.7255  -10.7201  -41.5859 C.2       3 UNK         0.5000 
     56 O           1.6571  -10.7104  -40.9728 O.2       3 UNK        -0.5000 
     57 CA          3.2844   -9.3953  -42.1466 C.3       3 UNK         0.1400 
     58 CB          3.5420   -8.3962  -41.0071 C.3       3 UNK        -0.1800 
     59 N           4.5293   -9.5549  -42.9088 N.am      3 UNK        -0.5000 
     60 C           4.6870   -9.9636  -44.1759 C.2       2 UNK         0.5000 
     61 O           5.8114  -10.0835  -44.6668 O.2       2 UNK        -0.5000 
     62 CA          3.4613  -10.2907  -45.0525 C.3       2 UNK         0.1400 
     63 CB          2.9005   -9.0193  -45.7190 C.3       2 UNK        -0.1800 
     64 N           3.9038  -11.2249  -46.0805 N.am      2 UNK        -0.5000 
     65 C           3.1292  -12.0086  -46.8349 C.2       1 UNK         0.5000 
     66 O           1.9027  -12.0707  -46.7341 O.2       1 UNK        -0.5000 
     67 C          -0.2476  -21.9954  -48.3565 C.2       11 UNK         0.5000 
     68 O          -0.1519  -22.8920  -49.1943 O.2       11 UNK        -0.5000 
     69 N          -1.3150  -21.1873  -48.2637 N.am      12 UNK        -0.5000 
     70 CA         -2.5256  -21.3308  -49.0739 C.3       12 UNK         0.1400 
     71 CB         -3.4405  -20.1132  -48.8780 C.3       12 UNK        -0.1800 
     72 C          -3.2818  -22.6359  -48.7678 C.2       12 UNK         0.5000 
     73 O          -3.6801  -23.3335  -49.6971 O.2       12 UNK        -0.5000 
     74 N          -3.4315  -22.9766  -47.4801 N.am      13 UNK        -0.5000 
     75 CA         -4.0597  -24.2191  -47.0226 C.3       13 UNK         0.1400 
     76 CB         -4.1982  -24.2032  -45.4941 C.3       13 UNK        -0.1800 
     77 C          -3.3178  -25.4849  -47.4944 C.2       13 UNK         0.5000 
     78 O          -3.9650  -26.4807  -47.8200 O.2       13 UNK        -0.5000 
     79 N          -1.9825  -25.4109  -47.5789 N.am      14 UNK        -0.5000 
     80 CA         -1.1262  -26.4571  -48.1396 C.3       14 UNK         0.1400 
     81 CB          0.3454  -26.1321  -47.8431 C.3       14 UNK        -0.1800 
     82 C          -1.3475  -26.6904  -49.6490 C.2       14 UNK         0.5000 
     83 O          -1.1179  -27.8047  -50.1217 O.2       14 UNK        -0.5000 
     84 N          -1.8381  -25.6753  -50.3763 N.am      15 UNK        -0.5000 
     85 CA         -2.2418  -25.7606  -51.7814 C.3       15 UNK         0.1400 
     86 CB         -2.0892  -24.3805  -52.4473 C.3       15 UNK        -0.1800 
     87 C          -3.6675  -26.3389  -51.9101 C.2       15 UNK         0.5000 
     88 O          -4.5654  -25.6812  -52.4420 O.2       15 UNK        -0.5000 
     89 N          -3.8393  -27.5664  -51.3974 N.am      16 UNK        -0.5000 
     90 CA         -5.0462  -28.3986  -51.4328 C.3       16 UNK         0.1400 
     91 CB         -5.2764  -28.9294  -52.8626 C.3       16 UNK        -0.1800 
     92 C          -6.2880  -27.7059  -50.8328 C.2       16 UNK         0.5000 
     93 O          -7.3453  -27.6767  -51.4646 O.2       16 UNK        -0.5000 
     94 N          -6.1234  -27.1495  -49.6226 N.am      17 UNK        -0.5000 
     95 CA         -7.1200  -26.3861  -48.8618 C.3       17 UNK         0.1400 
     96 CB         -8.3181  -27.2734  -48.4613 C.3       17 UNK        -0.1800 
     97 C          -7.5325  -25.0827  -49.5767 C.2       17 UNK         0.5000 
     98 O          -8.7098  -24.7191  -49.5667 O.2       17 UNK        -0.5000 
     99 N          -6.5409  -24.4125  -50.1836 N.am      18 UNK        -0.5000 
    100 CA        -6.6514  -23.2056  -51.0050 C.3       18 UNK         0.1400 
    101 CB        -7.0766  -21.9905  -50.1549 C.3       18 UNK        -0.1800 
    102 C         -7.5382  -23.4388  -52.2416 C.2       18 UNK         0.5000 
    103 O         -8.5340  -22.7398  -52.4416 O.2       18 UNK        -0.5000 
    104 N         -7.1489  -24.4319  -53.0550 N.am      19 UNK        -0.5000 
    105 CA        -7.7909  -24.7683  -54.3312 C.3       19 UNK         0.1400 
    106 CB        -7.2123  -26.0905  -54.8543 C.3       19 UNK        -0.1800 
    107 C         -7.6489  -23.6544  -55.3892 C.2       19 UNK         0.5000 
    108 O         -8.4919  -23.5416  -56.2801 O.2       19 UNK        -0.5000 
    109 N         -6.6045  -22.8359  -55.2400 N.am      20 UNK        -0.5000 
    110 CA        -6.4078  -21.5522  -55.8945 C.3       20 UNK         0.1400 
    111 CB        -5.3371  -21.6986  -56.9870 C.3       20 UNK        -0.1800 
    112 C         -5.9575  -20.5609  -54.8114 C.2       20 UNK         0.5000 
    113 O         -5.4290  -20.9854  -53.7765 O.2       20 UNK        -0.5000 
    114 N         -6.1489  -19.2608  -55.0679 N.am      21 UNK        -0.5000 
    115 CA        -5.7007  -18.1687  -54.2011 C.3       21 UNK         0.1400 
    116 CB        -6.1901  -16.8287  -54.7729 C.3       21 UNK        -0.1800 
    117 C         -4.1684  -18.1859  -54.0487 C.2       21 UNK         0.5000 
    118 O         -3.4617  -18.0405  -55.0485 O.2       21 UNK        -0.5000 
    119 N         -3.7018  -18.4235  -52.8164 N.am      22 UNK        -0.5000 
    120 CA        -2.2944  -18.6851  -52.4645 C.3       22 UNK         0.1400 
    121 C         -1.7260  -20.0294  -53.0212 C.2       22 UNK         0.5000 
    122 N         -2.5519  -20.9778  -53.4470 N.am      22 UNK        -0.7600 
    123 O         -0.5173  -20.2408  -53.0320 O.2       22 UNK        -0.5000 
    124 C124       -1.3573  -17.4701  -52.7276 C.3       23 UNK        -0.0398 
    125 S125       -1.7352  -16.0291  -51.6664 S.3       23 UNK        -0.2404 
    126 C126       -1.0772  -16.5227  -50.0336 C.3       23 UNK        -0.0205 
    127 H127        5.5207   -9.7949  -50.0390 H         1 UNK         0.0600 
    128 H128        6.0075  -11.2295  -49.1484 H         1 UNK         0.0600 
    129 H129        4.9272  -10.0343  -48.4012 H         1 UNK         0.0600 
    130 H130        2.6245  -12.7698  -49.6052 H         1 UNK         0.3000 
    131 H131        4.9284  -12.7115  -47.7765 H         1 UNK         0.0600 
    132 H132        3.6423  -14.6568  -46.7157 H         1 UNK         0.0800 
    133 H133        2.5254  -14.5818  -48.0492 H         1 UNK         0.0800 
    134 H134        4.6280  -15.9428  -51.0375 H         1 UNK         0.0800 
    135 H135        3.5556  -14.6203  -50.6908 H         1 UNK         0.0800 
    136 H136        1.2204  -15.0535  -50.0838 H         1 UNK         0.1150 
    137 H137       -0.1991  -19.0938  -50.1524 H         1 UNK         0.1150 
    138 H138        3.9984  -18.3027  -50.4645 H         1 UNK         0.1150 
    139 H139        1.2552  -20.8813  -50.6960 H         1 UNK         0.0800 
    140 H140        2.8155  -20.5040  -51.3674 H         1 UNK         0.0800 
    141 H141        1.3353  -19.7486  -47.8815 H         1 UNK         0.0800 
    142 H142        2.5062  -20.4716  -46.8348 H         1 UNK         0.0800 
    143 H143        1.4350  -22.7478  -47.2679 H         1 UNK         0.0600 
    144 H144        0.5530  -20.6982  -45.5367 H         1 UNK         0.3000 
    145 H145       -1.8300  -22.6028  -43.6794 H         1 UNK         0.0600 
    146 H146       -0.3715  -21.7827  -41.8497 H         1 UNK         0.0600 
    147 H147        0.4057  -23.1062  -42.7056 H         1 UNK         0.0600 
    148 H148        0.9257  -21.4512  -42.9950 H         1 UNK         0.0600 
    149 H149       -0.9950  -19.8926  -43.4526 H         1 UNK         0.3000 
    150 H150       -3.3985  -18.5242  -45.7700 H         1 UNK         0.0600 
    151 H151       -4.5429  -18.8171  -43.5701 H         1 UNK         0.0600 
    152 H152       -3.9123  -17.1874  -43.7534 H         1 UNK         0.0600 
    153 H153       -3.0708  -18.3479  -42.7289 H         1 UNK         0.0600 
    154 H154       -1.4114  -17.2252  -44.2286 H         1 UNK         0.3000 
    155 H155        1.2661  -17.4459  -46.6250 H         1 UNK         0.0600 
    156 H156        0.0037  -15.4599  -47.2548 H         1 UNK         0.0600 
    157 H157        1.1567  -14.9773  -46.0203 H         1 UNK         0.0600 
    158 H158       -0.5397  -15.1899  -45.6072 H         1 UNK         0.0600 
    159 H159        1.2127  -16.3451  -44.0094 H         1 UNK         0.3000 
    160 H160        2.0466  -19.3167  -42.1930 H         1 UNK         0.0600 
    161 H161        3.6442  -16.8012  -42.9055 H         1 UNK         0.0600 
    162 H162        4.2033  -18.4619  -42.9979 H         1 UNK         0.0600 
    163 H163        3.8483  -17.7496  -41.4319 H         1 UNK         0.0600 
    164 H164        1.5100  -16.5427  -41.5372 H         1 UNK         0.3000 
    165 H165       -1.9518  -17.0276  -40.8111 H         1 UNK         0.0600 
    166 H166       -1.2487  -16.1853  -38.5876 H         1 UNK         0.0600 
    167 H167       -0.7889  -17.8707  -38.7667 H         1 UNK         0.0600 
    168 H168        0.4298  -16.6112  -38.9231 H         1 UNK         0.0600 
    169 H169       -0.1879  -14.7948  -40.4951 H         1 UNK         0.3000 
    170 H170       -0.3727  -13.5238  -43.7910 H         1 UNK         0.0600 
    171 H171       -2.5696  -12.7760  -42.8593 H         1 UNK         0.0600 
    172 H172       -1.8176  -12.4830  -41.2949 H         1 UNK         0.0600 
    173 H173       -1.3472  -11.5244  -42.6985 H         1 UNK         0.0600 
    174 H174        0.6903  -12.3284  -41.4752 H         1 UNK         0.3000 
    175 H175        2.7560  -13.1681  -40.3602 H         1 UNK         0.0600 
    176 H176        5.1327  -13.6875  -40.8653 H         1 UNK         0.0600 
    177 H177        4.1151  -15.0905  -41.1328 H         1 UNK         0.0600 
    178 H178        4.7018  -14.1612  -42.5085 H         1 UNK         0.0600 
    179 H179        4.3128  -11.7405  -42.3020 H         1 UNK         0.3000 
    180 H180        2.5138   -8.9688  -42.7891 H         1 UNK         0.0600 
    181 H181        4.2945   -8.7660  -40.3094 H         1 UNK         0.0600 
    182 H182        2.6320   -8.2046  -40.4368 H         1 UNK         0.0600 
    183 H183        3.8857   -7.4367  -41.3942 H         1 UNK         0.0600 
    184 H184        5.3679   -9.3463  -42.3867 H         1 UNK         0.3000 
    185 H185        2.6874  -10.7729  -44.4545 H         1 UNK         0.0600 
    186 H186        2.6066   -8.2733  -44.9811 H         1 UNK         0.0600 
    187 H187        3.6384   -8.5542  -46.3740 H         1 UNK         0.0600 
    188 H188        2.0180   -9.2423  -46.3188 H         1 UNK         0.0600 
    189 H189        4.9117  -11.2428  -46.1871 H         1 UNK         0.3000 
    190 H190       -1.3003  -20.4272  -47.5895 H         1 UNK         0.3000 
    191 H191       -2.2216  -21.3600  -50.1225 H         1 UNK         0.0600 
    192 H192       -3.8347  -20.0596  -47.8635 H         1 UNK         0.0600 
    193 H193       -4.2922  -20.1552  -49.5580 H         1 UNK         0.0600 
    194 H194       -2.9105  -19.1833  -49.0735 H         1 UNK         0.0600 
    195 H195       -3.1309  -22.3232  -46.7606 H         1 UNK         0.3000 
    196 H196       -5.0634  -24.2481  -47.4499 H         1 UNK         0.0600 
    197 H197       -4.7140  -25.0968  -45.1403 H         1 UNK         0.0600 
    198 H198       -4.7742  -23.3406  -45.1587 H         1 UNK         0.0600 
    199 H199       -3.2267  -24.1695  -45.0018 H         1 UNK         0.0600 
    200 H200       -1.5194  -24.5805  -47.2239 H         1 UNK         0.3000 
    201 H201       -1.3719  -27.3906  -47.6291 H         1 UNK         0.0600 
    202 H202        0.5162  -26.0148  -46.7728 H         1 UNK         0.0600 
    203 H203        0.6647  -25.2145  -48.3355 H         1 UNK         0.0600 
    204 H204        0.9986  -26.9333  -48.1909 H         1 UNK         0.0600 
    205 H205       -2.0572  -24.8042  -49.9083 H         1 UNK         0.3000 
    206 H206       -1.5683  -26.4441  -52.3024 H         1 UNK         0.0600 
    207 H207       -1.0821  -23.9852  -52.3128 H         1 UNK         0.0600 
    208 H208       -2.2734  -24.4480  -53.5199 H         1 UNK         0.0600 
    209 H209       -2.7900  -23.6496  -52.0460 H         1 UNK         0.0600 
    210 H210       -3.0309  -27.9867  -50.9518 H         1 UNK         0.3000 
    211 H211       -4.8460  -29.2598  -50.7938 H         1 UNK         0.0600 
    212 H212       -5.4452  -28.1197  -53.5716 H         1 UNK         0.0600 
    213 H213       -6.1422  -29.5913  -52.9043 H         1 UNK         0.0600 
    214 H214       -4.4164  -29.5011  -53.2112 H         1 UNK         0.0600 
    215 H215       -5.2073  -27.1936  -49.1849 H         1 UNK         0.3000 
    216 H216       -6.6308  -26.0792  -47.9374 H         1 UNK         0.0600 
    217 H217       -8.9792  -26.7463  -47.7725 H         1 UNK         0.0600 
    218 H218       -7.9852  -28.1813  -47.9585 H         1 UNK         0.0600 
    219 H219       -8.9162  -27.5669  -49.3242 H         1 UNK         0.0600 
    220 H220       -5.6102  -24.8064  -50.1486 H         1 UNK         0.3000 
    221 H221       -5.6521  -22.9978  -51.3901 H         1 UNK         0.0600 
    222 H222       -8.0876  -22.0992  -49.7618 H         1 UNK         0.0600 
    223 H223       -6.4015  -21.8470  -49.3113 H         1 UNK         0.0600 
    224 H224       -7.0524  -21.0768  -50.7498 H         1 UNK         0.0600 
    225 H225       -6.3132  -24.9600  -52.8127 H         1 UNK         0.3000 
    226 H226       -8.8573  -24.9105  -54.1455 H         1 UNK         0.0600 
    227 H227       -7.4250  -26.9072  -54.1649 H         1 UNK         0.0600 
    228 H228       -7.6497  -26.3582  -55.8169 H         1 UNK         0.0600 
    229 H229       -6.1311  -26.0320  -54.9866 H         1 UNK         0.0600 
    230 H230       -6.0050  -22.9772  -54.4368 H         1 UNK         0.3000 
    231 H231       -7.3430  -21.1963  -56.3319 H         1 UNK         0.0600 
    232 H232       -5.6416  -22.4252  -57.7405 H         1 UNK         0.0600 
    233 H233       -4.3823  -22.0257  -56.5729 H         1 UNK         0.0600 
    234 H234       -5.1664  -20.7506  -57.4984 H         1 UNK         0.0600 
    235 H235       -6.5580  -18.9905  -55.9504 H         1 UNK         0.3000 
    236 H236       -6.1606  -18.3071  -53.2202 H         1 UNK         0.0600 
    237 H237       -5.8732  -15.9977  -54.1414 H         1 UNK         0.0600 
    238 H238       -5.7964  -16.6486  -55.7742 H         1 UNK         0.0600 
    239 H239       -7.2784  -16.7971  -54.8292 H         1 UNK         0.0600 
    240 H240       -4.3661  -18.5512  -52.0673 H         1 UNK         0.3000 
    241 H241       -2.3024  -18.8512  -51.3888 H         1 UNK         0.0600 
    242 H242       -2.1612  -21.8386  -53.7911 H         1 UNK         0.3800 
    243 H243       -3.5596  -20.8497  -53.4474 H         1 UNK         0.3800 
    244 H244       -0.3081  -17.7308  -52.5966 H         1 UNK         0.0800 
    245 H245       -1.4264  -17.1505  -53.7669 H         1 UNK         0.0800 
    246 H246       -1.7203  -17.2852  -49.5958 H         1 UNK         0.0800 
    247 H247       -1.1364  -15.6648  -49.3632 H         1 UNK         0.0800 
@<TRIPOS>BOND
     1    1    2 1    
     2    1  127 1    
     3    1  128 1    
     4    1  129 1    
     5    2    3 2    
     6    2    4 am   BACKBONE|DICT|INTERRES
     7    4    5 1    
     8    4  130 1    
     9    5    6 1    
    10    5   65 1    
    11    5  131 1    
    12    6    7 1    
    13    6  132 1    
    14    6  133 1    
    15    7    8 1    
    16    8    9 1    
    17    8  134 1    
    18    8  135 1    
    19    9   10 ar   
    20    9   14 ar   
    21   10   11 ar   
    22   10  136 1    
    23   11   12 ar   
    24   11  126 1    
    25   12   13 ar   
    26   12  137 1    
    27   13   14 ar   
    28   13   15 1    
    29   14  138 1    
    30   15   16 1    
    31   15  139 1    
    32   15  140 1    
    33   16   17 1    
    34   17   18 1    
    35   17  141 1    
    36   17  142 1    
    37   18   19 1    
    38   18   67 1    
    39   18  143 1    
    40   19   20 am   BACKBONE|DICT|INTERRES
    41   19  144 1    
    42   20   21 2    
    43   20   22 1    
    44   22   23 1    
    45   22   24 1    
    46   22  145 1    
    47   23  146 1    
    48   23  147 1    
    49   23  148 1    
    50   24   25 am   BACKBONE|DICT|INTERRES
    51   24  149 1    
    52   25   26 2    
    53   25   27 1    
    54   27   28 1    
    55   27   29 1    
    56   27  150 1    
    57   28  151 1    
    58   28  152 1    
    59   28  153 1    
    60   29   30 am   BACKBONE|DICT|INTERRES
    61   29  154 1    
    62   30   31 2    
    63   30   32 1    
    64   32   33 1    
    65   32   34 1    
    66   32  155 1    
    67   33  156 1    
    68   33  157 1    
    69   33  158 1    
    70   34   35 am   BACKBONE|DICT|INTERRES
    71   34  159 1    
    72   35   36 2    
    73   35   37 1    
    74   37   38 1    
    75   37   39 1    
    76   37  160 1    
    77   38  161 1    
    78   38  162 1    
    79   38  163 1    
    80   39   40 am   BACKBONE|DICT|INTERRES
    81   39  164 1    
    82   40   41 2    
    83   40   42 1    
    84   42   43 1    
    85   42   44 1    
    86   42  165 1    
    87   43  166 1    
    88   43  167 1    
    89   43  168 1    
    90   44   45 am   BACKBONE|DICT|INTERRES
    91   44  169 1    
    92   45   46 2    
    93   45   47 1    
    94   47   48 1    
    95   47   49 1    
    96   47  170 1    
    97   48  171 1    
    98   48  172 1    
    99   48  173 1    
   100   49   50 am   BACKBONE|DICT|INTERRES
   101   49  174 1    
   102   50   51 2    
   103   50   52 1    
   104   52   53 1    
   105   52   54 1    
   106   52  175 1    
   107   53  176 1    
   108   53  177 1    
   109   53  178 1    
   110   54   55 am   BACKBONE|DICT|INTERRES
   111   54  179 1    
   112   55   56 2    
   113   55   57 1    
   114   57   58 1    
   115   57   59 1    
   116   57  180 1    
   117   58  181 1    
   118   58  182 1    
   119   58  183 1    
   120   59   60 am   BACKBONE|DICT|INTERRES
   121   59  184 1    
   122   60   61 2    
   123   60   62 1    
   124   62   63 1    
   125   62   64 1    
   126   62  185 1    
   127   63  186 1    
   128   63  187 1    
   129   63  188 1    
   130   64   65 am   BACKBONE|DICT|INTERRES
   131   64  189 1    
   132   65   66 2    
   133   67   68 2    
   134   67   69 am   BACKBONE|DICT|INTERRES
   135   69   70 1    
   136   69  190 1    
   137   70   71 1    
   138   70   72 1    
   139   70  191 1    
   140   71  192 1    
   141   71  193 1    
   142   71  194 1    
   143   72   73 2    
   144   72   74 am   BACKBONE|DICT|INTERRES
   145   74   75 1    
   146   74  195 1    
   147   75   76 1    
   148   75   77 1    
   149   75  196 1    
   150   76  197 1    
   151   76  198 1    
   152   76  199 1    
   153   77   78 2    
   154   77   79 am   BACKBONE|DICT|INTERRES
   155   79   80 1    
   156   79  200 1    
   157   80   81 1    
   158   80   82 1    
   159   80  201 1    
   160   81  202 1    
   161   81  203 1    
   162   81  204 1    
   163   82   83 2    
   164   82   84 am   BACKBONE|DICT|INTERRES
   165   84   85 1    
   166   84  205 1    
   167   85   86 1    
   168   85   87 1    
   169   85  206 1    
   170   86  207 1    
   171   86  208 1    
   172   86  209 1    
   173   87   88 2    
   174   87   89 am   BACKBONE|DICT|INTERRES
   175   89   90 1    
   176   89  210 1    
   177   90   91 1    
   178   90   92 1    
   179   90  211 1    
   180   91  212 1    
   181   91  213 1    
   182   91  214 1    
   183   92   93 2    
   184   92   94 am   BACKBONE|DICT|INTERRES
   185   94   95 1    
   186   94  215 1    
   187   95   96 1    
   188   95   97 1    
   189   95  216 1    
   190   96  217 1    
   191   96  218 1    
   192   96  219 1    
   193   97   98 2    
   194   97   99 am   BACKBONE|DICT|INTERRES
   195   99  100 1    
   196   99  220 1    
   197  100  101 1    
   198  100  102 1    
   199  100  221 1    
   200  101  222 1    
   201  101  223 1    
   202  101  224 1    
   203  102  103 2    
   204  102  104 am   BACKBONE|DICT|INTERRES
   205  104  105 1    
   206  104  225 1    
   207  105  106 1    
   208  105  107 1    
   209  105  226 1    
   210  106  227 1    
   211  106  228 1    
   212  106  229 1    
   213  107  108 2    
   214  107  109 am   BACKBONE|DICT|INTERRES
   215  109  110 1    
   216  109  230 1    
   217  110  111 1    
   218  110  112 1    
   219  110  231 1    
   220  111  232 1    
   221  111  233 1    
   222  111  234 1    
   223  112  113 2    
   224  112  114 am   BACKBONE|DICT|INTERRES
   225  114  115 1    
   226  114  235 1    
   227  115  116 1    
   228  115  117 1    
   229  115  236 1    
   230  116  237 1    
   231  116  238 1    
   232  116  239 1    
   233  117  118 2    
   234  117  119 am   BACKBONE|DICT|INTERRES
   235  119  120 1    
   236  119  240 1    
   237  120  121 1    
   238  120  124 1    
   239  120  241 1    
   240  121  122 am   BACKBONE|DICT|INTERRES
   241  121  123 2    
   242  122  242 1    
   243  122  243 1    
   244  124  125 1    
   245  124  244 1    
   246  124  245 1    
   247  125  126 1    
   248  126  246 1    
   249  126  247 1    
@<TRIPOS>SUBSTRUCTURE
     1 UNK         1 GROUP             0       ****    0 ROOT    
