@<TRIPOS>MOLECULE
3R540
247   249    1
SMALL
USER_CHARGES


@<TRIPOS>ATOM
      1 CA          2.3610  -11.6431  -44.1673 C.3       0 UNK        -0.1800 
      2 C           2.1527  -12.5063  -45.4036 C.2       0 UNK         0.5000 
      3 O           2.6143  -12.1472  -46.4873 O.2       0 UNK        -0.5000 
      4 N           1.4556  -13.6366  -45.2476 N.am      1 UNK        -0.5000 
      5 CA          1.2222  -14.6295  -46.3005 C.3       1 UNK         0.1400 
      6 C6          0.0301  -15.5456  -45.9427 C.3       23 UNK        -0.0398 
      7 S7         -1.5482  -14.7764  -46.4451 S.3       23 UNK        -0.2404 
      8 C8         -2.3517  -16.1019  -47.4009 C.3       23 UNK        -0.0205 
      9 C9         -1.6640  -16.3912  -48.7275 C.ar      23 UNK        -0.0193 
     10 C10        -2.0374  -15.7037  -49.8844 C.ar      23 UNK        -0.1150 
     11 C11        -1.4643  -16.0303  -51.1170 C.ar      23 UNK        -0.0193 
     12 C12        -0.5009  -17.0414  -51.1830 C.ar      23 UNK        -0.1150 
     13 C13        -0.1238  -17.7478  -50.0384 C.ar      23 UNK        -0.0193 
     14 C14        -0.7024  -17.4004  -48.8118 C.ar      23 UNK        -0.1150 
     15 C15         0.8857  -18.8894  -50.1781 C.3       23 UNK        -0.0205 
     16 S16         0.8757  -20.1226  -48.8319 S.3       23 UNK        -0.2404 
     17 C17        -0.8295  -20.7503  -48.9368 C.3       23 UNK        -0.0398 
     18 CA         -1.1385  -21.8131  -47.8609 C.3       11 UNK         0.1400 
     19 N          -0.9163  -21.3400  -46.4846 N.am      11 UNK        -0.5000 
     20 C          -0.9953  -22.1030  -45.3845 C.2       10 UNK         0.5000 
     21 O          -1.2878  -23.3004  -45.4122 O.2       10 UNK        -0.5000 
     22 CA         -0.8027  -21.4072  -44.0249 C.3       10 UNK         0.1400 
     23 CB          0.6592  -20.9848  -43.7908 C.3       10 UNK        -0.1800 
     24 N          -1.7563  -20.3109  -43.8010 N.am      10 UNK        -0.5000 
     25 C          -1.8355  -19.1186  -44.4111 C.2       9 UNK         0.5000 
     26 O          -1.0173  -18.7177  -45.2410 O.2       9 UNK        -0.5000 
     27 CA         -3.0895  -18.2643  -44.1243 C.3       9 UNK         0.1400 
     28 CB         -4.0507  -18.8586  -43.0681 C.3       9 UNK        -0.1800 
     29 N          -2.7738  -16.8648  -43.8253 N.am      9 UNK        -0.5000 
     30 C          -2.1455  -16.3852  -42.7439 C.2       8 UNK         0.5000 
     31 O          -1.6973  -17.0893  -41.8359 O.2       8 UNK        -0.5000 
     32 CA         -2.0623  -14.8462  -42.6522 C.3       8 UNK         0.1400 
     33 CB         -3.4646  -14.2291  -42.5103 C.3       8 UNK        -0.1800 
     34 N          -1.2591  -14.4183  -41.5102 N.am      8 UNK        -0.5000 
     35 C           0.0693  -14.2756  -41.5163 C.2       7 UNK         0.5000 
     36 O           0.7688  -14.3749  -42.5288 O.2       7 UNK        -0.5000 
     37 CA          0.7129  -13.9622  -40.1565 C.3       7 UNK         0.1400 
     38 CB          0.3769  -15.0320  -39.0973 C.3       7 UNK        -0.1800 
     39 N           2.1612  -13.8682  -40.3023 N.am      7 UNK        -0.5000 
     40 C           2.9752  -13.1521  -39.5186 C.2       6 UNK         0.5000 
     41 O           2.5716  -12.4351  -38.6013 O.2       6 UNK        -0.5000 
     42 CA          4.4912  -13.2641  -39.7729 C.3       6 UNK         0.1400 
     43 CB          5.2193  -13.7510  -38.5086 C.3       6 UNK        -0.1800 
     44 N           4.8082  -14.1871  -40.8630 N.am      6 UNK        -0.5000 
     45 C           5.1359  -13.8399  -42.1097 C.2       5 UNK         0.5000 
     46 O           5.1936  -12.6744  -42.5009 O.2       5 UNK        -0.5000 
     47 CA          5.4558  -14.9836  -43.0899 C.3       5 UNK         0.1400 
     48 CB          6.8760  -15.5338  -42.8619 C.3       5 UNK        -0.1800 
     49 N           4.4667  -16.0678  -43.1262 N.am      5 UNK        -0.5000 
     50 C           4.1318  -16.9676  -42.1891 C.2       4 UNK         0.5000 
     51 O           4.5879  -16.9762  -41.0452 O.2       4 UNK        -0.5000 
     52 CA          3.1163  -18.0489  -42.6085 C.3       4 UNK         0.1400 
     53 CB          1.6798  -17.5450  -42.4176 C.3       4 UNK        -0.1800 
     54 N           3.2848  -18.4713  -43.9992 N.am      4 UNK        -0.5000 
     55 C           4.2998  -19.2195  -44.4562 C.2       3 UNK         0.5000 
     56 O           5.1814  -19.6949  -43.7405 O.2       3 UNK        -0.5000 
     57 CA          4.3509  -19.4398  -45.9746 C.3       3 UNK         0.1400 
     58 CB          3.4019  -20.5744  -46.3988 C.3       3 UNK        -0.1800 
     59 N           4.0362  -18.1834  -46.6518 N.am      3 UNK        -0.5000 
     60 C           4.2156  -17.8838  -47.9394 C.2       2 UNK         0.5000 
     61 O           4.5733  -18.7026  -48.7874 O.2       2 UNK        -0.5000 
     62 CA          3.9997  -16.3997  -48.3251 C.3       2 UNK         0.1400 
     63 CB          4.0787  -16.1535  -49.8432 C.3       2 UNK        -0.1800 
     64 N           2.7612  -15.7936  -47.8183 N.am      2 UNK        -0.5000 
     65 C           2.5060  -15.4435  -46.5505 C.2       1 UNK         0.5000 
     66 O           3.2289  -15.7504  -45.5997 O.2       1 UNK        -0.5000 
     67 C          -2.5658  -22.3460  -48.0817 C.2       11 UNK         0.5000 
     68 O          -2.7600  -23.1850  -48.9593 O.2       11 UNK        -0.5000 
     69 N          -3.5300  -21.8811  -47.2739 N.am      12 UNK        -0.5000 
     70 CA         -4.9140  -22.3577  -47.2317 C.3       12 UNK         0.1400 
     71 CB         -5.6826  -21.5603  -46.1676 C.3       12 UNK        -0.1800 
     72 C          -5.0303  -23.8716  -46.9649 C.2       12 UNK         0.5000 
     73 O          -5.9190  -24.5156  -47.5219 O.2       12 UNK        -0.5000 
     74 N          -4.1092  -24.4069  -46.1529 N.am      13 UNK        -0.5000 
     75 CA         -3.9799  -25.8334  -45.8738 C.3       13 UNK         0.1400 
     76 CB         -3.6833  -26.0279  -44.3782 C.3       13 UNK        -0.1800 
     77 C          -2.8703  -26.4654  -46.7296 C.2       13 UNK         0.5000 
     78 O          -3.0831  -27.5342  -47.3021 O.2       13 UNK        -0.5000 
     79 N          -1.7033  -25.8073  -46.7918 N.am      14 UNK        -0.5000 
     80 CA         -0.4798  -26.3595  -47.3775 C.3       14 UNK         0.1400 
     81 CB          0.7249  -25.5446  -46.8807 C.3       14 UNK        -0.1800 
     82 C          -0.4761  -26.4392  -48.9157 C.2       14 UNK         0.5000 
     83 O           0.2215  -27.2947  -49.4626 O.2       14 UNK        -0.5000 
     84 N          -1.2222  -25.5525  -49.5862 N.am      15 UNK        -0.5000 
     85 CA         -1.2330  -25.4140  -51.0451 C.3       15 UNK         0.1400 
     86 CB         -0.2942  -24.2583  -51.4397 C.3       15 UNK        -0.1800 
     87 C          -2.6512  -25.2076  -51.6066 C.2       15 UNK         0.5000 
     88 O          -2.7838  -24.8013  -52.7619 O.2       15 UNK        -0.5000 
     89 N          -3.6852  -25.4507  -50.7858 N.am      16 UNK        -0.5000 
     90 CA         -5.1102  -25.2531  -51.0833 C.3       16 UNK         0.1400 
     91 CB         -5.5971  -26.3115  -52.0951 C.3       16 UNK        -0.1800 
     92 C          -5.4384  -23.8089  -51.5256 C.2       16 UNK         0.5000 
     93 O          -6.1703  -23.6101  -52.4952 O.2       16 UNK        -0.5000 
     94 N          -4.8434  -22.8287  -50.8302 N.am      17 UNK        -0.5000 
     95 CA         -4.8962  -21.3867  -51.1026 C.3       17 UNK         0.1400 
     96 CB         -6.3251  -20.8314  -50.9272 C.3       17 UNK        -0.1800 
     97 C          -4.2689  -21.0369  -52.4660 C.2       17 UNK         0.5000 
     98 O          -4.8439  -20.2662  -53.2362 O.2       17 UNK        -0.5000 
     99 N          -3.1041  -21.6469  -52.7345 N.am      18 UNK        -0.5000 
    100 CA        -2.3319  -21.5756  -53.9790 C.3       18 UNK         0.1400 
    101 CB        -1.7819  -20.1501  -54.1985 C.3       18 UNK        -0.1800 
    102 C         -3.1428  -22.1094  -55.1774 C.2       18 UNK         0.5000 
    103 O         -3.2792  -21.4242  -56.1906 O.2       18 UNK        -0.5000 
    104 N         -3.7108  -23.3132  -55.0088 N.am      19 UNK        -0.5000 
    105 CA        -4.6473  -23.9814  -55.9211 C.3       19 UNK         0.1400 
    106 CB        -3.9236  -24.4421  -57.2031 C.3       19 UNK        -0.1800 
    107 C         -5.8968  -23.1176  -56.2030 C.2       19 UNK         0.5000 
    108 O         -6.2895  -22.9374  -57.3568 O.2       19 UNK        -0.5000 
    109 N         -6.4634  -22.5675  -55.1209 N.am      20 UNK        -0.5000 
    110 CA        -7.6066  -21.6555  -55.0367 C.3       20 UNK         0.1400 
    111 CB        -8.8800  -22.3116  -55.6079 C.3       20 UNK        -0.1800 
    112 C         -7.3781  -20.2428  -55.6169 C.2       20 UNK         0.5000 
    113 O         -8.2972  -19.4249  -55.5429 O.2       20 UNK        -0.5000 
    114 N         -6.1828  -19.9413  -56.1478 N.am      21 UNK        -0.5000 
    115 CA        -5.8498  -18.6489  -56.7580 C.3       21 UNK         0.1400 
    116 CB        -4.4900  -18.7429  -57.4644 C.3       21 UNK        -0.1800 
    117 C         -5.8532  -17.4733  -55.7626 C.2       21 UNK         0.5000 
    118 O         -6.1622  -16.3488  -56.1601 O.2       21 UNK        -0.5000 
    119 N         -5.5353  -17.7580  -54.4955 N.am      22 UNK        -0.5000 
    120 CA        -5.5787  -16.8098  -53.3729 C.3       22 UNK         0.1400 
    121 C         -6.8541  -16.9801  -52.4942 C.2       22 UNK         0.5000 
    122 N         -7.8513  -17.7593  -52.9003 N.am      22 UNK        -0.7600 
    123 O         -6.9565  -16.3783  -51.4288 O.2       22 UNK        -0.5000 
    124 C124       -4.2773  -16.8712  -52.5316 C.3       23 UNK        -0.0398 
    125 S125       -2.7960  -16.4401  -53.5128 S.3       23 UNK        -0.2404 
    126 C126       -1.9067  -15.3175  -52.3861 C.3       23 UNK        -0.0205 
    127 H127        1.6932  -10.7823  -44.1929 H         1 UNK         0.0600 
    128 H128        2.1717  -12.1986  -43.2488 H         1 UNK         0.0600 
    129 H129        3.3876  -11.2787  -44.1312 H         1 UNK         0.0600 
    130 H130        1.1500  -13.9006  -44.3136 H         1 UNK         0.3000 
    131 H131        0.9948  -14.0986  -47.2280 H         1 UNK         0.0600 
    132 H132        0.1229  -16.5208  -46.4123 H         1 UNK         0.0800 
    133 H133        0.0048  -15.7569  -44.8736 H         1 UNK         0.0800 
    134 H134       -2.3937  -17.0096  -46.8004 H         1 UNK         0.0800 
    135 H135       -3.3888  -15.8172  -47.5845 H         1 UNK         0.0800 
    136 H136       -2.7926  -14.9323  -49.8273 H         1 UNK         0.1150 
    137 H137       -0.0689  -17.2999  -52.1399 H         1 UNK         0.1150 
    138 H138       -0.4388  -17.9462  -47.9192 H         1 UNK         0.1150 
    139 H139        0.7144  -19.4148  -51.1190 H         1 UNK         0.0800 
    140 H140        1.8871  -18.4662  -50.2408 H         1 UNK         0.0800 
    141 H141       -0.9656  -21.1628  -49.9382 H         1 UNK         0.0800 
    142 H142       -1.5325  -19.9216  -48.8533 H         1 UNK         0.0800 
    143 H143       -0.4629  -22.6538  -48.0250 H         1 UNK         0.0600 
    144 H144       -0.7023  -20.3549  -46.3634 H         1 UNK         0.3000 
    145 H145       -1.0367  -22.1575  -43.2679 H         1 UNK         0.0600 
    146 H146        0.8167  -20.6899  -42.7539 H         1 UNK         0.0600 
    147 H147        1.3431  -21.8090  -43.9970 H         1 UNK         0.0600 
    148 H148        0.9559  -20.1511  -44.4242 H         1 UNK         0.0600 
    149 H149       -2.4913  -20.5287  -43.1428 H         1 UNK         0.3000 
    150 H150       -3.6400  -18.2430  -45.0656 H         1 UNK         0.0600 
    151 H151       -4.4252  -19.8355  -43.3763 H         1 UNK         0.0600 
    152 H152       -4.9217  -18.2171  -42.9327 H         1 UNK         0.0600 
    153 H153       -3.5749  -18.9747  -42.0938 H         1 UNK         0.0600 
    154 H154       -3.0728  -16.2014  -44.5256 H         1 UNK         0.3000 
    155 H155       -1.6099  -14.4645  -43.5676 H         1 UNK         0.0600 
    156 H156       -3.4095  -13.1438  -42.4225 H         1 UNK         0.0600 
    157 H157       -3.9853  -14.6103  -41.6308 H         1 UNK         0.0600 
    158 H158       -4.0856  -14.4470  -43.3799 H         1 UNK         0.0600 
    159 H159       -1.7470  -14.3600  -40.6287 H         1 UNK         0.3000 
    160 H160        0.3199  -12.9966  -39.8317 H         1 UNK         0.0600 
    161 H161        0.7175  -16.0210  -39.4050 H         1 UNK         0.0600 
    162 H162       -0.6962  -15.0960  -38.9160 H         1 UNK         0.0600 
    163 H163        0.8458  -14.8025  -38.1404 H         1 UNK         0.0600 
    164 H164        2.5452  -14.3669  -41.0935 H         1 UNK         0.3000 
    165 H165        4.8541  -12.2618  -40.0090 H         1 UNK         0.0600 
    166 H166        4.8763  -14.7408  -38.2042 H         1 UNK         0.0600 
    167 H167        6.2959  -13.8051  -38.6711 H         1 UNK         0.0600 
    168 H168        5.0534  -13.0725  -37.6709 H         1 UNK         0.0600 
    169 H169        4.7694  -15.1821  -40.6513 H         1 UNK         0.3000 
    170 H170        5.4357  -14.5460  -44.0895 H         1 UNK         0.0600 
    171 H171        7.6175  -14.7371  -42.9327 H         1 UNK         0.0600 
    172 H172        6.9840  -15.9922  -41.8786 H         1 UNK         0.0600 
    173 H173        7.1313  -16.2837  -43.6107 H         1 UNK         0.0600 
    174 H174        3.9620  -16.1123  -44.0094 H         1 UNK         0.3000 
    175 H175        3.2650  -18.9147  -41.9598 H         1 UNK         0.0600 
    176 H176        0.9520  -18.3443  -42.5481 H         1 UNK         0.0600 
    177 H177        1.5319  -17.1366  -41.4178 H         1 UNK         0.0600 
    178 H178        1.4370  -16.7639  -43.1364 H         1 UNK         0.0600 
    179 H179        2.5886  -18.1452  -44.6524 H         1 UNK         0.3000 
    180 H180        5.3734  -19.7215  -46.2339 H         1 UNK         0.0600 
    181 H181        2.3581  -20.2915  -46.2702 H         1 UNK         0.0600 
    182 H182        3.5755  -21.4749  -45.8084 H         1 UNK         0.0600 
    183 H183        3.5478  -20.8436  -47.4446 H         1 UNK         0.0600 
    184 H184        3.7890  -17.4039  -46.0470 H         1 UNK         0.3000 
    185 H185        4.8329  -15.8562  -47.8746 H         1 UNK         0.0600 
    186 H186        5.0074  -16.5446  -50.2608 H         1 UNK         0.0600 
    187 H187        3.2531  -16.6250  -50.3747 H         1 UNK         0.0600 
    188 H188        4.0530  -15.0873  -50.0689 H         1 UNK         0.0600 
    189 H189        2.0842  -15.5482  -48.5262 H         1 UNK         0.3000 
    190 H190       -3.2741  -21.1880  -46.5877 H         1 UNK         0.3000 
    191 H191       -5.3702  -22.1561  -48.2009 H         1 UNK         0.0600 
    192 H192       -5.6744  -20.4931  -46.3907 H         1 UNK         0.0600 
    193 H193       -6.7267  -21.8732  -46.1243 H         1 UNK         0.0600 
    194 H194       -5.2567  -21.6997  -45.1732 H         1 UNK         0.0600 
    195 H195       -3.3887  -23.8073  -45.7719 H         1 UNK         0.3000 
    196 H196       -4.9146  -26.3515  -46.0988 H         1 UNK         0.0600 
    197 H197       -3.5726  -27.0856  -44.1360 H         1 UNK         0.0600 
    198 H198       -4.4949  -25.6374  -43.7640 H         1 UNK         0.0600 
    199 H199       -2.7644  -25.5230  -44.0768 H         1 UNK         0.0600 
    200 H200       -1.5988  -24.9343  -46.2816 H         1 UNK         0.3000 
    201 H201       -0.3644  -27.3794  -47.0043 H         1 UNK         0.0600 
    202 H202        0.7762  -25.5400  -45.7918 H         1 UNK         0.0600 
    203 H203        0.6803  -24.5093  -47.2168 H         1 UNK         0.0600 
    204 H204        1.6612  -25.9672  -47.2477 H         1 UNK         0.0600 
    205 H205       -1.7652  -24.8642  -49.0750 H         1 UNK         0.3000 
    206 H206       -0.8646  -26.3289  -51.5130 H         1 UNK         0.0600 
    207 H207       -0.2208  -24.1583  -52.5232 H         1 UNK         0.0600 
    208 H208       -0.6441  -23.3059  -51.0421 H         1 UNK         0.0600 
    209 H209        0.7156  -24.4255  -51.0646 H         1 UNK         0.0600 
    210 H210       -3.4740  -25.7817  -49.8556 H         1 UNK         0.3000 
    211 H211       -5.6489  -25.4157  -50.1491 H         1 UNK         0.0600 
    212 H212       -5.1275  -26.1863  -53.0712 H         1 UNK         0.0600 
    213 H213       -6.6760  -26.2467  -52.2405 H         1 UNK         0.0600 
    214 H214       -5.3782  -27.3202  -51.7451 H         1 UNK         0.0600 
    215 H215       -4.1959  -23.1073  -50.0965 H         1 UNK         0.3000 
    216 H216       -4.2680  -20.9076  -50.3506 H         1 UNK         0.0600 
    217 H217       -6.7315  -21.0834  -49.9482 H         1 UNK         0.0600 
    218 H218       -7.0097  -21.2174  -51.6818 H         1 UNK         0.0600 
    219 H219       -6.3318  -19.7441  -51.0100 H         1 UNK         0.0600 
    220 H220       -2.7646  -22.3139  -52.0577 H         1 UNK         0.3000 
    221 H221       -1.4795  -22.2454  -53.8578 H         1 UNK         0.0600 
    222 H222       -2.5794  -19.4304  -54.3854 H         1 UNK         0.0600 
    223 H223       -1.2186  -19.8049  -53.3314 H         1 UNK         0.0600 
    224 H224       -1.1105  -20.1200  -55.0571 H         1 UNK         0.0600 
    225 H225       -3.5090  -23.8133  -54.1447 H         1 UNK         0.3000 
    226 H226       -5.0004  -24.8729  -55.4007 H         1 UNK         0.0600 
    227 H227       -3.0621  -25.0661  -56.9654 H         1 UNK         0.0600 
    228 H228       -4.5878  -25.0329  -57.8347 H         1 UNK         0.0600 
    229 H229       -3.5724  -23.5980  -57.7975 H         1 UNK         0.0600 
    230 H230       -6.0796  -22.8230  -54.2140 H         1 UNK         0.3000 
    231 H231       -7.7719  -21.5066  -53.9693 H         1 UNK         0.0600 
    232 H232       -9.0521  -23.2915  -55.1625 H         1 UNK         0.0600 
    233 H233       -8.8228  -22.4379  -56.6892 H         1 UNK         0.0600 
    234 H234       -9.7609  -21.7035  -55.3992 H         1 UNK         0.0600 
    235 H235       -5.4504  -20.6402  -56.1361 H         1 UNK         0.3000 
    236 H236       -6.6084  -18.4408  -57.5152 H         1 UNK         0.0600 
    237 H237       -4.2818  -17.8332  -58.0288 H         1 UNK         0.0600 
    238 H238       -3.6766  -18.8746  -56.7500 H         1 UNK         0.0600 
    239 H239       -4.4621  -19.5767  -58.1662 H         1 UNK         0.0600 
    240 H240       -5.3043  -18.7167  -54.2443 H         1 UNK         0.3000 
    241 H241       -5.6502  -15.7940  -53.7650 H         1 UNK         0.0600 
    242 H242       -7.8152  -18.2281  -53.7959 H         1 UNK         0.3800 
    243 H243       -8.6727  -17.8473  -52.3239 H         1 UNK         0.3800 
    244 H244       -4.3447  -16.1875  -51.6844 H         1 UNK         0.0800 
    245 H245       -4.1360  -17.8663  -52.1084 H         1 UNK         0.0800 
    246 H246       -1.0284  -14.9234  -52.8990 H         1 UNK         0.0800 
    247 H247       -2.5395  -14.4591  -52.1555 H         1 UNK         0.0800 
@<TRIPOS>BOND
     1    1    2 1    
     2    1  127 1    
     3    1  128 1    
     4    1  129 1    
     5    2    3 2    
     6    2    4 am   BACKBONE|DICT|INTERRES
     7    4    5 1    
     8    4  130 1    
     9    5    6 1    
    10    5   65 1    
    11    5  131 1    
    12    6    7 1    
    13    6  132 1    
    14    6  133 1    
    15    7    8 1    
    16    8    9 1    
    17    8  134 1    
    18    8  135 1    
    19    9   10 ar   
    20    9   14 ar   
    21   10   11 ar   
    22   10  136 1    
    23   11   12 ar   
    24   11  126 1    
    25   12   13 ar   
    26   12  137 1    
    27   13   14 ar   
    28   13   15 1    
    29   14  138 1    
    30   15   16 1    
    31   15  139 1    
    32   15  140 1    
    33   16   17 1    
    34   17   18 1    
    35   17  141 1    
    36   17  142 1    
    37   18   19 1    
    38   18   67 1    
    39   18  143 1    
    40   19   20 am   BACKBONE|DICT|INTERRES
    41   19  144 1    
    42   20   21 2    
    43   20   22 1    
    44   22   23 1    
    45   22   24 1    
    46   22  145 1    
    47   23  146 1    
    48   23  147 1    
    49   23  148 1    
    50   24   25 am   BACKBONE|DICT|INTERRES
    51   24  149 1    
    52   25   26 2    
    53   25   27 1    
    54   27   28 1    
    55   27   29 1    
    56   27  150 1    
    57   28  151 1    
    58   28  152 1    
    59   28  153 1    
    60   29   30 am   BACKBONE|DICT|INTERRES
    61   29  154 1    
    62   30   31 2    
    63   30   32 1    
    64   32   33 1    
    65   32   34 1    
    66   32  155 1    
    67   33  156 1    
    68   33  157 1    
    69   33  158 1    
    70   34   35 am   BACKBONE|DICT|INTERRES
    71   34  159 1    
    72   35   36 2    
    73   35   37 1    
    74   37   38 1    
    75   37   39 1    
    76   37  160 1    
    77   38  161 1    
    78   38  162 1    
    79   38  163 1    
    80   39   40 am   BACKBONE|DICT|INTERRES
    81   39  164 1    
    82   40   41 2    
    83   40   42 1    
    84   42   43 1    
    85   42   44 1    
    86   42  165 1    
    87   43  166 1    
    88   43  167 1    
    89   43  168 1    
    90   44   45 am   BACKBONE|DICT|INTERRES
    91   44  169 1    
    92   45   46 2    
    93   45   47 1    
    94   47   48 1    
    95   47   49 1    
    96   47  170 1    
    97   48  171 1    
    98   48  172 1    
    99   48  173 1    
   100   49   50 am   BACKBONE|DICT|INTERRES
   101   49  174 1    
   102   50   51 2    
   103   50   52 1    
   104   52   53 1    
   105   52   54 1    
   106   52  175 1    
   107   53  176 1    
   108   53  177 1    
   109   53  178 1    
   110   54   55 am   BACKBONE|DICT|INTERRES
   111   54  179 1    
   112   55   56 2    
   113   55   57 1    
   114   57   58 1    
   115   57   59 1    
   116   57  180 1    
   117   58  181 1    
   118   58  182 1    
   119   58  183 1    
   120   59   60 am   BACKBONE|DICT|INTERRES
   121   59  184 1    
   122   60   61 2    
   123   60   62 1    
   124   62   63 1    
   125   62   64 1    
   126   62  185 1    
   127   63  186 1    
   128   63  187 1    
   129   63  188 1    
   130   64   65 am   BACKBONE|DICT|INTERRES
   131   64  189 1    
   132   65   66 2    
   133   67   68 2    
   134   67   69 am   BACKBONE|DICT|INTERRES
   135   69   70 1    
   136   69  190 1    
   137   70   71 1    
   138   70   72 1    
   139   70  191 1    
   140   71  192 1    
   141   71  193 1    
   142   71  194 1    
   143   72   73 2    
   144   72   74 am   BACKBONE|DICT|INTERRES
   145   74   75 1    
   146   74  195 1    
   147   75   76 1    
   148   75   77 1    
   149   75  196 1    
   150   76  197 1    
   151   76  198 1    
   152   76  199 1    
   153   77   78 2    
   154   77   79 am   BACKBONE|DICT|INTERRES
   155   79   80 1    
   156   79  200 1    
   157   80   81 1    
   158   80   82 1    
   159   80  201 1    
   160   81  202 1    
   161   81  203 1    
   162   81  204 1    
   163   82   83 2    
   164   82   84 am   BACKBONE|DICT|INTERRES
   165   84   85 1    
   166   84  205 1    
   167   85   86 1    
   168   85   87 1    
   169   85  206 1    
   170   86  207 1    
   171   86  208 1    
   172   86  209 1    
   173   87   88 2    
   174   87   89 am   BACKBONE|DICT|INTERRES
   175   89   90 1    
   176   89  210 1    
   177   90   91 1    
   178   90   92 1    
   179   90  211 1    
   180   91  212 1    
   181   91  213 1    
   182   91  214 1    
   183   92   93 2    
   184   92   94 am   BACKBONE|DICT|INTERRES
   185   94   95 1    
   186   94  215 1    
   187   95   96 1    
   188   95   97 1    
   189   95  216 1    
   190   96  217 1    
   191   96  218 1    
   192   96  219 1    
   193   97   98 2    
   194   97   99 am   BACKBONE|DICT|INTERRES
   195   99  100 1    
   196   99  220 1    
   197  100  101 1    
   198  100  102 1    
   199  100  221 1    
   200  101  222 1    
   201  101  223 1    
   202  101  224 1    
   203  102  103 2    
   204  102  104 am   BACKBONE|DICT|INTERRES
   205  104  105 1    
   206  104  225 1    
   207  105  106 1    
   208  105  107 1    
   209  105  226 1    
   210  106  227 1    
   211  106  228 1    
   212  106  229 1    
   213  107  108 2    
   214  107  109 am   BACKBONE|DICT|INTERRES
   215  109  110 1    
   216  109  230 1    
   217  110  111 1    
   218  110  112 1    
   219  110  231 1    
   220  111  232 1    
   221  111  233 1    
   222  111  234 1    
   223  112  113 2    
   224  112  114 am   BACKBONE|DICT|INTERRES
   225  114  115 1    
   226  114  235 1    
   227  115  116 1    
   228  115  117 1    
   229  115  236 1    
   230  116  237 1    
   231  116  238 1    
   232  116  239 1    
   233  117  118 2    
   234  117  119 am   BACKBONE|DICT|INTERRES
   235  119  120 1    
   236  119  240 1    
   237  120  121 1    
   238  120  124 1    
   239  120  241 1    
   240  121  122 am   BACKBONE|DICT|INTERRES
   241  121  123 2    
   242  122  242 1    
   243  122  243 1    
   244  124  125 1    
   245  124  244 1    
   246  124  245 1    
   247  125  126 1    
   248  126  246 1    
   249  126  247 1    
@<TRIPOS>SUBSTRUCTURE
     1 UNK         1 GROUP             0       ****    0 ROOT    
