@<TRIPOS>MOLECULE
3R540
247   249    1
SMALL
USER_CHARGES


@<TRIPOS>ATOM
      1 CA          2.0901  -16.6087  -47.5692 C.3       0 UNK        -0.1800 
      2 C           0.8064  -15.9325  -47.1103 C.2       0 UNK         0.5000 
      3 O           0.8305  -15.1345  -46.1716 O.2       0 UNK        -0.5000 
      4 N          -0.3187  -16.2429  -47.7698 N.am      1 UNK        -0.5000 
      5 CA         -1.6373  -15.6498  -47.5024 C.3       1 UNK         0.1400 
      6 C6         -2.7778  -16.3639  -48.2671 C.3       23 UNK        -0.0398 
      7 S7         -2.9407  -18.1364  -47.8624 S.3       23 UNK        -0.2404 
      8 C8         -4.2576  -18.0979  -46.6050 C.3       23 UNK        -0.0205 
      9 C9         -4.9460  -19.4471  -46.4526 C.ar      23 UNK        -0.0193 
     10 C10        -5.9304  -19.8175  -47.3716 C.ar      23 UNK        -0.1150 
     11 C11        -6.6342  -21.0152  -47.2271 C.ar      23 UNK        -0.0193 
     12 C12        -6.3422  -21.8496  -46.1428 C.ar      23 UNK        -0.1150 
     13 C13        -5.3690  -21.4884  -45.2032 C.ar      23 UNK        -0.0193 
     14 C14        -4.6617  -20.2910  -45.3722 C.ar      23 UNK        -0.1150 
     15 C15        -5.1598  -22.3505  -43.9617 C.3       23 UNK        -0.0205 
     16 S16        -4.0654  -23.7805  -44.2488 S.3       23 UNK        -0.2404 
     17 C17        -2.4136  -23.0655  -43.9437 C.3       23 UNK        -0.0398 
     18 CA         -1.7540  -22.5804  -45.2533 C.3       11 UNK         0.1400 
     19 N          -0.9514  -21.3745  -45.0575 N.am      11 UNK        -0.5000 
     20 C          -0.6239  -20.5482  -46.0574 C.2       10 UNK         0.5000 
     21 O          -0.9265  -20.7485  -47.2326 O.2       10 UNK        -0.5000 
     22 CA          0.2282  -19.3285  -45.6811 C.3       10 UNK         0.1400 
     23 CB         -0.5925  -18.3243  -44.8612 C.3       10 UNK        -0.1800 
     24 N           1.4274  -19.6954  -44.9303 N.am      10 UNK        -0.5000 
     25 C           2.4055  -20.4812  -45.4023 C.2       9 UNK         0.5000 
     26 O           2.4284  -20.9269  -46.5490 O.2       9 UNK        -0.5000 
     27 CA          3.5265  -20.8753  -44.4243 C.3       9 UNK         0.1400 
     28 CB          4.6626  -19.8440  -44.4580 C.3       9 UNK        -0.1800 
     29 N           3.0811  -21.0502  -43.0423 N.am      9 UNK        -0.5000 
     30 C           2.1374  -21.8928  -42.6053 C.2       8 UNK         0.5000 
     31 O           1.4765  -22.6205  -43.3474 O.2       8 UNK        -0.5000 
     32 CA          1.8590  -21.9107  -41.0880 C.3       8 UNK         0.1400 
     33 CB          2.8523  -22.8292  -40.3520 C.3       8 UNK        -0.1800 
     34 N           1.7871  -20.5787  -40.4680 N.am      8 UNK        -0.5000 
     35 C           2.7549  -19.6643  -40.3103 C.2       7 UNK         0.5000 
     36 O           3.9335  -19.8335  -40.6311 O.2       7 UNK        -0.5000 
     37 CA          2.3107  -18.2992  -39.7537 C.3       7 UNK         0.1400 
     38 CB          3.0297  -17.9843  -38.4325 C.3       7 UNK        -0.1800 
     39 N           2.5442  -17.2065  -40.7020 N.am      7 UNK        -0.5000 
     40 C           2.0694  -17.1447  -41.9539 C.2       6 UNK         0.5000 
     41 O           1.4109  -18.0403  -42.4869 O.2       6 UNK        -0.5000 
     42 CA          2.3822  -15.8628  -42.7491 C.3       6 UNK         0.1400 
     43 CB          3.3290  -16.1616  -43.9195 C.3       6 UNK        -0.1800 
     44 N           1.1649  -15.2392  -43.2695 N.am      6 UNK        -0.5000 
     45 C           0.2189  -14.6793  -42.5067 C.2       5 UNK         0.5000 
     46 O           0.2730  -14.6238  -41.2743 O.2       5 UNK        -0.5000 
     47 CA         -0.9788  -14.0523  -43.2346 C.3       5 UNK         0.1400 
     48 CB         -2.1243  -15.0623  -43.4112 C.3       5 UNK        -0.1800 
     49 N          -1.4316  -12.9258  -42.4202 N.am      5 UNK        -0.5000 
     50 C          -2.0567  -11.7925  -42.7685 C.2       4 UNK         0.5000 
     51 O          -2.3519  -10.9576  -41.9129 O.2       4 UNK        -0.5000 
     52 CA         -2.4007  -11.5108  -44.2530 C.3       4 UNK         0.1400 
     53 CB         -3.1926  -10.2014  -44.4484 C.3       4 UNK        -0.1800 
     54 N          -1.2345  -11.5146  -45.1385 N.am      4 UNK        -0.5000 
     55 C          -0.0834  -10.8357  -45.0073 C.2       3 UNK         0.5000 
     56 O           0.1347  -10.0097  -44.1208 O.2       3 UNK        -0.5000 
     57 CA          1.0312  -11.1498  -46.0286 C.3       3 UNK         0.1400 
     58 CB          2.1572  -11.9562  -45.3609 C.3       3 UNK        -0.1800 
     59 N           0.5485  -11.8953  -47.1933 N.am      3 UNK        -0.5000 
     60 C          -0.1624  -11.3588  -48.1959 C.2       2 UNK         0.5000 
     61 O          -0.4038  -10.1551  -48.2900 O.2       2 UNK        -0.5000 
     62 CA         -0.7230  -12.3250  -49.2592 C.3       2 UNK         0.1400 
     63 CB          0.1570  -12.3051  -50.5183 C.3       2 UNK        -0.1800 
     64 N          -0.8611  -13.7109  -48.8020 N.am      2 UNK        -0.5000 
     65 C          -1.6658  -14.1385  -47.8167 C.2       1 UNK         0.5000 
     66 O          -2.3788  -13.3928  -47.1460 O.2       1 UNK        -0.5000 
     67 C          -0.9700  -23.6898  -45.9871 C.2       11 UNK         0.5000 
     68 O          -1.5736  -24.4643  -46.7273 O.2       11 UNK        -0.5000 
     69 N           0.3626  -23.7159  -45.8330 N.am      12 UNK        -0.5000 
     70 CA          1.2587  -24.5630  -46.6217 C.3       12 UNK         0.1400 
     71 CB          2.6817  -24.5013  -46.0494 C.3       12 UNK        -0.1800 
     72 C           1.2449  -24.1894  -48.1170 C.2       12 UNK         0.5000 
     73 O           1.1633  -25.0828  -48.9586 O.2       12 UNK        -0.5000 
     74 N           1.2693  -22.8833  -48.4241 N.am      13 UNK        -0.5000 
     75 CA          1.1205  -22.3520  -49.7813 C.3       13 UNK         0.1400 
     76 CB          1.4379  -20.8488  -49.7960 C.3       13 UNK        -0.1800 
     77 C          -0.2743  -22.6306  -50.3719 C.2       13 UNK         0.5000 
     78 O          -0.3755  -22.9808  -51.5477 O.2       13 UNK        -0.5000 
     79 N          -1.3194  -22.5201  -49.5407 N.am      14 UNK        -0.5000 
     80 CA         -2.6927  -22.8855  -49.8879 C.3       14 UNK         0.1400 
     81 CB         -3.6428  -22.4737  -48.7573 C.3       14 UNK        -0.1800 
     82 C          -2.8420  -24.3835  -50.2148 C.2       14 UNK         0.5000 
     83 O          -3.4450  -24.7215  -51.2330 O.2       14 UNK        -0.5000 
     84 N          -2.2463  -25.2517  -49.3843 N.am      15 UNK        -0.5000 
     85 CA         -2.1939  -26.7033  -49.5823 C.3       15 UNK         0.1400 
     86 CB         -1.6204  -27.3729  -48.3246 C.3       15 UNK        -0.1800 
     87 C          -1.3928  -27.1154  -50.8329 C.2       15 UNK         0.5000 
     88 O          -1.7687  -28.0752  -51.5064 O.2       15 UNK        -0.5000 
     89 N          -0.3329  -26.3576  -51.1461 N.am      16 UNK        -0.5000 
     90 CA          0.4639  -26.4788  -52.3699 C.3       16 UNK         0.1400 
     91 CB          1.8182  -25.7849  -52.1525 C.3       16 UNK        -0.1800 
     92 C          -0.2399  -25.9196  -53.6266 C.2       16 UNK         0.5000 
     93 O           0.2907  -26.0801  -54.7267 O.2       16 UNK        -0.5000 
     94 N          -1.4078  -25.2842  -53.4479 N.am      17 UNK        -0.5000 
     95 CA         -2.2635  -24.6704  -54.4638 C.3       17 UNK         0.1400 
     96 CB         -2.8136  -25.7309  -55.4412 C.3       17 UNK        -0.1800 
     97 C          -1.5960  -23.4721  -55.1662 C.2       17 UNK         0.5000 
     98 O          -1.6780  -23.3484  -56.3906 O.2       17 UNK        -0.5000 
     99 N          -0.9550  -22.5986  -54.3755 N.am      18 UNK        -0.5000 
    100 CA        -0.4191  -21.3130  -54.8262 C.3       18 UNK         0.1400 
    101 CB         0.3661  -20.6587  -53.6799 C.3       18 UNK        -0.1800 
    102 C         -1.5323  -20.3715  -55.3292 C.2       18 UNK         0.5000 
    103 O         -2.6447  -20.3872  -54.7928 O.2       18 UNK        -0.5000 
    104 N         -1.2080  -19.5765  -56.3566 N.am      19 UNK        -0.5000 
    105 CA        -2.1279  -18.6736  -57.0478 C.3       19 UNK         0.1400 
    106 CB        -1.3975  -18.0148  -58.2289 C.3       19 UNK        -0.1800 
    107 C         -2.7307  -17.6095  -56.1125 C.2       19 UNK         0.5000 
    108 O         -1.9848  -16.8338  -55.5109 O.2       19 UNK        -0.5000 
    109 N         -4.0680  -17.6056  -56.0220 N.am      20 UNK        -0.5000 
    110 CA        -4.9048  -16.6871  -55.2416 C.3       20 UNK         0.1400 
    111 CB        -4.8205  -15.2578  -55.8190 C.3       20 UNK        -0.1800 
    112 C         -4.6539  -16.7329  -53.7173 C.2       20 UNK         0.5000 
    113 O         -4.8727  -15.7286  -53.0373 O.2       20 UNK        -0.5000 
    114 N         -4.2106  -17.8899  -53.1999 N.am      21 UNK        -0.5000 
    115 CA        -4.0111  -18.1275  -51.7685 C.3       21 UNK         0.1400 
    116 CB        -3.2485  -19.4467  -51.5608 C.3       21 UNK        -0.1800 
    117 C         -5.3450  -18.1173  -50.9991 C.2       21 UNK         0.5000 
    118 O         -5.5242  -17.3074  -50.0891 O.2       21 UNK        -0.5000 
    119 N         -6.2665  -18.9928  -51.4139 N.am      22 UNK        -0.5000 
    120 CA        -7.6414  -19.0595  -50.9016 C.3       22 UNK         0.1400 
    121 C         -8.5858  -18.1367  -51.7176 C.2       22 UNK         0.5000 
    122 N         -9.5998  -17.5617  -51.0855 N.am      22 UNK        -0.7600 
    123 O         -8.4331  -17.9658  -52.9258 O.2       22 UNK        -0.5000 
    124 C124       -8.1805  -20.5126  -50.8769 C.3       23 UNK        -0.0398 
    125 S125       -7.1383  -21.6470  -49.8948 S.3       23 UNK        -0.2404 
    126 C126       -7.7534  -21.3661  -48.2015 C.3       23 UNK        -0.0205 
    127 H127        2.8730  -15.8648  -47.7157 H         1 UNK         0.0600 
    128 H128        1.9503  -17.1444  -48.5084 H         1 UNK         0.0600 
    129 H129        2.4330  -17.3221  -46.8213 H         1 UNK         0.0600 
    130 H130       -0.2912  -16.9280  -48.5115 H         1 UNK         0.3000 
    131 H131       -1.8339  -15.7536  -46.4339 H         1 UNK         0.0600 
    132 H132       -3.7343  -15.8711  -48.0836 H         1 UNK         0.0800 
    133 H133       -2.6122  -16.2868  -49.3424 H         1 UNK         0.0800 
    134 H134       -3.8442  -17.7662  -45.6520 H         1 UNK         0.0800 
    135 H135       -5.0094  -17.3584  -46.8844 H         1 UNK         0.0800 
    136 H136       -6.1578  -19.1587  -48.1960 H         1 UNK         0.1150 
    137 H137       -6.8980  -22.7667  -46.0068 H         1 UNK         0.1150 
    138 H138       -3.9177  -19.9985  -44.6447 H         1 UNK         0.1150 
    139 H139       -4.7853  -21.7466  -43.1341 H         1 UNK         0.0800 
    140 H140       -6.1281  -22.7280  -43.6297 H         1 UNK         0.0800 
    141 H141       -1.7911  -23.8010  -43.4306 H         1 UNK         0.0800 
    142 H142       -2.5245  -22.2399  -43.2399 H         1 UNK         0.0800 
    143 H143       -2.5586  -22.2808  -45.9261 H         1 UNK         0.0600 
    144 H144       -0.6016  -21.1920  -44.1286 H         1 UNK         0.3000 
    145 H145        0.5389  -18.8527  -46.6112 H         1 UNK         0.0600 
    146 H146       -0.0197  -17.4185  -44.6722 H         1 UNK         0.0600 
    147 H147       -1.4964  -18.0297  -45.3883 H         1 UNK         0.0600 
    148 H148       -0.8947  -18.7334  -43.8967 H         1 UNK         0.0600 
    149 H149        1.4921  -19.3389  -43.9809 H         1 UNK         0.3000 
    150 H150        3.9307  -21.8322  -44.7571 H         1 UNK         0.0600 
    151 H151        5.5211  -20.1858  -43.8797 H         1 UNK         0.0600 
    152 H152        4.3437  -18.8877  -44.0460 H         1 UNK         0.0600 
    153 H153        5.0062  -19.6682  -45.4783 H         1 UNK         0.0600 
    154 H154        3.5568  -20.4958  -42.3353 H         1 UNK         0.3000 
    155 H155        0.8654  -22.3443  -40.9634 H         1 UNK         0.0600 
    156 H156        2.8107  -23.8432  -40.7518 H         1 UNK         0.0600 
    157 H157        2.6198  -22.8895  -39.2888 H         1 UNK         0.0600 
    158 H158        3.8818  -22.4847  -40.4515 H         1 UNK         0.0600 
    159 H159        0.8517  -20.2986  -40.2075 H         1 UNK         0.3000 
    160 H160        1.2378  -18.3317  -39.5539 H         1 UNK         0.0600 
    161 H161        2.8650  -18.7760  -37.7004 H         1 UNK         0.0600 
    162 H162        2.6627  -17.0561  -37.9940 H         1 UNK         0.0600 
    163 H163        4.1070  -17.8868  -38.5734 H         1 UNK         0.0600 
    164 H164        3.0897  -16.4319  -40.3541 H         1 UNK         0.3000 
    165 H165        2.8728  -15.1423  -42.0913 H         1 UNK         0.0600 
    166 H166        3.5233  -15.2671  -44.5119 H         1 UNK         0.0600 
    167 H167        4.2902  -16.5276  -43.5577 H         1 UNK         0.0600 
    168 H168        2.9135  -16.9192  -44.5834 H         1 UNK         0.0600 
    169 H169        1.0476  -15.2532  -44.2794 H         1 UNK         0.3000 
    170 H170       -0.6307  -13.7336  -44.2138 H         1 UNK         0.0600 
    171 H171       -1.7916  -15.9352  -43.9699 H         1 UNK         0.0600 
    172 H172       -2.5003  -15.4141  -42.4497 H         1 UNK         0.0600 
    173 H173       -2.9603  -14.6300  -43.9600 H         1 UNK         0.0600 
    174 H174       -1.1687  -13.0416  -41.4495 H         1 UNK         0.3000 
    175 H175       -3.0434  -12.3274  -44.5826 H         1 UNK         0.0600 
    176 H176       -2.6135   -9.3286  -44.1448 H         1 UNK         0.0600 
    177 H177       -3.4766  -10.0670  -45.4922 H         1 UNK         0.0600 
    178 H178       -4.1117  -10.2075  -43.8612 H         1 UNK         0.0600 
    179 H179       -1.3192  -12.1469  -45.9264 H         1 UNK         0.3000 
    180 H180        1.4468  -10.1986  -46.3677 H         1 UNK         0.0600 
    181 H181        2.9666  -12.1612  -46.0618 H         1 UNK         0.0600 
    182 H182        1.7975  -12.9105  -44.9766 H         1 UNK         0.0600 
    183 H183        2.5865  -11.4078  -44.5215 H         1 UNK         0.0600 
    184 H184        0.6998  -12.8951  -47.1836 H         1 UNK         0.3000 
    185 H185       -1.7177  -11.9653  -49.5302 H         1 UNK         0.0600 
    186 H186        1.1603  -12.6808  -50.3135 H         1 UNK         0.0600 
    187 H187       -0.2753  -12.9141  -51.3125 H         1 UNK         0.0600 
    188 H188        0.2595  -11.2915  -50.9085 H         1 UNK         0.0600 
    189 H189       -0.2955  -14.3963  -49.2811 H         1 UNK         0.3000 
    190 H190        0.7912  -23.0955  -45.1534 H         1 UNK         0.3000 
    191 H191        0.9055  -25.5924  -46.5312 H         1 UNK         0.0600 
    192 H192        3.1224  -23.5132  -46.1715 H         1 UNK         0.0600 
    193 H193        3.3337  -25.2123  -46.5581 H         1 UNK         0.0600 
    194 H194        2.6943  -24.7479  -44.9876 H         1 UNK         0.0600 
    195 H195        1.3830  -22.2013  -47.6806 H         1 UNK         0.3000 
    196 H196        1.8540  -22.8533  -50.4155 H         1 UNK         0.0600 
    197 H197        1.3819  -20.4482  -50.8084 H         1 UNK         0.0600 
    198 H198        2.4448  -20.6558  -49.4256 H         1 UNK         0.0600 
    199 H199        0.7425  -20.2788  -49.1806 H         1 UNK         0.0600 
    200 H200       -1.1614  -22.1439  -48.6106 H         1 UNK         0.3000 
    201 H201       -2.9673  -22.3227  -50.7817 H         1 UNK         0.0600 
    202 H202       -3.5648  -21.4094  -48.5329 H         1 UNK         0.0600 
    203 H203       -3.4525  -23.0291  -47.8421 H         1 UNK         0.0600 
    204 H204       -4.6746  -22.6783  -49.0333 H         1 UNK         0.0600 
    205 H205       -1.8194  -24.8967  -48.5315 H         1 UNK         0.3000 
    206 H206       -3.2184  -27.0560  -49.7169 H         1 UNK         0.0600 
    207 H207       -0.6040  -27.0371  -48.1180 H         1 UNK         0.0600 
    208 H208       -2.2298  -27.1517  -47.4481 H         1 UNK         0.0600 
    209 H209       -1.5925  -28.4574  -48.4366 H         1 UNK         0.0600 
    210 H210       -0.0465  -25.6350  -50.4935 H         1 UNK         0.3000 
    211 H211        0.6532  -27.5386  -52.5513 H         1 UNK         0.0600 
    212 H212        1.6983  -24.7139  -51.9916 H         1 UNK         0.0600 
    213 H213        2.4695  -25.9147  -53.0176 H         1 UNK         0.0600 
    214 H214        2.3404  -26.1980  -51.2894 H         1 UNK         0.0600 
    215 H215       -1.7444  -25.1849  -52.4981 H         1 UNK         0.3000 
    216 H216       -3.1173  -24.2570  -53.9255 H         1 UNK         0.0600 
    217 H217       -3.5608  -25.2966  -56.1064 H         1 UNK         0.0600 
    218 H218       -3.2948  -26.5484  -54.9043 H         1 UNK         0.0600 
    219 H219       -2.0286  -26.1558  -56.0670 H         1 UNK         0.0600 
    220 H220       -0.8975  -22.7847  -53.3774 H         1 UNK         0.3000 
    221 H221        0.2710  -21.5117  -55.6487 H         1 UNK         0.0600 
    222 H222       -0.2729  -20.4605  -52.8194 H         1 UNK         0.0600 
    223 H223        1.1848  -21.2977  -53.3483 H         1 UNK         0.0600 
    224 H224        0.8003  -19.7083  -53.9927 H         1 UNK         0.0600 
    225 H225       -0.2642  -19.6037  -56.7133 H         1 UNK         0.3000 
    226 H226       -2.9367  -19.2844  -57.4545 H         1 UNK         0.0600 
    227 H227       -1.0383  -18.7609  -58.9380 H         1 UNK         0.0600 
    228 H228       -2.0632  -17.3442  -58.7738 H         1 UNK         0.0600 
    229 H229       -0.5410  -17.4272  -57.8959 H         1 UNK         0.0600 
    230 H230       -4.5770  -18.3098  -56.5385 H         1 UNK         0.3000 
    231 H231       -5.9315  -17.0303  -55.3771 H         1 UNK         0.0600 
    232 H232       -5.5545  -14.6008  -55.3510 H         1 UNK         0.0600 
    233 H233       -5.0217  -15.2523  -56.8903 H         1 UNK         0.0600 
    234 H234       -3.8370  -14.8146  -55.6598 H         1 UNK         0.0600 
    235 H235       -4.0106  -18.6604  -53.8248 H         1 UNK         0.3000 
    236 H236       -3.3929  -17.3189  -51.3745 H         1 UNK         0.0600 
    237 H237       -3.1262  -19.6682  -50.4999 H         1 UNK         0.0600 
    238 H238       -3.7656  -20.2920  -52.0159 H         1 UNK         0.0600 
    239 H239       -2.2518  -19.3933  -51.9971 H         1 UNK         0.0600 
    240 H240       -6.0572  -19.5865  -52.2019 H         1 UNK         0.3000 
    241 H241       -7.6490  -18.6954  -49.8732 H         1 UNK         0.0600 
    242 H242      -10.2287  -16.9715  -51.6081 H         1 UNK         0.3800 
    243 H243       -9.7521  -17.6885  -50.0967 H         1 UNK         0.3800 
    244 H244       -9.1989  -20.5426  -50.4856 H         1 UNK         0.0800 
    245 H245       -8.2383  -20.9100  -51.8916 H         1 UNK         0.0800 
    246 H246       -8.2842  -22.2608  -47.8732 H         1 UNK         0.0800 
    247 H247       -8.4863  -20.5585  -48.1909 H         1 UNK         0.0800 
@<TRIPOS>BOND
     1    1    2 1    
     2    1  127 1    
     3    1  128 1    
     4    1  129 1    
     5    2    3 2    
     6    2    4 am   BACKBONE|DICT|INTERRES
     7    4    5 1    
     8    4  130 1    
     9    5    6 1    
    10    5   65 1    
    11    5  131 1    
    12    6    7 1    
    13    6  132 1    
    14    6  133 1    
    15    7    8 1    
    16    8    9 1    
    17    8  134 1    
    18    8  135 1    
    19    9   10 ar   
    20    9   14 ar   
    21   10   11 ar   
    22   10  136 1    
    23   11   12 ar   
    24   11  126 1    
    25   12   13 ar   
    26   12  137 1    
    27   13   14 ar   
    28   13   15 1    
    29   14  138 1    
    30   15   16 1    
    31   15  139 1    
    32   15  140 1    
    33   16   17 1    
    34   17   18 1    
    35   17  141 1    
    36   17  142 1    
    37   18   19 1    
    38   18   67 1    
    39   18  143 1    
    40   19   20 am   BACKBONE|DICT|INTERRES
    41   19  144 1    
    42   20   21 2    
    43   20   22 1    
    44   22   23 1    
    45   22   24 1    
    46   22  145 1    
    47   23  146 1    
    48   23  147 1    
    49   23  148 1    
    50   24   25 am   BACKBONE|DICT|INTERRES
    51   24  149 1    
    52   25   26 2    
    53   25   27 1    
    54   27   28 1    
    55   27   29 1    
    56   27  150 1    
    57   28  151 1    
    58   28  152 1    
    59   28  153 1    
    60   29   30 am   BACKBONE|DICT|INTERRES
    61   29  154 1    
    62   30   31 2    
    63   30   32 1    
    64   32   33 1    
    65   32   34 1    
    66   32  155 1    
    67   33  156 1    
    68   33  157 1    
    69   33  158 1    
    70   34   35 am   BACKBONE|DICT|INTERRES
    71   34  159 1    
    72   35   36 2    
    73   35   37 1    
    74   37   38 1    
    75   37   39 1    
    76   37  160 1    
    77   38  161 1    
    78   38  162 1    
    79   38  163 1    
    80   39   40 am   BACKBONE|DICT|INTERRES
    81   39  164 1    
    82   40   41 2    
    83   40   42 1    
    84   42   43 1    
    85   42   44 1    
    86   42  165 1    
    87   43  166 1    
    88   43  167 1    
    89   43  168 1    
    90   44   45 am   BACKBONE|DICT|INTERRES
    91   44  169 1    
    92   45   46 2    
    93   45   47 1    
    94   47   48 1    
    95   47   49 1    
    96   47  170 1    
    97   48  171 1    
    98   48  172 1    
    99   48  173 1    
   100   49   50 am   BACKBONE|DICT|INTERRES
   101   49  174 1    
   102   50   51 2    
   103   50   52 1    
   104   52   53 1    
   105   52   54 1    
   106   52  175 1    
   107   53  176 1    
   108   53  177 1    
   109   53  178 1    
   110   54   55 am   BACKBONE|DICT|INTERRES
   111   54  179 1    
   112   55   56 2    
   113   55   57 1    
   114   57   58 1    
   115   57   59 1    
   116   57  180 1    
   117   58  181 1    
   118   58  182 1    
   119   58  183 1    
   120   59   60 am   BACKBONE|DICT|INTERRES
   121   59  184 1    
   122   60   61 2    
   123   60   62 1    
   124   62   63 1    
   125   62   64 1    
   126   62  185 1    
   127   63  186 1    
   128   63  187 1    
   129   63  188 1    
   130   64   65 am   BACKBONE|DICT|INTERRES
   131   64  189 1    
   132   65   66 2    
   133   67   68 2    
   134   67   69 am   BACKBONE|DICT|INTERRES
   135   69   70 1    
   136   69  190 1    
   137   70   71 1    
   138   70   72 1    
   139   70  191 1    
   140   71  192 1    
   141   71  193 1    
   142   71  194 1    
   143   72   73 2    
   144   72   74 am   BACKBONE|DICT|INTERRES
   145   74   75 1    
   146   74  195 1    
   147   75   76 1    
   148   75   77 1    
   149   75  196 1    
   150   76  197 1    
   151   76  198 1    
   152   76  199 1    
   153   77   78 2    
   154   77   79 am   BACKBONE|DICT|INTERRES
   155   79   80 1    
   156   79  200 1    
   157   80   81 1    
   158   80   82 1    
   159   80  201 1    
   160   81  202 1    
   161   81  203 1    
   162   81  204 1    
   163   82   83 2    
   164   82   84 am   BACKBONE|DICT|INTERRES
   165   84   85 1    
   166   84  205 1    
   167   85   86 1    
   168   85   87 1    
   169   85  206 1    
   170   86  207 1    
   171   86  208 1    
   172   86  209 1    
   173   87   88 2    
   174   87   89 am   BACKBONE|DICT|INTERRES
   175   89   90 1    
   176   89  210 1    
   177   90   91 1    
   178   90   92 1    
   179   90  211 1    
   180   91  212 1    
   181   91  213 1    
   182   91  214 1    
   183   92   93 2    
   184   92   94 am   BACKBONE|DICT|INTERRES
   185   94   95 1    
   186   94  215 1    
   187   95   96 1    
   188   95   97 1    
   189   95  216 1    
   190   96  217 1    
   191   96  218 1    
   192   96  219 1    
   193   97   98 2    
   194   97   99 am   BACKBONE|DICT|INTERRES
   195   99  100 1    
   196   99  220 1    
   197  100  101 1    
   198  100  102 1    
   199  100  221 1    
   200  101  222 1    
   201  101  223 1    
   202  101  224 1    
   203  102  103 2    
   204  102  104 am   BACKBONE|DICT|INTERRES
   205  104  105 1    
   206  104  225 1    
   207  105  106 1    
   208  105  107 1    
   209  105  226 1    
   210  106  227 1    
   211  106  228 1    
   212  106  229 1    
   213  107  108 2    
   214  107  109 am   BACKBONE|DICT|INTERRES
   215  109  110 1    
   216  109  230 1    
   217  110  111 1    
   218  110  112 1    
   219  110  231 1    
   220  111  232 1    
   221  111  233 1    
   222  111  234 1    
   223  112  113 2    
   224  112  114 am   BACKBONE|DICT|INTERRES
   225  114  115 1    
   226  114  235 1    
   227  115  116 1    
   228  115  117 1    
   229  115  236 1    
   230  116  237 1    
   231  116  238 1    
   232  116  239 1    
   233  117  118 2    
   234  117  119 am   BACKBONE|DICT|INTERRES
   235  119  120 1    
   236  119  240 1    
   237  120  121 1    
   238  120  124 1    
   239  120  241 1    
   240  121  122 am   BACKBONE|DICT|INTERRES
   241  121  123 2    
   242  122  242 1    
   243  122  243 1    
   244  124  125 1    
   245  124  244 1    
   246  124  245 1    
   247  125  126 1    
   248  126  246 1    
   249  126  247 1    
@<TRIPOS>SUBSTRUCTURE
     1 UNK         1 GROUP             0       ****    0 ROOT    
