@<TRIPOS>MOLECULE
3R540
247   249    1
SMALL
USER_CHARGES


@<TRIPOS>ATOM
      1 CA         -4.8956  -12.0585  -47.0835 C.3       0 UNK        -0.1800 
      2 C          -4.5382  -13.3223  -46.3055 C.2       0 UNK         0.5000 
      3 O          -5.4369  -13.9988  -45.8099 O.2       0 UNK        -0.5000 
      4 N          -3.2571  -13.6822  -46.1590 N.am      1 UNK        -0.5000 
      5 CA         -2.0653  -12.9845  -46.6524 C.3       1 UNK         0.1400 
      6 C6         -1.3526  -13.7644  -47.7894 C.3       23 UNK        -0.0398 
      7 S7         -2.3551  -13.8165  -49.3145 S.3       23 UNK        -0.2404 
      8 C8         -2.9308  -15.5428  -49.3401 C.3       23 UNK        -0.0205 
      9 C9         -1.9192  -16.4608  -50.0095 C.ar      23 UNK        -0.0193 
     10 C10        -1.8963  -16.5756  -51.4036 C.ar      23 UNK        -0.1150 
     11 C11        -0.9823  -17.4263  -52.0319 C.ar      23 UNK        -0.0193 
     12 C12        -0.0807  -18.1564  -51.2532 C.ar      23 UNK        -0.1150 
     13 C13        -0.0882  -18.0462  -49.8613 C.ar      23 UNK        -0.0193 
     14 C14        -1.0150  -17.2016  -49.2428 C.ar      23 UNK        -0.1150 
     15 C15         0.9269  -18.8193  -49.0351 C.3       23 UNK        -0.0205 
     16 S16         0.6587  -20.6182  -49.1023 S.3       23 UNK        -0.2404 
     17 C17        -0.9586  -20.8048  -48.2807 C.3       23 UNK        -0.0398 
     18 CA         -1.0531  -22.1513  -47.5275 C.3       11 UNK         0.1400 
     19 N          -0.1107  -22.2462  -46.4035 N.am      11 UNK        -0.5000 
     20 C           0.1142  -23.3538  -45.6812 C.2       10 UNK         0.5000 
     21 O          -0.4606  -24.4232  -45.8843 O.2       10 UNK        -0.5000 
     22 CA          1.0967  -23.2381  -44.5055 C.3       10 UNK         0.1400 
     23 CB          2.5539  -23.2600  -44.9920 C.3       10 UNK        -0.1800 
     24 N           0.8424  -22.0266  -43.7274 N.am      10 UNK        -0.5000 
     25 C          -0.1287  -21.9157  -42.8094 C.2       9 UNK         0.5000 
     26 O          -0.8523  -22.8515  -42.4680 O.2       9 UNK        -0.5000 
     27 CA         -0.3486  -20.5268  -42.1749 C.3       9 UNK         0.1400 
     28 CB          0.5034  -20.3768  -40.9057 C.3       9 UNK        -0.1800 
     29 N          -0.0590  -19.4124  -43.0782 N.am      9 UNK        -0.5000 
     30 C          -0.7000  -19.1709  -44.2299 C.2       8 UNK         0.5000 
     31 O          -1.6488  -19.8369  -44.6388 O.2       8 UNK        -0.5000 
     32 CA         -0.1389  -18.0444  -45.1142 C.3       8 UNK         0.1400 
     33 CB         -0.7194  -16.6842  -44.7084 C.3       8 UNK        -0.1800 
     34 N           1.3252  -17.9855  -45.1139 N.am      8 UNK        -0.5000 
     35 C           2.1328  -18.9916  -45.4819 C.2       7 UNK         0.5000 
     36 O           1.7228  -20.0879  -45.8582 O.2       7 UNK        -0.5000 
     37 CA          3.6443  -18.7477  -45.3786 C.3       7 UNK         0.1400 
     38 CB          4.1528  -17.9466  -46.5871 C.3       7 UNK        -0.1800 
     39 N           3.9698  -18.0474  -44.1385 N.am      7 UNK        -0.5000 
     40 C           4.0780  -18.6478  -42.9451 C.2       6 UNK         0.5000 
     41 O           4.0069  -19.8665  -42.7842 O.2       6 UNK        -0.5000 
     42 CA          4.2749  -17.7338  -41.7197 C.3       6 UNK         0.1400 
     43 CB          5.7691  -17.4792  -41.4714 C.3       6 UNK        -0.1800 
     44 N           3.5815  -16.4494  -41.8382 N.am      6 UNK        -0.5000 
     45 C           2.2495  -16.3057  -41.8726 C.2       5 UNK         0.5000 
     46 O           1.4583  -17.2448  -41.7877 O.2       5 UNK        -0.5000 
     47 CA          1.7107  -14.8763  -42.0785 C.3       5 UNK         0.1400 
     48 CB          1.5729  -14.1643  -40.7247 C.3       5 UNK        -0.1800 
     49 N           2.4982  -14.0399  -42.9932 N.am      5 UNK        -0.5000 
     50 C           2.8604  -14.3662  -44.2438 C.2       4 UNK         0.5000 
     51 O           2.6482  -15.4696  -44.7477 O.2       4 UNK        -0.5000 
     52 CA          3.5430  -13.2601  -45.0643 C.3       4 UNK         0.1400 
     53 CB          3.8276  -13.6765  -46.5191 C.3       4 UNK        -0.1800 
     54 N           2.6734  -12.0906  -45.0585 N.am      4 UNK        -0.5000 
     55 C           3.0518  -10.8273  -44.8276 C.2       3 UNK         0.5000 
     56 O           4.2235  -10.4836  -44.6676 O.2       3 UNK        -0.5000 
     57 CA          1.9332   -9.7648  -44.7394 C.3       3 UNK         0.1400 
     58 CB          1.8202   -8.9944  -46.0638 C.3       3 UNK        -0.1800 
     59 N           0.6205  -10.3248  -44.4053 N.am      3 UNK        -0.5000 
     60 C           0.3153  -10.9364  -43.2521 C.2       2 UNK         0.5000 
     61 O           1.0783  -10.9784  -42.2870 O.2       2 UNK        -0.5000 
     62 CA         -1.0447  -11.6623  -43.1705 C.3       2 UNK         0.1400 
     63 CB         -2.0338  -10.8531  -42.3182 C.3       2 UNK        -0.1800 
     64 N          -1.6752  -11.9707  -44.4616 N.am      2 UNK        -0.5000 
     65 C          -1.1527  -12.7257  -45.4400 C.2       1 UNK         0.5000 
     66 O          -0.0219  -13.2091  -45.3930 O.2       1 UNK        -0.5000 
     67 C          -2.5068  -22.4586  -47.1112 C.2       11 UNK         0.5000 
     68 O          -3.2325  -23.0872  -47.8823 O.2       11 UNK        -0.5000 
     69 N          -2.8834  -22.0919  -45.8788 N.am      12 UNK        -0.5000 
     70 CA         -4.1593  -22.4258  -45.2411 C.3       12 UNK         0.1400 
     71 CB         -4.2583  -21.6817  -43.9007 C.3       12 UNK        -0.1800 
     72 C          -4.3966  -23.9378  -45.0331 C.2       12 UNK         0.5000 
     73 O          -5.5476  -24.3367  -44.8552 O.2       12 UNK        -0.5000 
     74 N          -3.3317  -24.7490  -45.0684 N.am      13 UNK        -0.5000 
     75 CA         -3.4027  -26.2081  -45.0407 C.3       13 UNK         0.1400 
     76 CB         -2.3602  -26.7487  -44.0486 C.3       13 UNK        -0.1800 
     77 C          -3.1754  -26.7953  -46.4441 C.2       13 UNK         0.5000 
     78 O          -3.9109  -27.6963  -46.8481 O.2       13 UNK        -0.5000 
     79 N          -2.1551  -26.2914  -47.1534 N.am      14 UNK        -0.5000 
     80 CA         -1.6966  -26.8156  -48.4404 C.3       14 UNK         0.1400 
     81 CB         -0.3033  -26.2468  -48.7512 C.3       14 UNK        -0.1800 
     82 C          -2.6627  -26.5456  -49.6076 C.2       14 UNK         0.5000 
     83 O          -2.8761  -27.4395  -50.4279 O.2       14 UNK        -0.5000 
     84 N          -3.2149  -25.3278  -49.6686 N.am      15 UNK        -0.5000 
     85 CA         -4.1453  -24.8878  -50.7101 C.3       15 UNK         0.1400 
     86 CB         -3.6163  -23.5926  -51.3491 C.3       15 UNK        -0.1800 
     87 C          -5.5578  -24.6739  -50.1450 C.2       15 UNK         0.5000 
     88 O          -6.5330  -24.9460  -50.8456 O.2       15 UNK        -0.5000 
     89 N          -5.6441  -24.1808  -48.9000 N.am      16 UNK        -0.5000 
     90 CA         -6.8401  -23.8841  -48.0983 C.3       16 UNK         0.1400 
     91 CB         -7.7028  -25.1392  -47.8700 C.3       16 UNK        -0.1800 
     92 C          -7.6733  -22.7011  -48.6232 C.2       16 UNK         0.5000 
     93 O          -7.9600  -21.7756  -47.8640 O.2       16 UNK        -0.5000 
     94 N          -8.0061  -22.7270  -49.9170 N.am      17 UNK        -0.5000 
     95 CA         -8.6656  -21.6434  -50.6476 C.3       17 UNK         0.1400 
     96 CB         -9.4264  -22.2561  -51.8347 C.3       17 UNK        -0.1800 
     97 C          -7.6748  -20.5654  -51.1375 C.2       17 UNK         0.5000 
     98 O          -8.1143  -19.5544  -51.6873 O.2       17 UNK        -0.5000 
     99 N          -6.3677  -20.8119  -50.9510 N.am      18 UNK        -0.5000 
    100 CA        -5.2279  -20.0623  -51.4876 C.3       18 UNK         0.1400 
    101 CB        -5.2012  -18.6152  -50.9486 C.3       18 UNK        -0.1800 
    102 C         -5.1611  -20.1582  -53.0281 C.2       18 UNK         0.5000 
    103 O         -5.7176  -21.0973  -53.6032 O.2       18 UNK        -0.5000 
    104 N         -4.4411  -19.2222  -53.6640 N.am      19 UNK        -0.5000 
    105 CA        -4.2081  -19.0591  -55.1087 C.3       19 UNK         0.1400 
    106 CB        -5.5265  -18.8282  -55.8704 C.3       19 UNK        -0.1800 
    107 C         -3.3786  -20.1819  -55.7639 C.2       19 UNK         0.5000 
    108 O         -2.4081  -19.8862  -56.4616 O.2       19 UNK        -0.5000 
    109 N         -3.7344  -21.4450  -55.5021 N.am      20 UNK        -0.5000 
    110 CA        -3.0918  -22.6554  -56.0248 C.3       20 UNK         0.1400 
    111 CB        -3.9080  -23.8798  -55.5833 C.3       20 UNK        -0.1800 
    112 C         -1.6175  -22.8117  -55.6035 C.2       20 UNK         0.5000 
    113 O         -0.8402  -23.4349  -56.3266 O.2       20 UNK        -0.5000 
    114 N         -1.2582  -22.2206  -54.4566 N.am      21 UNK        -0.5000 
    115 CA         0.1113  -22.1357  -53.9505 C.3       21 UNK         0.1400 
    116 CB         0.0553  -21.7961  -52.4537 C.3       21 UNK        -0.1800 
    117 C          0.9843  -21.1142  -54.7121 C.2       21 UNK         0.5000 
    118 O          2.2104  -21.2096  -54.6444 O.2       21 UNK        -0.5000 
    119 N          0.3498  -20.1651  -55.4122 N.am      22 UNK        -0.5000 
    120 CA         1.0014  -19.1335  -56.2340 C.3       22 UNK         0.1400 
    121 C          0.9421  -19.4870  -57.7436 C.2       22 UNK         0.5000 
    122 N         -0.1728  -20.0024  -58.2477 N.am      22 UNK        -0.7600 
    123 O          1.9182  -19.2973  -58.4639 O.2       22 UNK        -0.5000 
    124 C124        0.3897  -17.7291  -55.9919 C.3       23 UNK        -0.0398 
    125 S125        0.6238  -17.1437  -54.2801 S.3       23 UNK        -0.2404 
    126 C126       -0.9830  -17.5824  -53.5449 C.3       23 UNK        -0.0205 
    127 H127       -4.5188  -11.1720  -46.5736 H         1 UNK         0.0600 
    128 H128       -4.4835  -12.0887  -48.0916 H         1 UNK         0.0600 
    129 H129       -5.9774  -11.9573  -47.1724 H         1 UNK         0.0600 
    130 H130       -3.0592  -14.5047  -45.6075 H         1 UNK         0.3000 
    131 H131       -2.3164  -11.9962  -47.0390 H         1 UNK         0.0600 
    132 H132       -1.0979  -14.7751  -47.4690 H         1 UNK         0.0800 
    133 H133       -0.4072  -13.2834  -48.0466 H         1 UNK         0.0800 
    134 H134       -3.8746  -15.5873  -49.8856 H         1 UNK         0.0800 
    135 H135       -3.1541  -15.8799  -48.3267 H         1 UNK         0.0800 
    136 H136       -2.5960  -16.0029  -51.9961 H         1 UNK         0.1150 
    137 H137        0.6356  -18.8090  -51.7326 H         1 UNK         0.1150 
    138 H138       -1.0272  -17.1113  -48.1667 H         1 UNK         0.1150 
    139 H139        1.9276  -18.6021  -49.4108 H         1 UNK         0.0800 
    140 H140        0.9153  -18.4841  -48.0008 H         1 UNK         0.0800 
    141 H141       -1.7257  -20.7341  -49.0545 H         1 UNK         0.0800 
    142 H142       -1.1295  -19.9726  -47.5976 H         1 UNK         0.0800 
    143 H143       -0.7747  -22.9358  -48.2331 H         1 UNK         0.0600 
    144 H144        0.4405  -21.4152  -46.2016 H         1 UNK         0.3000 
    145 H145        0.9518  -24.1084  -43.8615 H         1 UNK         0.0600 
    146 H146        3.2491  -23.1799  -44.1561 H         1 UNK         0.0600 
    147 H147        2.7735  -24.1943  -45.5100 H         1 UNK         0.0600 
    148 H148        2.7702  -22.4473  -45.6848 H         1 UNK         0.0600 
    149 H149        1.3575  -21.1993  -43.9988 H         1 UNK         0.3000 
    150 H150       -1.4010  -20.4586  -41.8919 H         1 UNK         0.0600 
    151 H151        0.3085  -21.1884  -40.2035 H         1 UNK         0.0600 
    152 H152        0.2819  -19.4417  -40.3909 H         1 UNK         0.0600 
    153 H153        1.5698  -20.3872  -41.1355 H         1 UNK         0.0600 
    154 H154        0.6736  -18.7714  -42.7883 H         1 UNK         0.3000 
    155 H155       -0.4547  -18.2468  -46.1368 H         1 UNK         0.0600 
    156 H156       -0.5339  -16.4682  -43.6575 H         1 UNK         0.0600 
    157 H157       -1.7991  -16.6626  -44.8597 H         1 UNK         0.0600 
    158 H158       -0.2876  -15.8788  -45.3016 H         1 UNK         0.0600 
    159 H159        1.7489  -17.0978  -44.8541 H         1 UNK         0.3000 
    160 H160        4.1453  -19.7183  -45.3849 H         1 UNK         0.0600 
    161 H161        5.2266  -17.7719  -46.5208 H         1 UNK         0.0600 
    162 H162        3.6600  -16.9782  -46.6736 H         1 UNK         0.0600 
    163 H163        3.9678  -18.4891  -47.5151 H         1 UNK         0.0600 
    164 H164        3.9513  -17.0360  -44.1774 H         1 UNK         0.3000 
    165 H165        3.8683  -18.2563  -40.8511 H         1 UNK         0.0600 
    166 H166        5.9250  -16.9015  -40.5601 H         1 UNK         0.0600 
    167 H167        6.3111  -18.4189  -41.3557 H         1 UNK         0.0600 
    168 H168        6.2281  -16.9351  -42.2978 H         1 UNK         0.0600 
    169 H169        4.1564  -15.6240  -41.9218 H         1 UNK         0.3000 
    170 H170        0.7137  -14.9616  -42.5111 H         1 UNK         0.0600 
    171 H171        1.0005  -14.7693  -40.0200 H         1 UNK         0.0600 
    172 H172        2.5457  -13.9663  -40.2732 H         1 UNK         0.0600 
    173 H173        1.0504  -13.2140  -40.8268 H         1 UNK         0.0600 
    174 H174        2.6914  -13.1002  -42.6756 H         1 UNK         0.3000 
    175 H175        4.4918  -13.0374  -44.5724 H         1 UNK         0.0600 
    176 H176        2.9102  -13.9412  -47.0468 H         1 UNK         0.0600 
    177 H177        4.3110  -12.8706  -47.0714 H         1 UNK         0.0600 
    178 H178        4.4922  -14.5403  -46.5562 H         1 UNK         0.0600 
    179 H179        1.6831  -12.3006  -45.1568 H         1 UNK         0.3000 
    180 H180        2.2103   -9.0601  -43.9526 H         1 UNK         0.0600 
    181 H181        1.5281   -9.6490  -46.8859 H         1 UNK         0.0600 
    182 H182        2.7732   -8.5361  -46.3319 H         1 UNK         0.0600 
    183 H183        1.0847   -8.1928  -45.9933 H         1 UNK         0.0600 
    184 H184       -0.0694  -10.3289  -45.1413 H         1 UNK         0.3000 
    185 H185       -0.8617  -12.6137  -42.6670 H         1 UNK         0.0600 
    186 H186       -1.6161  -10.6333  -41.3346 H         1 UNK         0.0600 
    187 H187       -2.2840   -9.9015  -42.7888 H         1 UNK         0.0600 
    188 H188       -2.9608  -11.4041  -42.1582 H         1 UNK         0.0600 
    189 H189       -2.6163  -11.6253  -44.5809 H         1 UNK         0.3000 
    190 H190       -2.2539  -21.5069  -45.3352 H         1 UNK         0.3000 
    191 H191       -4.9562  -22.0600  -45.8912 H         1 UNK         0.0600 
    192 H192       -3.4489  -21.9627  -43.2261 H         1 UNK         0.0600 
    193 H193       -5.1998  -21.9022  -43.3958 H         1 UNK         0.0600 
    194 H194       -4.2156  -20.6022  -44.0450 H         1 UNK         0.0600 
    195 H195       -2.4147  -24.3477  -45.2238 H         1 UNK         0.3000 
    196 H196       -4.3856  -26.5385  -44.6985 H         1 UNK         0.0600 
    197 H197       -2.3967  -27.8377  -43.9999 H         1 UNK         0.0600 
    198 H198       -2.5448  -26.3715  -43.0427 H         1 UNK         0.0600 
    199 H199       -1.3447  -26.4665  -44.3280 H         1 UNK         0.0600 
    200 H200       -1.5698  -25.5773  -46.7259 H         1 UNK         0.3000 
    201 H201       -1.5981  -27.8987  -48.3407 H         1 UNK         0.0600 
    202 H202        0.4084  -26.4939  -47.9632 H         1 UNK         0.0600 
    203 H203       -0.3233  -25.1622  -48.8543 H         1 UNK         0.0600 
    204 H204        0.0874  -26.6574  -49.6830 H         1 UNK         0.0600 
    205 H205       -3.0134  -24.6578  -48.9333 H         1 UNK         0.3000 
    206 H206       -4.2259  -25.6378  -51.4996 H         1 UNK         0.0600 
    207 H207       -2.6664  -23.7678  -51.8540 H         1 UNK         0.0600 
    208 H208       -4.3139  -23.2101  -52.0953 H         1 UNK         0.0600 
    209 H209       -3.4599  -22.8089  -50.6077 H         1 UNK         0.0600 
    210 H210       -4.7696  -23.9120  -48.4556 H         1 UNK         0.3000 
    211 H211       -6.4659  -23.5720  -47.1260 H         1 UNK         0.0600 
    212 H212       -8.1373  -25.5155  -48.7962 H         1 UNK         0.0600 
    213 H213       -8.5265  -24.9235  -47.1886 H         1 UNK         0.0600 
    214 H214       -7.1143  -25.9412  -47.4239 H         1 UNK         0.0600 
    215 H215       -7.7026  -23.5323  -50.4600 H         1 UNK         0.3000 
    216 H216       -9.3886  -21.1538  -49.9919 H         1 UNK         0.0600 
    217 H217       -9.9729  -21.4917  -52.3884 H         1 UNK         0.0600 
    218 H218      -10.1543  -22.9946  -51.4982 H         1 UNK         0.0600 
    219 H219       -8.7481  -22.7469  -52.5343 H         1 UNK         0.0600 
    220 H220       -6.1390  -21.6862  -50.5039 H         1 UNK         0.3000 
    221 H221       -4.3355  -20.5650  -51.1136 H         1 UNK         0.0600 
    222 H222       -5.9756  -17.9948  -51.4007 H         1 UNK         0.0600 
    223 H223       -5.3473  -18.5960  -49.8685 H         1 UNK         0.0600 
    224 H224       -4.2416  -18.1390  -51.1446 H         1 UNK         0.0600 
    225 H225       -4.0131  -18.5115  -53.0883 H         1 UNK         0.3000 
    226 H226       -3.6199  -18.1459  -55.2091 H         1 UNK         0.0600 
    227 H227       -6.0773  -17.9839  -55.4559 H         1 UNK         0.0600 
    228 H228       -5.3343  -18.6065  -56.9209 H         1 UNK         0.0600 
    229 H229       -6.1787  -19.7013  -55.8376 H         1 UNK         0.0600 
    230 H230       -4.5408  -21.5756  -54.8939 H         1 UNK         0.3000 
    231 H231       -3.1161  -22.5987  -57.1148 H         1 UNK         0.0600 
    232 H232       -4.9354  -23.8193  -55.9427 H         1 UNK         0.0600 
    233 H233       -3.9383  -23.9725  -54.4971 H         1 UNK         0.0600 
    234 H234       -3.4789  -24.8007  -55.9802 H         1 UNK         0.0600 
    235 H235       -1.9708  -21.7446  -53.9251 H         1 UNK         0.3000 
    236 H236        0.5848  -23.1137  -54.0597 H         1 UNK         0.0600 
    237 H237        1.0574  -21.6739  -52.0405 H         1 UNK         0.0600 
    238 H238       -0.4915  -20.8713  -52.2706 H         1 UNK         0.0600 
    239 H239       -0.4316  -22.5889  -51.8859 H         1 UNK         0.0600 
    240 H240       -0.6585  -20.2027  -55.4836 H         1 UNK         0.3000 
    241 H241        2.0589  -19.0733  -55.9690 H         1 UNK         0.0600 
    242 H242       -0.2127  -20.2391  -59.2262 H         1 UNK         0.3800 
    243 H243       -1.0064  -20.0903  -57.6732 H         1 UNK         0.3800 
    244 H244       -0.6722  -17.7164  -56.2432 H         1 UNK         0.0800 
    245 H245        0.8619  -16.9953  -56.6476 H         1 UNK         0.0800 
    246 H246       -1.7568  -16.9619  -53.9989 H         1 UNK         0.0800 
    247 H247       -1.2285  -18.6169  -53.7834 H         1 UNK         0.0800 
@<TRIPOS>BOND
     1    1    2 1    
     2    1  127 1    
     3    1  128 1    
     4    1  129 1    
     5    2    3 2    
     6    2    4 am   BACKBONE|DICT|INTERRES
     7    4    5 1    
     8    4  130 1    
     9    5    6 1    
    10    5   65 1    
    11    5  131 1    
    12    6    7 1    
    13    6  132 1    
    14    6  133 1    
    15    7    8 1    
    16    8    9 1    
    17    8  134 1    
    18    8  135 1    
    19    9   10 ar   
    20    9   14 ar   
    21   10   11 ar   
    22   10  136 1    
    23   11   12 ar   
    24   11  126 1    
    25   12   13 ar   
    26   12  137 1    
    27   13   14 ar   
    28   13   15 1    
    29   14  138 1    
    30   15   16 1    
    31   15  139 1    
    32   15  140 1    
    33   16   17 1    
    34   17   18 1    
    35   17  141 1    
    36   17  142 1    
    37   18   19 1    
    38   18   67 1    
    39   18  143 1    
    40   19   20 am   BACKBONE|DICT|INTERRES
    41   19  144 1    
    42   20   21 2    
    43   20   22 1    
    44   22   23 1    
    45   22   24 1    
    46   22  145 1    
    47   23  146 1    
    48   23  147 1    
    49   23  148 1    
    50   24   25 am   BACKBONE|DICT|INTERRES
    51   24  149 1    
    52   25   26 2    
    53   25   27 1    
    54   27   28 1    
    55   27   29 1    
    56   27  150 1    
    57   28  151 1    
    58   28  152 1    
    59   28  153 1    
    60   29   30 am   BACKBONE|DICT|INTERRES
    61   29  154 1    
    62   30   31 2    
    63   30   32 1    
    64   32   33 1    
    65   32   34 1    
    66   32  155 1    
    67   33  156 1    
    68   33  157 1    
    69   33  158 1    
    70   34   35 am   BACKBONE|DICT|INTERRES
    71   34  159 1    
    72   35   36 2    
    73   35   37 1    
    74   37   38 1    
    75   37   39 1    
    76   37  160 1    
    77   38  161 1    
    78   38  162 1    
    79   38  163 1    
    80   39   40 am   BACKBONE|DICT|INTERRES
    81   39  164 1    
    82   40   41 2    
    83   40   42 1    
    84   42   43 1    
    85   42   44 1    
    86   42  165 1    
    87   43  166 1    
    88   43  167 1    
    89   43  168 1    
    90   44   45 am   BACKBONE|DICT|INTERRES
    91   44  169 1    
    92   45   46 2    
    93   45   47 1    
    94   47   48 1    
    95   47   49 1    
    96   47  170 1    
    97   48  171 1    
    98   48  172 1    
    99   48  173 1    
   100   49   50 am   BACKBONE|DICT|INTERRES
   101   49  174 1    
   102   50   51 2    
   103   50   52 1    
   104   52   53 1    
   105   52   54 1    
   106   52  175 1    
   107   53  176 1    
   108   53  177 1    
   109   53  178 1    
   110   54   55 am   BACKBONE|DICT|INTERRES
   111   54  179 1    
   112   55   56 2    
   113   55   57 1    
   114   57   58 1    
   115   57   59 1    
   116   57  180 1    
   117   58  181 1    
   118   58  182 1    
   119   58  183 1    
   120   59   60 am   BACKBONE|DICT|INTERRES
   121   59  184 1    
   122   60   61 2    
   123   60   62 1    
   124   62   63 1    
   125   62   64 1    
   126   62  185 1    
   127   63  186 1    
   128   63  187 1    
   129   63  188 1    
   130   64   65 am   BACKBONE|DICT|INTERRES
   131   64  189 1    
   132   65   66 2    
   133   67   68 2    
   134   67   69 am   BACKBONE|DICT|INTERRES
   135   69   70 1    
   136   69  190 1    
   137   70   71 1    
   138   70   72 1    
   139   70  191 1    
   140   71  192 1    
   141   71  193 1    
   142   71  194 1    
   143   72   73 2    
   144   72   74 am   BACKBONE|DICT|INTERRES
   145   74   75 1    
   146   74  195 1    
   147   75   76 1    
   148   75   77 1    
   149   75  196 1    
   150   76  197 1    
   151   76  198 1    
   152   76  199 1    
   153   77   78 2    
   154   77   79 am   BACKBONE|DICT|INTERRES
   155   79   80 1    
   156   79  200 1    
   157   80   81 1    
   158   80   82 1    
   159   80  201 1    
   160   81  202 1    
   161   81  203 1    
   162   81  204 1    
   163   82   83 2    
   164   82   84 am   BACKBONE|DICT|INTERRES
   165   84   85 1    
   166   84  205 1    
   167   85   86 1    
   168   85   87 1    
   169   85  206 1    
   170   86  207 1    
   171   86  208 1    
   172   86  209 1    
   173   87   88 2    
   174   87   89 am   BACKBONE|DICT|INTERRES
   175   89   90 1    
   176   89  210 1    
   177   90   91 1    
   178   90   92 1    
   179   90  211 1    
   180   91  212 1    
   181   91  213 1    
   182   91  214 1    
   183   92   93 2    
   184   92   94 am   BACKBONE|DICT|INTERRES
   185   94   95 1    
   186   94  215 1    
   187   95   96 1    
   188   95   97 1    
   189   95  216 1    
   190   96  217 1    
   191   96  218 1    
   192   96  219 1    
   193   97   98 2    
   194   97   99 am   BACKBONE|DICT|INTERRES
   195   99  100 1    
   196   99  220 1    
   197  100  101 1    
   198  100  102 1    
   199  100  221 1    
   200  101  222 1    
   201  101  223 1    
   202  101  224 1    
   203  102  103 2    
   204  102  104 am   BACKBONE|DICT|INTERRES
   205  104  105 1    
   206  104  225 1    
   207  105  106 1    
   208  105  107 1    
   209  105  226 1    
   210  106  227 1    
   211  106  228 1    
   212  106  229 1    
   213  107  108 2    
   214  107  109 am   BACKBONE|DICT|INTERRES
   215  109  110 1    
   216  109  230 1    
   217  110  111 1    
   218  110  112 1    
   219  110  231 1    
   220  111  232 1    
   221  111  233 1    
   222  111  234 1    
   223  112  113 2    
   224  112  114 am   BACKBONE|DICT|INTERRES
   225  114  115 1    
   226  114  235 1    
   227  115  116 1    
   228  115  117 1    
   229  115  236 1    
   230  116  237 1    
   231  116  238 1    
   232  116  239 1    
   233  117  118 2    
   234  117  119 am   BACKBONE|DICT|INTERRES
   235  119  120 1    
   236  119  240 1    
   237  120  121 1    
   238  120  124 1    
   239  120  241 1    
   240  121  122 am   BACKBONE|DICT|INTERRES
   241  121  123 2    
   242  122  242 1    
   243  122  243 1    
   244  124  125 1    
   245  124  244 1    
   246  124  245 1    
   247  125  126 1    
   248  126  246 1    
   249  126  247 1    
@<TRIPOS>SUBSTRUCTURE
     1 UNK         1 GROUP             0       ****    0 ROOT    
