@<TRIPOS>MOLECULE
3R540
247   249    1
SMALL
USER_CHARGES


@<TRIPOS>ATOM
      1 CA          5.6078  -14.1796  -50.4527 C.3       0 UNK        -0.1800 
      2 C           4.9718  -13.9768  -49.0853 C.2       0 UNK         0.5000 
      3 O           5.6822  -13.8099  -48.0936 O.2       0 UNK        -0.5000 
      4 N           3.6350  -13.9653  -49.0260 N.am      1 UNK        -0.5000 
      5 CA          2.8218  -13.8352  -47.8074 C.3       1 UNK         0.1400 
      6 C6          1.4322  -14.4989  -47.9774 C.3       23 UNK        -0.0398 
      7 S7          1.5472  -16.2823  -48.3449 S.3       23 UNK        -0.2404 
      8 C8          1.1985  -16.3326  -50.1299 C.3       23 UNK        -0.0205 
      9 C9          0.6414  -17.6881  -50.5322 C.ar      23 UNK        -0.0193 
     10 C10        -0.7272  -17.8376  -50.7802 C.ar      23 UNK        -0.1150 
     11 C11        -1.2502  -19.0862  -51.1262 C.ar      23 UNK        -0.0193 
     12 C12        -0.3978  -20.1854  -51.2244 C.ar      23 UNK        -0.1150 
     13 C13         0.9641  -20.0554  -50.9514 C.ar      23 UNK        -0.0193 
     14 C14         1.4859  -18.7995  -50.6279 C.ar      23 UNK        -0.1150 
     15 C15         1.8395  -21.2977  -50.9339 C.3       23 UNK        -0.0205 
     16 S16         2.3490  -21.7943  -49.2497 S.3       23 UNK        -0.2404 
     17 C17         0.9396  -21.3598  -48.1623 C.3       23 UNK        -0.0398 
     18 CA          0.4791  -22.5332  -47.2637 C.3       11 UNK         0.1400 
     19 N           0.2307  -22.1018  -45.8823 N.am      11 UNK        -0.5000 
     20 C          -0.0079  -22.9236  -44.8506 C.2       10 UNK         0.5000 
     21 O          -0.0511  -24.1499  -44.9572 O.2       10 UNK        -0.5000 
     22 CA         -0.2910  -22.2664  -43.4873 C.3       10 UNK         0.1400 
     23 CB          1.0071  -21.7808  -42.8255 C.3       10 UNK        -0.1800 
     24 N          -1.2335  -21.1539  -43.6059 N.am      10 UNK        -0.5000 
     25 C          -2.5385  -21.3027  -43.8758 C.2       9 UNK         0.5000 
     26 O          -3.0988  -22.3969  -43.9389 O.2       9 UNK        -0.5000 
     27 CA         -3.3487  -20.0213  -44.1610 C.3       9 UNK         0.1400 
     28 CB         -3.8804  -19.4108  -42.8566 C.3       9 UNK        -0.1800 
     29 N          -2.5915  -19.0110  -44.9046 N.am      9 UNK        -0.5000 
     30 C          -2.0891  -19.1950  -46.1342 C.2       8 UNK         0.5000 
     31 O          -2.2360  -20.2286  -46.7794 O.2       8 UNK        -0.5000 
     32 CA         -1.2177  -18.0693  -46.7110 C.3       8 UNK         0.1400 
     33 CB         -2.0832  -16.9781  -47.3604 C.3       8 UNK        -0.1800 
     34 N          -0.3412  -17.4895  -45.6921 N.am      8 UNK        -0.5000 
     35 C           0.6822  -18.1436  -45.1222 C.2       7 UNK         0.5000 
     36 O           0.9994  -19.2978  -45.4061 O.2       7 UNK        -0.5000 
     37 CA          1.4347  -17.4103  -43.9985 C.3       7 UNK         0.1400 
     38 CB          2.4354  -16.3967  -44.5742 C.3       7 UNK        -0.1800 
     39 N           0.5157  -16.7361  -43.0821 N.am      7 UNK        -0.5000 
     40 C          -0.3417  -17.3799  -42.2734 C.2       6 UNK         0.5000 
     41 O          -0.3844  -18.6054  -42.1655 O.2       6 UNK        -0.5000 
     42 CA         -1.3529  -16.5196  -41.4883 C.3       6 UNK         0.1400 
     43 CB         -0.7962  -16.1708  -40.1003 C.3       6 UNK        -0.1800 
     44 N          -1.7213  -15.2836  -42.1795 N.am      6 UNK        -0.5000 
     45 C          -2.2908  -15.2084  -43.3915 C.2       5 UNK         0.5000 
     46 O          -2.6689  -16.1946  -44.0231 O.2       5 UNK        -0.5000 
     47 CA         -2.4065  -13.8064  -44.0272 C.3       5 UNK         0.1400 
     48 CB         -3.8559  -13.3036  -43.9590 C.3       5 UNK        -0.1800 
     49 N          -1.5205  -12.8079  -43.4146 N.am      5 UNK        -0.5000 
     50 C          -0.1814  -12.8465  -43.4472 C.2       4 UNK         0.5000 
     51 O           0.4658  -13.7112  -44.0449 O.2       4 UNK        -0.5000 
     52 CA          0.5460  -11.8042  -42.5878 C.3       4 UNK         0.1400 
     53 CB          0.4711  -12.2221  -41.1027 C.3       4 UNK        -0.1800 
     54 N           1.9334  -11.7184  -43.0331 N.am      4 UNK        -0.5000 
     55 C           2.8617  -10.8644  -42.5864 C.2       3 UNK         0.5000 
     56 O           2.6513   -9.9935  -41.7413 O.2       3 UNK        -0.5000 
     57 CA          4.2651  -10.9994  -43.2031 C.3       3 UNK         0.1400 
     58 CB          4.9777  -12.2552  -42.6753 C.3       3 UNK        -0.1800 
     59 N           4.2383  -11.0356  -44.6651 N.am      3 UNK        -0.5000 
     60 C           3.8943  -10.0046  -45.4507 C.2       2 UNK         0.5000 
     61 O           3.5603   -8.8990  -45.0231 O.2       2 UNK        -0.5000 
     62 CA          3.9492  -10.2363  -46.9722 C.3       2 UNK         0.1400 
     63 CB          5.2529   -9.6702  -47.5559 C.3       2 UNK        -0.1800 
     64 N           3.8431  -11.6475  -47.3434 N.am      2 UNK        -0.5000 
     65 C           2.7115  -12.3622  -47.3432 C.2       1 UNK         0.5000 
     66 O           1.6223  -11.8916  -47.0122 O.2       1 UNK        -0.5000 
     67 C          -0.7194  -23.2939  -47.8760 C.2       11 UNK         0.5000 
     68 O          -0.5150  -24.2488  -48.6247 O.2       11 UNK        -0.5000 
     69 N          -1.9467  -22.9163  -47.4924 N.am      12 UNK        -0.5000 
     70 CA         -3.1984  -23.5944  -47.8373 C.3       12 UNK         0.1400 
     71 CB         -4.3868  -22.7730  -47.3132 C.3       12 UNK        -0.1800 
     72 C          -3.2925  -25.0447  -47.3187 C.2       12 UNK         0.5000 
     73 O          -4.0623  -25.8254  -47.8777 O.2       12 UNK        -0.5000 
     74 N          -2.5159  -25.3860  -46.2824 N.am      13 UNK        -0.5000 
     75 CA         -2.3712  -26.7483  -45.7769 C.3       13 UNK         0.1400 
     76 CB         -2.3351  -26.7211  -44.2403 C.3       13 UNK        -0.1800 
     77 C          -1.1044  -27.4125  -46.3426 C.2       13 UNK         0.5000 
     78 O          -1.1664  -28.5666  -46.7671 O.2       13 UNK        -0.5000 
     79 N           0.0222  -26.6852  -46.3213 N.am      14 UNK        -0.5000 
     80 CA          1.3452  -27.1978  -46.6817 C.3       14 UNK         0.1400 
     81 CB          2.4214  -26.2302  -46.1655 C.3       14 UNK        -0.1800 
     82 C           1.5296  -27.4604  -48.1878 C.2       14 UNK         0.5000 
     83 O           2.0892  -28.4952  -48.5533 O.2       14 UNK        -0.5000 
     84 N           1.0746  -26.5222  -49.0261 N.am      15 UNK        -0.5000 
     85 CA          1.1772  -26.5792  -50.4855 C.3       15 UNK         0.1400 
     86 CB          1.7714  -25.2591  -51.0008 C.3       15 UNK        -0.1800 
     87 C          -0.1937  -26.8338  -51.1310 C.2       15 UNK         0.5000 
     88 O          -0.2637  -27.5642  -52.1199 O.2       15 UNK        -0.5000 
     89 N          -1.2499  -26.2426  -50.5507 N.am      16 UNK        -0.5000 
     90 CA         -2.6577  -26.3607  -50.9438 C.3       16 UNK         0.1400 
     91 CB         -3.1780  -27.7906  -50.6895 C.3       16 UNK        -0.1800 
     92 C          -2.9282  -25.8519  -52.3735 C.2       16 UNK         0.5000 
     93 O          -3.5092  -26.5661  -53.1927 O.2       16 UNK        -0.5000 
     94 N          -2.4932  -24.6113  -52.6412 N.am      17 UNK        -0.5000 
     95 CA         -2.6669  -23.9214  -53.9243 C.3       17 UNK         0.1400 
     96 CB         -1.8694  -22.6091  -53.9023 C.3       17 UNK        -0.1800 
     97 C          -4.1421  -23.6445  -54.2800 C.2       17 UNK         0.5000 
     98 O          -4.5015  -23.7157  -55.4555 O.2       17 UNK        -0.5000 
     99 N          -4.9583  -23.3556  -53.2525 N.am      18 UNK        -0.5000 
    100 CA        -6.4166  -23.1753  -53.2977 C.3       18 UNK         0.1400 
    101 CB        -7.1068  -24.5283  -53.5691 C.3       18 UNK        -0.1800 
    102 C         -6.8930  -22.0574  -54.2546 C.2       18 UNK         0.5000 
    103 O         -7.9435  -22.1896  -54.8859 O.2       18 UNK        -0.5000 
    104 N         -6.1140  -20.9741  -54.3427 N.am      19 UNK        -0.5000 
    105 CA        -6.3904  -19.7923  -55.1527 C.3       19 UNK         0.1400 
    106 CB        -5.6472  -19.9171  -56.4932 C.3       19 UNK        -0.1800 
    107 C         -5.9411  -18.5397  -54.3881 C.2       19 UNK         0.5000 
    108 O         -5.1413  -18.6470  -53.4539 O.2       19 UNK        -0.5000 
    109 N         -6.4571  -17.3745  -54.8040 N.am      20 UNK        -0.5000 
    110 CA        -6.2019  -16.0488  -54.2287 C.3       20 UNK         0.1400 
    111 CB        -4.7568  -15.5968  -54.5428 C.3       20 UNK        -0.1800 
    112 C         -6.5681  -16.0117  -52.7294 C.2       20 UNK         0.5000 
    113 O         -7.7205  -16.2870  -52.3882 O.2       20 UNK        -0.5000 
    114 N         -5.5867  -15.7318  -51.8602 N.am      21 UNK        -0.5000 
    115 CA        -5.7115  -15.7397  -50.3985 C.3       21 UNK         0.1400 
    116 CB        -4.3862  -15.2569  -49.7875 C.3       21 UNK        -0.1800 
    117 C         -6.1062  -17.1090  -49.8048 C.2       21 UNK         0.5000 
    118 O         -6.6457  -17.1528  -48.6987 O.2       21 UNK        -0.5000 
    119 N         -5.8469  -18.1886  -50.5514 N.am      22 UNK        -0.5000 
    120 CA        -6.2240  -19.5671  -50.2139 C.3       22 UNK         0.1400 
    121 C         -7.6262  -19.9708  -50.7598 C.2       22 UNK         0.5000 
    122 N         -8.3625  -19.1025  -51.4456 N.am      22 UNK        -0.7600 
    123 O         -8.0599  -21.1008  -50.5556 O.2       22 UNK        -0.5000 
    124 C124       -5.1412  -20.5788  -50.6683 C.3       23 UNK        -0.0398 
    125 S125       -3.4852  -20.2186  -49.9995 S.3       23 UNK        -0.2404 
    126 C126       -2.7365  -19.2737  -51.3626 C.3       23 UNK        -0.0205 
    127 H127        6.2488  -15.0610  -50.4403 H         1 UNK         0.0600 
    128 H128        4.8580  -14.3159  -51.2324 H         1 UNK         0.0600 
    129 H129        6.2186  -13.3157  -50.7144 H         1 UNK         0.0600 
    130 H130        3.1104  -14.0666  -49.8821 H         1 UNK         0.3000 
    131 H131        3.3333  -14.3651  -47.0008 H         1 UNK         0.0600 
    132 H132        0.8508  -13.9905  -48.7477 H         1 UNK         0.0800 
    133 H133        0.8527  -14.4057  -47.0568 H         1 UNK         0.0800 
    134 H134        0.4896  -15.5481  -50.3979 H         1 UNK         0.0800 
    135 H135        2.1146  -16.1289  -50.6856 H         1 UNK         0.0800 
    136 H136       -1.3863  -16.9863  -50.6890 H         1 UNK         0.1150 
    137 H137       -0.8084  -21.1571  -51.4566 H         1 UNK         0.1150 
    138 H138        2.5385  -18.6963  -50.4045 H         1 UNK         0.1150 
    139 H139        1.3213  -22.1338  -51.4045 H         1 UNK         0.0800 
    140 H140        2.7319  -21.1197  -51.5351 H         1 UNK         0.0800 
    141 H141        0.0955  -20.9422  -48.7084 H         1 UNK         0.0800 
    142 H142        1.3063  -20.5335  -47.5564 H         1 UNK         0.0800 
    143 H143        1.2971  -23.2517  -47.1970 H         1 UNK         0.0600 
    144 H144        0.2799  -21.1026  -45.7059 H         1 UNK         0.3000 
    145 H145       -0.7346  -23.0245  -42.8383 H         1 UNK         0.0600 
    146 H146        0.8124  -21.3691  -41.8351 H         1 UNK         0.0600 
    147 H147        1.7135  -22.6030  -42.7041 H         1 UNK         0.0600 
    148 H148        1.5009  -21.0082  -43.4148 H         1 UNK         0.0600 
    149 H149       -0.8563  -20.2183  -43.5092 H         1 UNK         0.3000 
    150 H150       -4.2049  -20.3031  -44.7775 H         1 UNK         0.0600 
    151 H151       -4.5447  -20.1085  -42.3452 H         1 UNK         0.0600 
    152 H152       -4.4470  -18.4988  -43.0458 H         1 UNK         0.0600 
    153 H153       -3.0714  -19.1693  -42.1683 H         1 UNK         0.0600 
    154 H154       -2.4652  -18.1059  -44.4620 H         1 UNK         0.3000 
    155 H155       -0.5878  -18.5031  -47.4913 H         1 UNK         0.0600 
    156 H156       -2.7512  -16.5027  -46.6427 H         1 UNK         0.0600 
    157 H157       -2.7032  -17.4036  -48.1508 H         1 UNK         0.0600 
    158 H158       -1.4688  -16.2012  -47.8146 H         1 UNK         0.0600 
    159 H159       -0.5742  -16.5649  -45.3627 H         1 UNK         0.3000 
    160 H160        1.9960  -18.1549  -43.4298 H         1 UNK         0.0600 
    161 H161        3.0009  -15.9049  -43.7827 H         1 UNK         0.0600 
    162 H162        1.9356  -15.6245  -45.1579 H         1 UNK         0.0600 
    163 H163        3.1526  -16.8888  -45.2324 H         1 UNK         0.0600 
    164 H164        0.4751  -15.7262  -43.1440 H         1 UNK         0.3000 
    165 H165       -2.2618  -17.1084  -41.3555 H         1 UNK         0.0600 
    166 H166       -1.5291  -15.6246  -39.5061 H         1 UNK         0.0600 
    167 H167       -0.5382  -17.0740  -39.5455 H         1 UNK         0.0600 
    168 H168        0.1045  -15.5595  -40.1692 H         1 UNK         0.0600 
    169 H169       -1.4585  -14.4212  -41.7282 H         1 UNK         0.3000 
    170 H170       -2.1266  -13.9050  -45.0782 H         1 UNK         0.0600 
    171 H171       -4.5374  -14.0108  -44.4340 H         1 UNK         0.0600 
    172 H172       -4.1875  -13.1695  -42.9286 H         1 UNK         0.0600 
    173 H173       -3.9678  -12.3504  -44.4760 H         1 UNK         0.0600 
    174 H174       -1.9748  -12.0712  -42.8935 H         1 UNK         0.3000 
    175 H175        0.0682  -10.8331  -42.7302 H         1 UNK         0.0600 
    176 H176        0.9907  -13.1649  -40.9263 H         1 UNK         0.0600 
    177 H177        0.9125  -11.4724  -40.4469 H         1 UNK         0.0600 
    178 H178       -0.5616  -12.3498  -40.7764 H         1 UNK         0.0600 
    179 H179        2.1716  -12.3918  -43.7506 H         1 UNK         0.3000 
    180 H180        4.8481  -10.1278  -42.8978 H         1 UNK         0.0600 
    181 H181        4.4700  -13.1704  -42.9826 H         1 UNK         0.0600 
    182 H182        5.0165  -12.2519  -41.5851 H         1 UNK         0.0600 
    183 H183        6.0054  -12.3052  -43.0353 H         1 UNK         0.0600 
    184 H184        4.5089  -11.9014  -45.1069 H         1 UNK         0.3000 
    185 H185        3.1125   -9.6948  -47.4186 H         1 UNK         0.0600 
    186 H186        5.3579   -8.6096  -47.3235 H         1 UNK         0.0600 
    187 H187        6.1288  -10.1828  -47.1562 H         1 UNK         0.0600 
    188 H188        5.2736   -9.7674  -48.6416 H         1 UNK         0.0600 
    189 H189        4.6976  -12.1223  -47.6161 H         1 UNK         0.3000 
    190 H190       -2.0374  -22.0515  -46.9629 H         1 UNK         0.3000 
    191 H191       -3.2608  -23.6255  -48.9264 H         1 UNK         0.0600 
    192 H192       -4.4022  -22.7400  -46.2243 H         1 UNK         0.0600 
    193 H193       -5.3336  -23.2038  -47.6410 H         1 UNK         0.0600 
    194 H194       -4.3573  -21.7462  -47.6742 H         1 UNK         0.0600 
    195 H195       -1.9056  -24.6864  -45.8782 H         1 UNK         0.3000 
    196 H196       -3.2281  -27.3563  -46.0746 H         1 UNK         0.0600 
    197 H197       -1.4952  -26.1390  -43.8605 H         1 UNK         0.0600 
    198 H198       -2.2446  -27.7297  -43.8353 H         1 UNK         0.0600 
    199 H199       -3.2497  -26.2883  -43.8348 H         1 UNK         0.0600 
    200 H200       -0.0061  -25.7541  -45.9141 H         1 UNK         0.3000 
    201 H201        1.4826  -28.1500  -46.1648 H         1 UNK         0.0600 
    202 H202        2.3458  -25.2520  -46.6392 H         1 UNK         0.0600 
    203 H203        3.4216  -26.6153  -46.3678 H         1 UNK         0.0600 
    204 H204        2.3397  -26.0869  -45.0878 H         1 UNK         0.0600 
    205 H205        0.5890  -25.7137  -48.6476 H         1 UNK         0.3000 
    206 H206        1.8436  -27.3882  -50.7916 H         1 UNK         0.0600 
    207 H207        2.7573  -25.0765  -50.5730 H         1 UNK         0.0600 
    208 H208        1.8835  -25.2769  -52.0855 H         1 UNK         0.0600 
    209 H209        1.1373  -24.4092  -50.7502 H         1 UNK         0.0600 
    210 H210       -1.0613  -25.6141  -49.7745 H         1 UNK         0.3000 
    211 H211       -3.2160  -25.6912  -50.2928 H         1 UNK         0.0600 
    212 H212       -2.6895  -28.5237  -51.3319 H         1 UNK         0.0600 
    213 H213       -4.2505  -27.8537  -50.8763 H         1 UNK         0.0600 
    214 H214       -3.0125  -28.0879  -49.6536 H         1 UNK         0.0600 
    215 H215       -1.9945  -24.1103  -51.9209 H         1 UNK         0.3000 
    216 H216       -2.2514  -24.5615  -54.7054 H         1 UNK         0.0600 
    217 H217       -1.9346  -22.0965  -54.8630 H         1 UNK         0.0600 
    218 H218       -0.8130  -22.7882  -53.7008 H         1 UNK         0.0600 
    219 H219       -2.2482  -21.9268  -53.1423 H         1 UNK         0.0600 
    220 H220       -4.5437  -23.3277  -52.3330 H         1 UNK         0.3000 
    221 H221       -6.7143  -22.8566  -52.2982 H         1 UNK         0.0600 
    222 H222       -6.8995  -24.8916  -54.5762 H         1 UNK         0.0600 
    223 H223       -6.7728  -25.2896  -52.8640 H         1 UNK         0.0600 
    224 H224       -8.1894  -24.4456  -53.4659 H         1 UNK         0.0600 
    225 H225       -5.2819  -20.9064  -53.7743 H         1 UNK         0.3000 
    226 H226       -7.4635  -19.7056  -55.3359 H         1 UNK         0.0600 
    227 H227       -5.9700  -20.8031  -57.0403 H         1 UNK         0.0600 
    228 H228       -5.8363  -19.0539  -57.1323 H         1 UNK         0.0600 
    229 H229       -4.5686  -19.9902  -56.3476 H         1 UNK         0.0600 
    230 H230       -7.1264  -17.3917  -55.5606 H         1 UNK         0.3000 
    231 H231       -6.8815  -15.3547  -54.7252 H         1 UNK         0.0600 
    232 H232       -4.5778  -15.5967  -55.6181 H         1 UNK         0.0600 
    233 H233       -4.0092  -16.2481  -54.0885 H         1 UNK         0.0600 
    234 H234       -4.5754  -14.5803  -54.1913 H         1 UNK         0.0600 
    235 H235       -4.6671  -15.5405  -52.2296 H         1 UNK         0.3000 
    236 H236       -6.4955  -15.0297  -50.1280 H         1 UNK         0.0600 
    237 H237       -3.5588  -15.9150  -50.0546 H         1 UNK         0.0600 
    238 H238       -4.1382  -14.2503  -50.1245 H         1 UNK         0.0600 
    239 H239       -4.4436  -15.2283  -48.6985 H         1 UNK         0.0600 
    240 H240       -5.4393  -18.0657  -51.4711 H         1 UNK         0.3000 
    241 H241       -6.2982  -19.6486  -49.1280 H         1 UNK         0.0600 
    242 H242       -9.2702  -19.3857  -51.7783 H         1 UNK         0.3800 
    243 H243       -8.0395  -18.1583  -51.6234 H         1 UNK         0.3800 
    244 H244       -5.4055  -21.5834  -50.3342 H         1 UNK         0.0800 
    245 H245       -5.0859  -20.6285  -51.7538 H         1 UNK         0.0800 
    246 H246       -2.8876  -19.7934  -52.3087 H         1 UNK         0.0800 
    247 H247       -3.2328  -18.3076  -51.4558 H         1 UNK         0.0800 
@<TRIPOS>BOND
     1    1    2 1    
     2    1  127 1    
     3    1  128 1    
     4    1  129 1    
     5    2    3 2    
     6    2    4 am   BACKBONE|DICT|INTERRES
     7    4    5 1    
     8    4  130 1    
     9    5    6 1    
    10    5   65 1    
    11    5  131 1    
    12    6    7 1    
    13    6  132 1    
    14    6  133 1    
    15    7    8 1    
    16    8    9 1    
    17    8  134 1    
    18    8  135 1    
    19    9   10 ar   
    20    9   14 ar   
    21   10   11 ar   
    22   10  136 1    
    23   11   12 ar   
    24   11  126 1    
    25   12   13 ar   
    26   12  137 1    
    27   13   14 ar   
    28   13   15 1    
    29   14  138 1    
    30   15   16 1    
    31   15  139 1    
    32   15  140 1    
    33   16   17 1    
    34   17   18 1    
    35   17  141 1    
    36   17  142 1    
    37   18   19 1    
    38   18   67 1    
    39   18  143 1    
    40   19   20 am   BACKBONE|DICT|INTERRES
    41   19  144 1    
    42   20   21 2    
    43   20   22 1    
    44   22   23 1    
    45   22   24 1    
    46   22  145 1    
    47   23  146 1    
    48   23  147 1    
    49   23  148 1    
    50   24   25 am   BACKBONE|DICT|INTERRES
    51   24  149 1    
    52   25   26 2    
    53   25   27 1    
    54   27   28 1    
    55   27   29 1    
    56   27  150 1    
    57   28  151 1    
    58   28  152 1    
    59   28  153 1    
    60   29   30 am   BACKBONE|DICT|INTERRES
    61   29  154 1    
    62   30   31 2    
    63   30   32 1    
    64   32   33 1    
    65   32   34 1    
    66   32  155 1    
    67   33  156 1    
    68   33  157 1    
    69   33  158 1    
    70   34   35 am   BACKBONE|DICT|INTERRES
    71   34  159 1    
    72   35   36 2    
    73   35   37 1    
    74   37   38 1    
    75   37   39 1    
    76   37  160 1    
    77   38  161 1    
    78   38  162 1    
    79   38  163 1    
    80   39   40 am   BACKBONE|DICT|INTERRES
    81   39  164 1    
    82   40   41 2    
    83   40   42 1    
    84   42   43 1    
    85   42   44 1    
    86   42  165 1    
    87   43  166 1    
    88   43  167 1    
    89   43  168 1    
    90   44   45 am   BACKBONE|DICT|INTERRES
    91   44  169 1    
    92   45   46 2    
    93   45   47 1    
    94   47   48 1    
    95   47   49 1    
    96   47  170 1    
    97   48  171 1    
    98   48  172 1    
    99   48  173 1    
   100   49   50 am   BACKBONE|DICT|INTERRES
   101   49  174 1    
   102   50   51 2    
   103   50   52 1    
   104   52   53 1    
   105   52   54 1    
   106   52  175 1    
   107   53  176 1    
   108   53  177 1    
   109   53  178 1    
   110   54   55 am   BACKBONE|DICT|INTERRES
   111   54  179 1    
   112   55   56 2    
   113   55   57 1    
   114   57   58 1    
   115   57   59 1    
   116   57  180 1    
   117   58  181 1    
   118   58  182 1    
   119   58  183 1    
   120   59   60 am   BACKBONE|DICT|INTERRES
   121   59  184 1    
   122   60   61 2    
   123   60   62 1    
   124   62   63 1    
   125   62   64 1    
   126   62  185 1    
   127   63  186 1    
   128   63  187 1    
   129   63  188 1    
   130   64   65 am   BACKBONE|DICT|INTERRES
   131   64  189 1    
   132   65   66 2    
   133   67   68 2    
   134   67   69 am   BACKBONE|DICT|INTERRES
   135   69   70 1    
   136   69  190 1    
   137   70   71 1    
   138   70   72 1    
   139   70  191 1    
   140   71  192 1    
   141   71  193 1    
   142   71  194 1    
   143   72   73 2    
   144   72   74 am   BACKBONE|DICT|INTERRES
   145   74   75 1    
   146   74  195 1    
   147   75   76 1    
   148   75   77 1    
   149   75  196 1    
   150   76  197 1    
   151   76  198 1    
   152   76  199 1    
   153   77   78 2    
   154   77   79 am   BACKBONE|DICT|INTERRES
   155   79   80 1    
   156   79  200 1    
   157   80   81 1    
   158   80   82 1    
   159   80  201 1    
   160   81  202 1    
   161   81  203 1    
   162   81  204 1    
   163   82   83 2    
   164   82   84 am   BACKBONE|DICT|INTERRES
   165   84   85 1    
   166   84  205 1    
   167   85   86 1    
   168   85   87 1    
   169   85  206 1    
   170   86  207 1    
   171   86  208 1    
   172   86  209 1    
   173   87   88 2    
   174   87   89 am   BACKBONE|DICT|INTERRES
   175   89   90 1    
   176   89  210 1    
   177   90   91 1    
   178   90   92 1    
   179   90  211 1    
   180   91  212 1    
   181   91  213 1    
   182   91  214 1    
   183   92   93 2    
   184   92   94 am   BACKBONE|DICT|INTERRES
   185   94   95 1    
   186   94  215 1    
   187   95   96 1    
   188   95   97 1    
   189   95  216 1    
   190   96  217 1    
   191   96  218 1    
   192   96  219 1    
   193   97   98 2    
   194   97   99 am   BACKBONE|DICT|INTERRES
   195   99  100 1    
   196   99  220 1    
   197  100  101 1    
   198  100  102 1    
   199  100  221 1    
   200  101  222 1    
   201  101  223 1    
   202  101  224 1    
   203  102  103 2    
   204  102  104 am   BACKBONE|DICT|INTERRES
   205  104  105 1    
   206  104  225 1    
   207  105  106 1    
   208  105  107 1    
   209  105  226 1    
   210  106  227 1    
   211  106  228 1    
   212  106  229 1    
   213  107  108 2    
   214  107  109 am   BACKBONE|DICT|INTERRES
   215  109  110 1    
   216  109  230 1    
   217  110  111 1    
   218  110  112 1    
   219  110  231 1    
   220  111  232 1    
   221  111  233 1    
   222  111  234 1    
   223  112  113 2    
   224  112  114 am   BACKBONE|DICT|INTERRES
   225  114  115 1    
   226  114  235 1    
   227  115  116 1    
   228  115  117 1    
   229  115  236 1    
   230  116  237 1    
   231  116  238 1    
   232  116  239 1    
   233  117  118 2    
   234  117  119 am   BACKBONE|DICT|INTERRES
   235  119  120 1    
   236  119  240 1    
   237  120  121 1    
   238  120  124 1    
   239  120  241 1    
   240  121  122 am   BACKBONE|DICT|INTERRES
   241  121  123 2    
   242  122  242 1    
   243  122  243 1    
   244  124  125 1    
   245  124  244 1    
   246  124  245 1    
   247  125  126 1    
   248  126  246 1    
   249  126  247 1    
@<TRIPOS>SUBSTRUCTURE
     1 UNK         1 GROUP             0       ****    0 ROOT    
