@<TRIPOS>MOLECULE
3R540
247   249    1
SMALL
USER_CHARGES


@<TRIPOS>ATOM
      1 CA          7.1656  -10.9757  -47.4006 C.3       0 UNK        -0.1800 
      2 C           6.2881  -11.6892  -46.3821 C.2       0 UNK         0.5000 
      3 O           6.7526  -12.0070  -45.2875 O.2       0 UNK        -0.5000 
      4 N           5.0211  -11.9386  -46.7363 N.am      1 UNK        -0.5000 
      5 CA          4.0289  -12.6068  -45.8847 C.3       1 UNK         0.1400 
      6 C6          2.8951  -13.2446  -46.7303 C.3       23 UNK        -0.0398 
      7 S7          1.8500  -12.0286  -47.6123 S.3       23 UNK        -0.2404 
      8 C8          2.1622  -12.4222  -49.3640 C.3       23 UNK        -0.0205 
      9 C9          1.3655  -13.6146  -49.8871 C.ar      23 UNK        -0.0193 
     10 C10         1.9716  -14.5128  -50.7700 C.ar      23 UNK        -0.1150 
     11 C11         1.2392  -15.5616  -51.3311 C.ar      23 UNK        -0.0193 
     12 C12        -0.1119  -15.7068  -51.0062 C.ar      23 UNK        -0.1150 
     13 C13        -0.7244  -14.8555  -50.0786 C.ar      23 UNK        -0.0193 
     14 C14         0.0197  -13.7987  -49.5446 C.ar      23 UNK        -0.1150 
     15 C15        -2.1790  -15.0277  -49.6297 C.3       23 UNK        -0.0205 
     16 S16        -2.9353  -16.6667  -49.9365 S.3       23 UNK        -0.2404 
     17 C17        -1.8680  -17.7657  -48.9486 C.3       23 UNK        -0.0398 
     18 CA         -2.1860  -19.2634  -49.1736 C.3       11 UNK         0.1400 
     19 N          -0.9748  -20.0859  -49.1248 N.am      11 UNK        -0.5000 
     20 C          -0.9040  -21.3629  -49.5252 C.2       10 UNK         0.5000 
     21 O          -1.8465  -21.9684  -50.0277 O.2       10 UNK        -0.5000 
     22 CA          0.4247  -22.1003  -49.2784 C.3       10 UNK         0.1400 
     23 CB          1.3420  -22.0070  -50.5038 C.3       10 UNK        -0.1800 
     24 N           1.1330  -21.5962  -48.1024 N.am      10 UNK        -0.5000 
     25 C           0.6877  -21.6962  -46.8451 C.2       9 UNK         0.5000 
     26 O          -0.3627  -22.2614  -46.5397 O.2       9 UNK        -0.5000 
     27 CA          1.5175  -20.9993  -45.7575 C.3       9 UNK         0.1400 
     28 CB          2.8231  -21.7578  -45.4568 C.3       9 UNK        -0.1800 
     29 N           1.7613  -19.5792  -46.0301 N.am      9 UNK        -0.5000 
     30 C           2.5341  -18.9939  -46.9576 C.2       8 UNK         0.5000 
     31 O           3.1481  -19.6056  -47.8319 O.2       8 UNK        -0.5000 
     32 CA          2.6425  -17.4560  -46.8773 C.3       8 UNK         0.1400 
     33 CB          1.5558  -16.7918  -47.7331 C.3       8 UNK        -0.1800 
     34 N           2.5362  -16.9656  -45.5005 N.am      8 UNK        -0.5000 
     35 C           3.4526  -17.1923  -44.5465 C.2       7 UNK         0.5000 
     36 O           4.5600  -17.6852  -44.7618 O.2       7 UNK        -0.5000 
     37 CA          3.0405  -16.8586  -43.1032 C.3       7 UNK         0.1400 
     38 CB          3.3549  -15.3944  -42.7730 C.3       7 UNK        -0.1800 
     39 N           1.6175  -17.1271  -42.8789 N.am      7 UNK        -0.5000 
     40 C           1.1128  -18.3515  -42.6611 C.2       6 UNK         0.5000 
     41 O           1.8047  -19.3640  -42.5600 O.2       6 UNK        -0.5000 
     42 CA         -0.4191  -18.4831  -42.5591 C.3       6 UNK         0.1400 
     43 CB         -0.8674  -18.4297  -41.0913 C.3       6 UNK        -0.1800 
     44 N          -1.1378  -17.4571  -43.3138 N.am      6 UNK        -0.5000 
     45 C          -1.2247  -17.4054  -44.6499 C.2       5 UNK         0.5000 
     46 O          -0.7483  -18.2570  -45.4007 O.2       5 UNK        -0.5000 
     47 CA         -1.9360  -16.1764  -45.2485 C.3       5 UNK         0.1400 
     48 CB         -3.4207  -16.4830  -45.4958 C.3       5 UNK        -0.1800 
     49 N          -1.8192  -14.9693  -44.4239 N.am      5 UNK        -0.5000 
     50 C          -0.6602  -14.3714  -44.1205 C.2       4 UNK         0.5000 
     51 O           0.4365  -14.7898  -44.4976 O.2       4 UNK        -0.5000 
     52 CA         -0.7384  -13.1322  -43.2181 C.3       4 UNK         0.1400 
     53 CB          0.1275  -13.3048  -41.9602 C.3       4 UNK        -0.1800 
     54 N          -0.2930  -11.9580  -43.9609 N.am      4 UNK        -0.5000 
     55 C          -1.1095  -11.1577  -44.6614 C.2       3 UNK         0.5000 
     56 O          -2.3284  -11.3317  -44.7168 O.2       3 UNK        -0.5000 
     57 CA         -0.4885   -9.9851  -45.4544 C.3       3 UNK         0.1400 
     58 CB         -1.3022   -8.6821  -45.3085 C.3       3 UNK        -0.1800 
     59 N           0.9362   -9.7539  -45.1920 N.am      3 UNK        -0.5000 
     60 C           1.5223   -9.3126  -44.0681 C.2       2 UNK         0.5000 
     61 O           0.9061   -8.9593  -43.0617 O.2       2 UNK        -0.5000 
     62 CA          3.0698   -9.2968  -44.0819 C.3       2 UNK         0.1400 
     63 CB          3.6825   -9.3298  -42.6662 C.3       2 UNK        -0.1800 
     64 N           3.6452  -10.3588  -44.9223 N.am      2 UNK        -0.5000 
     65 C           3.4570  -11.6824  -44.7833 C.2       1 UNK         0.5000 
     66 O           2.8032  -12.1758  -43.8666 O.2       1 UNK        -0.5000 
     67 C          -3.2604  -19.7806  -48.1924 C.2       11 UNK         0.5000 
     68 O          -4.4224  -19.9176  -48.5757 O.2       11 UNK        -0.5000 
     69 N          -2.8446  -20.1156  -46.9603 N.am      12 UNK        -0.5000 
     70 CA         -3.6991  -20.7489  -45.9533 C.3       12 UNK         0.1400 
     71 CB         -2.9967  -20.7530  -44.5877 C.3       12 UNK        -0.1800 
     72 C          -4.1252  -22.1710  -46.3564 C.2       12 UNK         0.5000 
     73 O          -5.2860  -22.5314  -46.1626 O.2       12 UNK        -0.5000 
     74 N          -3.2009  -22.9372  -46.9535 N.am      13 UNK        -0.5000 
     75 CA         -3.4760  -24.2637  -47.5070 C.3       13 UNK         0.1400 
     76 CB         -2.1679  -24.9415  -47.9330 C.3       13 UNK        -0.1800 
     77 C          -4.4785  -24.2205  -48.6744 C.2       13 UNK         0.5000 
     78 O          -5.3452  -25.0883  -48.7484 O.2       13 UNK        -0.5000 
     79 N          -4.3808  -23.1991  -49.5349 N.am      14 UNK        -0.5000 
     80 CA         -5.3244  -22.9391  -50.6215 C.3       14 UNK         0.1400 
     81 CB         -4.7450  -21.8893  -51.5757 C.3       14 UNK        -0.1800 
     82 C          -6.7145  -22.5229  -50.1182 C.2       14 UNK         0.5000 
     83 O          -7.7131  -22.9940  -50.6620 O.2       14 UNK        -0.5000 
     84 N          -6.7641  -21.6986  -49.0619 N.am      15 UNK        -0.5000 
     85 CA         -8.0002  -21.3109  -48.3755 C.3       15 UNK         0.1400 
     86 CB         -7.6984  -20.2046  -47.3534 C.3       15 UNK        -0.1800 
     87 C          -8.7088  -22.5066  -47.7059 C.2       15 UNK         0.5000 
     88 O          -9.9379  -22.5773  -47.7277 O.2       15 UNK        -0.5000 
     89 N          -7.9188  -23.4436  -47.1647 N.am      16 UNK        -0.5000 
     90 CA         -8.3784  -24.7191  -46.6107 C.3       16 UNK         0.1400 
     91 CB         -7.2942  -25.2564  -45.6622 C.3       16 UNK        -0.1800 
     92 C          -8.7178  -25.7754  -47.6855 C.2       16 UNK         0.5000 
     93 O          -9.3058  -26.8027  -47.3453 O.2       16 UNK        -0.5000 
     94 N          -8.3238  -25.5224  -48.9436 N.am      17 UNK        -0.5000 
     95 CA         -8.3972  -26.4099  -50.1111 C.3       17 UNK         0.1400 
     96 CB         -9.8632  -26.6827  -50.5062 C.3       17 UNK        -0.1800 
     97 C          -7.5606  -27.6990  -49.9433 C.2       17 UNK         0.5000 
     98 O          -7.9391  -28.7577  -50.4484 O.2       17 UNK        -0.5000 
     99 N          -6.4364  -27.5822  -49.2275 N.am      18 UNK        -0.5000 
    100 CA        -5.5179  -28.6690  -48.8977 C.3       18 UNK         0.1400 
    101 CB        -4.9753  -28.4284  -47.4796 C.3       18 UNK        -0.1800 
    102 C         -4.3536  -28.7854  -49.8981 C.2       18 UNK         0.5000 
    103 O         -3.7675  -29.8632  -50.0095 O.2       18 UNK        -0.5000 
    104 N         -4.0284  -27.6933  -50.6003 N.am      19 UNK        -0.5000 
    105 CA        -2.9473  -27.6048  -51.5801 C.3       19 UNK         0.1400 
    106 CB        -1.5922  -27.4500  -50.8603 C.3       19 UNK        -0.1800 
    107 C         -3.2103  -26.4221  -52.5246 C.2       19 UNK         0.5000 
    108 O         -4.1720  -25.6775  -52.3242 O.2       19 UNK        -0.5000 
    109 N         -2.3476  -26.2657  -53.5349 N.am      20 UNK        -0.5000 
    110 CA        -2.3278  -25.1093  -54.4308 C.3       20 UNK         0.1400 
    111 CB        -1.5636  -25.4867  -55.7096 C.3       20 UNK        -0.1800 
    112 C         -1.6733  -23.8900  -53.7527 C.2       20 UNK         0.5000 
    113 O         -0.8085  -24.0567  -52.8888 O.2       20 UNK        -0.5000 
    114 N         -2.0795  -22.6890  -54.1807 N.am      21 UNK        -0.5000 
    115 CA        -1.5326  -21.4152  -53.7130 C.3       21 UNK         0.1400 
    116 CB        -2.5078  -20.2869  -54.0901 C.3       21 UNK        -0.1800 
    117 C         -0.1410  -21.1256  -54.3052 C.2       21 UNK         0.5000 
    118 O          0.2059  -21.6482  -55.3675 O.2       21 UNK        -0.5000 
    119 N          0.6035  -20.2456  -53.6279 N.am      22 UNK        -0.5000 
    120 CA         1.8903  -19.6909  -54.0820 C.3       22 UNK         0.1400 
    121 C          1.7856  -18.6310  -55.2203 C.2       22 UNK         0.5000 
    122 N          0.6022  -18.1541  -55.5878 N.am      22 UNK        -0.7600 
    123 O          2.8010  -18.2399  -55.7892 O.2       22 UNK        -0.5000 
    124 C124        2.7566  -19.1804  -52.8953 C.3       23 UNK        -0.0398 
    125 S125        1.8452  -18.2371  -51.6209 S.3       23 UNK        -0.2404 
    126 C126        1.9000  -16.5438  -52.2862 C.3       23 UNK        -0.0205 
    127 H127        7.5310  -10.0353  -46.9879 H         1 UNK         0.0600 
    128 H128        8.0260  -11.5953  -47.6537 H         1 UNK         0.0600 
    129 H129        6.6231  -10.7556  -48.3205 H         1 UNK         0.0600 
    130 H130        4.6920  -11.6500  -47.6466 H         1 UNK         0.3000 
    131 H131        4.5332  -13.4238  -45.3637 H         1 UNK         0.0600 
    132 H132        3.3235  -13.9472  -47.4460 H         1 UNK         0.0800 
    133 H133        2.2464  -13.8444  -46.0916 H         1 UNK         0.0800 
    134 H134        1.8915  -11.5515  -49.9622 H         1 UNK         0.0800 
    135 H135        3.2326  -12.5728  -49.5119 H         1 UNK         0.0800 
    136 H136        3.0116  -14.3850  -51.0355 H         1 UNK         0.1150 
    137 H137       -0.6683  -16.5142  -51.4591 H         1 UNK         0.1150 
    138 H138       -0.4560  -13.1119  -48.8588 H         1 UNK         0.1150 
    139 H139       -2.2547  -14.8162  -48.5618 H         1 UNK         0.0800 
    140 H140       -2.7830  -14.2737  -50.1356 H         1 UNK         0.0800 
    141 H141       -1.9265  -17.4886  -47.8976 H         1 UNK         0.0800 
    142 H142       -0.8396  -17.5681  -49.2447 H         1 UNK         0.0800 
    143 H143       -2.5891  -19.3820  -50.1823 H         1 UNK         0.0600 
    144 H144       -0.1528  -19.6716  -48.7126 H         1 UNK         0.3000 
    145 H145        0.1943  -23.1531  -49.1086 H         1 UNK         0.0600 
    146 H146        2.2356  -22.6174  -50.3738 H         1 UNK         0.0600 
    147 H147        0.8356  -22.3608  -51.4026 H         1 UNK         0.0600 
    148 H148        1.6619  -20.9824  -50.6834 H         1 UNK         0.0600 
    149 H149        1.9880  -21.0682  -48.2577 H         1 UNK         0.3000 
    150 H150        0.9157  -21.0198  -44.8474 H         1 UNK         0.0600 
    151 H151        2.6142  -22.7867  -45.1614 H         1 UNK         0.0600 
    152 H152        3.3669  -21.2879  -44.6370 H         1 UNK         0.0600 
    153 H153        3.4867  -21.7960  -46.3209 H         1 UNK         0.0600 
    154 H154        1.2122  -18.9540  -45.4528 H         1 UNK         0.3000 
    155 H155        3.6178  -17.1670  -47.2740 H         1 UNK         0.0600 
    156 H156        1.6628  -15.7085  -47.7432 H         1 UNK         0.0600 
    157 H157        0.5577  -17.0198  -47.3639 H         1 UNK         0.0600 
    158 H158        1.6133  -17.1305  -48.7675 H         1 UNK         0.0600 
    159 H159        1.6764  -16.4982  -45.2412 H         1 UNK         0.3000 
    160 H160        3.6288  -17.4866  -42.4305 H         1 UNK         0.0600 
    161 H161        2.8350  -14.7168  -43.4473 H         1 UNK         0.0600 
    162 H162        4.4223  -15.1926  -42.8689 H         1 UNK         0.0600 
    163 H163        3.0651  -15.1450  -41.7524 H         1 UNK         0.0600 
    164 H164        0.9874  -16.3466  -43.0049 H         1 UNK         0.3000 
    165 H165       -0.6909  -19.4607  -42.9629 H         1 UNK         0.0600 
    166 H166       -0.6372  -17.4665  -40.6342 H         1 UNK         0.0600 
    167 H167       -1.9408  -18.5975  -41.0010 H         1 UNK         0.0600 
    168 H168       -0.3687  -19.2005  -40.5022 H         1 UNK         0.0600 
    169 H169       -1.5718  -16.7204  -42.7779 H         1 UNK         0.3000 
    170 H170       -1.4616  -15.9607  -46.2074 H         1 UNK         0.0600 
    171 H171       -3.5461  -17.3856  -46.0944 H         1 UNK         0.0600 
    172 H172       -3.9607  -16.6370  -44.5607 H         1 UNK         0.0600 
    173 H173       -3.9061  -15.6692  -46.0348 H         1 UNK         0.0600 
    174 H174       -2.6824  -14.5634  -44.0915 H         1 UNK         0.3000 
    175 H175       -1.7694  -12.9957  -42.8849 H         1 UNK         0.0600 
    176 H176        0.0409  -12.4387  -41.3039 H         1 UNK         0.0600 
    177 H177       -0.1823  -14.1801  -41.3881 H         1 UNK         0.0600 
    178 H178        1.1817  -13.4293  -42.2040 H         1 UNK         0.0600 
    179 H179        0.7091  -11.8070  -43.9929 H         1 UNK         0.3000 
    180 H180       -0.5458  -10.2825  -46.5023 H         1 UNK         0.0600 
    181 H181       -1.3746   -8.3614  -44.2692 H         1 UNK         0.0600 
    182 H182       -2.3199   -8.8133  -45.6778 H         1 UNK         0.0600 
    183 H183       -0.8542   -7.8702  -45.8814 H         1 UNK         0.0600 
    184 H184        1.5502  -10.0407  -45.9423 H         1 UNK         0.3000 
    185 H185        3.3574   -8.3510  -44.5430 H         1 UNK         0.0600 
    186 H186        4.7716   -9.3198  -42.7081 H         1 UNK         0.0600 
    187 H187        3.3732   -8.4600  -42.0855 H         1 UNK         0.0600 
    188 H188        3.3764  -10.2175  -42.1119 H         1 UNK         0.0600 
    189 H189        4.1883  -10.0473  -45.7150 H         1 UNK         0.3000 
    190 H190       -1.8764  -19.9753  -46.7063 H         1 UNK         0.3000 
    191 H191       -4.6083  -20.1515  -45.8587 H         1 UNK         0.0600 
    192 H192       -2.8911  -19.7408  -44.2019 H         1 UNK         0.0600 
    193 H193       -3.5734  -21.3143  -43.8514 H         1 UNK         0.0600 
    194 H194       -2.0047  -21.2019  -44.6403 H         1 UNK         0.0600 
    195 H195       -2.2465  -22.5963  -47.0172 H         1 UNK         0.3000 
    196 H196       -3.9196  -24.8642  -46.7102 H         1 UNK         0.0600 
    197 H197       -2.3461  -25.9859  -48.1904 H         1 UNK         0.0600 
    198 H198       -1.4305  -24.9261  -47.1302 H         1 UNK         0.0600 
    199 H199       -1.7292  -24.4579  -48.8052 H         1 UNK         0.0600 
    200 H200       -3.5831  -22.5739  -49.4685 H         1 UNK         0.3000 
    201 H201       -5.4576  -23.8642  -51.1811 H         1 UNK         0.0600 
    202 H202       -3.8006  -22.2358  -51.9915 H         1 UNK         0.0600 
    203 H203       -4.5628  -20.9385  -51.0751 H         1 UNK         0.0600 
    204 H204       -5.4213  -21.7017  -52.4103 H         1 UNK         0.0600 
    205 H205       -5.8979  -21.3058  -48.7072 H         1 UNK         0.3000 
    206 H206       -8.6806  -20.9013  -49.1249 H         1 UNK         0.0600 
    207 H207       -7.2327  -19.3423  -47.8310 H         1 UNK         0.0600 
    208 H208       -8.6146  -19.8572  -46.8745 H         1 UNK         0.0600 
    209 H209       -7.0298  -20.5519  -46.5662 H         1 UNK         0.0600 
    210 H210       -6.9205  -23.2647  -47.1196 H         1 UNK         0.3000 
    211 H211       -9.2843  -24.5406  -46.0279 H         1 UNK         0.0600 
    212 H212       -6.3656  -25.4684  -46.1929 H         1 UNK         0.0600 
    213 H213       -7.6153  -26.1815  -45.1819 H         1 UNK         0.0600 
    214 H214       -7.0710  -24.5400  -44.8714 H         1 UNK         0.0600 
    215 H215       -7.8445  -24.6469  -49.1073 H         1 UNK         0.3000 
    216 H216       -7.9344  -25.8607  -50.9322 H         1 UNK         0.0600 
    217 H217      -10.4183  -25.7518  -50.6227 H         1 UNK         0.0600 
    218 H218      -10.3785  -27.2908  -49.7624 H         1 UNK         0.0600 
    219 H219       -9.9192  -27.2136  -51.4571 H         1 UNK         0.0600 
    220 H220       -6.1683  -26.6537  -48.9035 H         1 UNK         0.3000 
    221 H221       -6.0563  -29.6190  -48.8992 H         1 UNK         0.0600 
    222 H222       -4.4179  -27.4932  -47.4147 H         1 UNK         0.0600 
    223 H223       -5.7850  -28.3855  -46.7508 H         1 UNK         0.0600 
    224 H224       -4.3049  -29.2330  -47.1748 H         1 UNK         0.0600 
    225 H225       -4.5842  -26.8514  -50.5088 H         1 UNK         0.3000 
    226 H226       -2.9395  -28.5162  -52.1814 H         1 UNK         0.0600 
    227 H227       -1.4375  -28.2309  -50.1159 H         1 UNK         0.0600 
    228 H228       -0.7628  -27.5132  -51.5650 H         1 UNK         0.0600 
    229 H229       -1.5154  -26.4861  -50.3579 H         1 UNK         0.0600 
    230 H230       -1.5633  -26.8967  -53.6091 H         1 UNK         0.3000 
    231 H231       -3.3547  -24.8533  -54.7015 H         1 UNK         0.0600 
    232 H232       -1.5470  -24.6553  -56.4155 H         1 UNK         0.0600 
    233 H233       -2.0319  -26.3317  -56.2147 H         1 UNK         0.0600 
    234 H234       -0.5280  -25.7542  -55.4955 H         1 UNK         0.0600 
    235 H235       -2.7539  -22.6369  -54.9297 H         1 UNK         0.3000 
    236 H236       -1.4468  -21.4533  -52.6258 H         1 UNK         0.0600 
    237 H237       -2.1788  -19.3303  -53.6824 H         1 UNK         0.0600 
    238 H238       -2.5915  -20.1727  -55.1718 H         1 UNK         0.0600 
    239 H239       -3.5071  -20.4724  -53.6991 H         1 UNK         0.0600 
    240 H240        0.2471  -19.8420  -52.7737 H         1 UNK         0.3000 
    241 H241        2.4457  -20.5158  -54.5326 H         1 UNK         0.0600 
    242 H242       -0.2422  -18.4660  -55.1388 H         1 UNK         0.3800 
    243 H243        0.5529  -17.4756  -56.3317 H         1 UNK         0.3800 
    244 H244        3.1896  -20.0440  -52.3894 H         1 UNK         0.0800 
    245 H245        3.6148  -18.5996  -53.2383 H         1 UNK         0.0800 
    246 H246        2.9374  -16.2641  -52.4760 H         1 UNK         0.0800 
    247 H247        1.3817  -16.5051  -53.2443 H         1 UNK         0.0800 
@<TRIPOS>BOND
     1    1    2 1    
     2    1  127 1    
     3    1  128 1    
     4    1  129 1    
     5    2    3 2    
     6    2    4 am   BACKBONE|DICT|INTERRES
     7    4    5 1    
     8    4  130 1    
     9    5    6 1    
    10    5   65 1    
    11    5  131 1    
    12    6    7 1    
    13    6  132 1    
    14    6  133 1    
    15    7    8 1    
    16    8    9 1    
    17    8  134 1    
    18    8  135 1    
    19    9   10 ar   
    20    9   14 ar   
    21   10   11 ar   
    22   10  136 1    
    23   11   12 ar   
    24   11  126 1    
    25   12   13 ar   
    26   12  137 1    
    27   13   14 ar   
    28   13   15 1    
    29   14  138 1    
    30   15   16 1    
    31   15  139 1    
    32   15  140 1    
    33   16   17 1    
    34   17   18 1    
    35   17  141 1    
    36   17  142 1    
    37   18   19 1    
    38   18   67 1    
    39   18  143 1    
    40   19   20 am   BACKBONE|DICT|INTERRES
    41   19  144 1    
    42   20   21 2    
    43   20   22 1    
    44   22   23 1    
    45   22   24 1    
    46   22  145 1    
    47   23  146 1    
    48   23  147 1    
    49   23  148 1    
    50   24   25 am   BACKBONE|DICT|INTERRES
    51   24  149 1    
    52   25   26 2    
    53   25   27 1    
    54   27   28 1    
    55   27   29 1    
    56   27  150 1    
    57   28  151 1    
    58   28  152 1    
    59   28  153 1    
    60   29   30 am   BACKBONE|DICT|INTERRES
    61   29  154 1    
    62   30   31 2    
    63   30   32 1    
    64   32   33 1    
    65   32   34 1    
    66   32  155 1    
    67   33  156 1    
    68   33  157 1    
    69   33  158 1    
    70   34   35 am   BACKBONE|DICT|INTERRES
    71   34  159 1    
    72   35   36 2    
    73   35   37 1    
    74   37   38 1    
    75   37   39 1    
    76   37  160 1    
    77   38  161 1    
    78   38  162 1    
    79   38  163 1    
    80   39   40 am   BACKBONE|DICT|INTERRES
    81   39  164 1    
    82   40   41 2    
    83   40   42 1    
    84   42   43 1    
    85   42   44 1    
    86   42  165 1    
    87   43  166 1    
    88   43  167 1    
    89   43  168 1    
    90   44   45 am   BACKBONE|DICT|INTERRES
    91   44  169 1    
    92   45   46 2    
    93   45   47 1    
    94   47   48 1    
    95   47   49 1    
    96   47  170 1    
    97   48  171 1    
    98   48  172 1    
    99   48  173 1    
   100   49   50 am   BACKBONE|DICT|INTERRES
   101   49  174 1    
   102   50   51 2    
   103   50   52 1    
   104   52   53 1    
   105   52   54 1    
   106   52  175 1    
   107   53  176 1    
   108   53  177 1    
   109   53  178 1    
   110   54   55 am   BACKBONE|DICT|INTERRES
   111   54  179 1    
   112   55   56 2    
   113   55   57 1    
   114   57   58 1    
   115   57   59 1    
   116   57  180 1    
   117   58  181 1    
   118   58  182 1    
   119   58  183 1    
   120   59   60 am   BACKBONE|DICT|INTERRES
   121   59  184 1    
   122   60   61 2    
   123   60   62 1    
   124   62   63 1    
   125   62   64 1    
   126   62  185 1    
   127   63  186 1    
   128   63  187 1    
   129   63  188 1    
   130   64   65 am   BACKBONE|DICT|INTERRES
   131   64  189 1    
   132   65   66 2    
   133   67   68 2    
   134   67   69 am   BACKBONE|DICT|INTERRES
   135   69   70 1    
   136   69  190 1    
   137   70   71 1    
   138   70   72 1    
   139   70  191 1    
   140   71  192 1    
   141   71  193 1    
   142   71  194 1    
   143   72   73 2    
   144   72   74 am   BACKBONE|DICT|INTERRES
   145   74   75 1    
   146   74  195 1    
   147   75   76 1    
   148   75   77 1    
   149   75  196 1    
   150   76  197 1    
   151   76  198 1    
   152   76  199 1    
   153   77   78 2    
   154   77   79 am   BACKBONE|DICT|INTERRES
   155   79   80 1    
   156   79  200 1    
   157   80   81 1    
   158   80   82 1    
   159   80  201 1    
   160   81  202 1    
   161   81  203 1    
   162   81  204 1    
   163   82   83 2    
   164   82   84 am   BACKBONE|DICT|INTERRES
   165   84   85 1    
   166   84  205 1    
   167   85   86 1    
   168   85   87 1    
   169   85  206 1    
   170   86  207 1    
   171   86  208 1    
   172   86  209 1    
   173   87   88 2    
   174   87   89 am   BACKBONE|DICT|INTERRES
   175   89   90 1    
   176   89  210 1    
   177   90   91 1    
   178   90   92 1    
   179   90  211 1    
   180   91  212 1    
   181   91  213 1    
   182   91  214 1    
   183   92   93 2    
   184   92   94 am   BACKBONE|DICT|INTERRES
   185   94   95 1    
   186   94  215 1    
   187   95   96 1    
   188   95   97 1    
   189   95  216 1    
   190   96  217 1    
   191   96  218 1    
   192   96  219 1    
   193   97   98 2    
   194   97   99 am   BACKBONE|DICT|INTERRES
   195   99  100 1    
   196   99  220 1    
   197  100  101 1    
   198  100  102 1    
   199  100  221 1    
   200  101  222 1    
   201  101  223 1    
   202  101  224 1    
   203  102  103 2    
   204  102  104 am   BACKBONE|DICT|INTERRES
   205  104  105 1    
   206  104  225 1    
   207  105  106 1    
   208  105  107 1    
   209  105  226 1    
   210  106  227 1    
   211  106  228 1    
   212  106  229 1    
   213  107  108 2    
   214  107  109 am   BACKBONE|DICT|INTERRES
   215  109  110 1    
   216  109  230 1    
   217  110  111 1    
   218  110  112 1    
   219  110  231 1    
   220  111  232 1    
   221  111  233 1    
   222  111  234 1    
   223  112  113 2    
   224  112  114 am   BACKBONE|DICT|INTERRES
   225  114  115 1    
   226  114  235 1    
   227  115  116 1    
   228  115  117 1    
   229  115  236 1    
   230  116  237 1    
   231  116  238 1    
   232  116  239 1    
   233  117  118 2    
   234  117  119 am   BACKBONE|DICT|INTERRES
   235  119  120 1    
   236  119  240 1    
   237  120  121 1    
   238  120  124 1    
   239  120  241 1    
   240  121  122 am   BACKBONE|DICT|INTERRES
   241  121  123 2    
   242  122  242 1    
   243  122  243 1    
   244  124  125 1    
   245  124  244 1    
   246  124  245 1    
   247  125  126 1    
   248  126  246 1    
   249  126  247 1    
@<TRIPOS>SUBSTRUCTURE
     1 UNK         1 GROUP             0       ****    0 ROOT    
