@<TRIPOS>MOLECULE
3R540
247   249    1
SMALL
USER_CHARGES


@<TRIPOS>ATOM
      1 CA         -0.8347  -14.7800  -47.2252 C.3       0 UNK        -0.1800 
      2 C          -1.0484  -13.9974  -45.9383 C.2       0 UNK         0.5000 
      3 O          -0.1874  -14.0188  -45.0609 O.2       0 UNK        -0.5000 
      4 N          -2.1819  -13.2922  -45.8308 N.am      1 UNK        -0.5000 
      5 CA         -2.6022  -12.5060  -44.6605 C.3       1 UNK         0.1400 
      6 C6         -4.0337  -11.9314  -44.8263 C.3       23 UNK        -0.0398 
      7 S7         -4.2846  -10.9769  -46.3710 S.3       23 UNK        -0.2404 
      8 C8         -5.6297  -11.8919  -47.1923 C.3       23 UNK        -0.0205 
      9 C9         -5.1758  -13.2476  -47.7137 C.ar      23 UNK        -0.0193 
     10 C10        -4.5606  -13.3570  -48.9650 C.ar      23 UNK        -0.1150 
     11 C11        -4.1541  -14.6049  -49.4503 C.ar      23 UNK        -0.0193 
     12 C12        -4.3535  -15.7446  -48.6648 C.ar      23 UNK        -0.1150 
     13 C13        -4.9692  -15.6465  -47.4156 C.ar      23 UNK        -0.0193 
     14 C14        -5.3877  -14.3986  -46.9510 C.ar      23 UNK        -0.1150 
     15 C15        -5.1919  -16.8824  -46.5626 C.3       23 UNK        -0.0205 
     16 S16        -3.8708  -17.0803  -45.3303 S.3       23 UNK        -0.2404 
     17 C17        -2.5831  -17.9268  -46.3203 C.3       23 UNK        -0.0398 
     18 CA         -2.6893  -19.4712  -46.5348 C.3       11 UNK         0.1400 
     19 N          -1.3738  -20.1187  -46.4987 N.am      11 UNK        -0.5000 
     20 C          -1.1083  -21.3860  -46.8470 C.2       10 UNK         0.5000 
     21 O          -1.9381  -22.1513  -47.3348 O.2       10 UNK        -0.5000 
     22 CA          0.3091  -21.9086  -46.5465 C.3       10 UNK         0.1400 
     23 CB          1.2830  -21.5441  -47.6760 C.3       10 UNK        -0.1800 
     24 N           0.8211  -21.4265  -45.2612 N.am      10 UNK        -0.5000 
     25 C           0.2765  -21.7378  -44.0752 C.2       9 UNK         0.5000 
     26 O          -0.6636  -22.5218  -43.9451 O.2       9 UNK        -0.5000 
     27 CA          0.8337  -21.0165  -42.8341 C.3       9 UNK         0.1400 
     28 CB          2.1069  -21.7066  -42.3240 C.3       9 UNK        -0.1800 
     29 N           1.0995  -19.5977  -43.0789 N.am      9 UNK        -0.5000 
     30 C           0.1578  -18.6870  -43.3676 C.2       8 UNK         0.5000 
     31 O          -1.0462  -18.9399  -43.3945 O.2       8 UNK        -0.5000 
     32 CA          0.6450  -17.2769  -43.7536 C.3       8 UNK         0.1400 
     33 CB          0.9693  -16.4406  -42.5083 C.3       8 UNK        -0.1800 
     34 N           1.8094  -17.3194  -44.6381 N.am      8 UNK        -0.5000 
     35 C           1.8144  -17.8442  -45.8704 C.2       7 UNK         0.5000 
     36 O           0.8094  -18.2825  -46.4266 O.2       7 UNK        -0.5000 
     37 CA          3.1750  -17.9571  -46.5780 C.3       7 UNK         0.1400 
     38 CB          3.5332  -16.6629  -47.3183 C.3       7 UNK        -0.1800 
     39 N           4.2474  -18.2970  -45.6454 N.am      7 UNK        -0.5000 
     40 C           4.4193  -19.5086  -45.1025 C.2       6 UNK         0.5000 
     41 O           3.7098  -20.4800  -45.3649 O.2       6 UNK        -0.5000 
     42 CA          5.5532  -19.6433  -44.0684 C.3       6 UNK         0.1400 
     43 CB          6.9000  -19.8764  -44.7691 C.3       6 UNK        -0.1800 
     44 N           5.6592  -18.4756  -43.1895 N.am      6 UNK        -0.5000 
     45 C           4.7402  -18.1416  -42.2732 C.2       5 UNK         0.5000 
     46 O           3.7215  -18.7987  -42.0620 O.2       5 UNK        -0.5000 
     47 CA          4.9723  -16.8350  -41.4879 C.3       5 UNK         0.1400 
     48 CB          5.8698  -17.0959  -40.2690 C.3       5 UNK        -0.1800 
     49 N           5.5325  -15.7281  -42.2735 N.am      5 UNK        -0.5000 
     50 C           5.0148  -15.2404  -43.4091 C.2       4 UNK         0.5000 
     51 O           4.0616  -15.7536  -43.9962 O.2       4 UNK        -0.5000 
     52 CA          5.7081  -13.9998  -44.0068 C.3       4 UNK         0.1400 
     53 CB          7.0269  -14.4045  -44.6851 C.3       4 UNK        -0.1800 
     54 N           4.8741  -13.3096  -44.9948 N.am      4 UNK        -0.5000 
     55 C           3.7126  -12.6912  -44.7399 C.2       3 UNK         0.5000 
     56 O           3.2527  -12.5403  -43.6044 O.2       3 UNK        -0.5000 
     57 CA          2.9607  -12.1468  -45.9716 C.3       3 UNK         0.1400 
     58 CB          2.6633  -13.2550  -46.9952 C.3       3 UNK        -0.1800 
     59 N           1.6907  -11.5289  -45.5977 N.am      3 UNK        -0.5000 
     60 C           1.5132  -10.2234  -45.3595 C.2       2 UNK         0.5000 
     61 O           2.4246   -9.3956  -45.4152 O.2       2 UNK        -0.5000 
     62 CA          0.0823   -9.7481  -45.0343 C.3       2 UNK         0.1400 
     63 CB         -0.3213   -8.5553  -45.9190 C.3       2 UNK        -0.1800 
     64 N          -0.9081  -10.8110  -45.2206 N.am      2 UNK        -0.5000 
     65 C          -1.6097  -11.3960  -44.2424 C.2       1 UNK         0.5000 
     66 O          -1.5031  -11.1007  -43.0510 O.2       1 UNK        -0.5000 
     67 C          -3.6959  -20.1989  -45.6155 C.2       11 UNK         0.5000 
     68 O          -4.7951  -20.5227  -46.0657 O.2       11 UNK        -0.5000 
     69 N          -3.2926  -20.4841  -44.3688 N.am      12 UNK        -0.5000 
     70 CA         -4.0938  -21.2118  -43.3799 C.3       12 UNK         0.1400 
     71 CB         -3.3727  -21.1954  -42.0239 C.3       12 UNK        -0.1800 
     72 C          -4.4260  -22.6545  -43.8110 C.2       12 UNK         0.5000 
     73 O          -5.5274  -23.1339  -43.5409 O.2       12 UNK        -0.5000 
     74 N          -3.4856  -23.2994  -44.5131 N.am      13 UNK        -0.5000 
     75 CA         -3.6503  -24.6096  -45.1447 C.3       13 UNK         0.1400 
     76 CB         -2.2578  -25.2319  -45.3392 C.3       13 UNK        -0.1800 
     77 C          -4.4051  -24.5568  -46.4913 C.2       13 UNK         0.5000 
     78 O          -4.6392  -25.6123  -47.0824 O.2       13 UNK        -0.5000 
     79 N          -4.7243  -23.3487  -46.9842 N.am      14 UNK        -0.5000 
     80 CA         -5.3437  -23.0351  -48.2791 C.3       14 UNK         0.1400 
     81 CB         -6.8193  -23.4836  -48.2873 C.3       14 UNK        -0.1800 
     82 C          -4.5499  -23.5870  -49.4832 C.2       14 UNK         0.5000 
     83 O          -5.1476  -23.9794  -50.4857 O.2       14 UNK        -0.5000 
     84 N          -3.2189  -23.6723  -49.3315 N.am      15 UNK        -0.5000 
     85 CA         -2.2522  -24.3281  -50.2200 C.3       15 UNK         0.1400 
     86 CB         -2.0409  -23.4890  -51.4951 C.3       15 UNK        -0.1800 
     87 C          -2.6043  -25.8007  -50.5346 C.2       15 UNK         0.5000 
     88 O          -2.3155  -26.2757  -51.6323 O.2       15 UNK        -0.5000 
     89 N          -3.2722  -26.4834  -49.5897 N.am      16 UNK        -0.5000 
     90 CA         -3.8565  -27.8245  -49.7196 C.3       16 UNK         0.1400 
     91 CB         -2.7527  -28.8944  -49.8528 C.3       16 UNK        -0.1800 
     92 C          -4.9256  -27.9158  -50.8345 C.2       16 UNK         0.5000 
     93 O          -5.1017  -28.9784  -51.4325 O.2       16 UNK        -0.5000 
     94 N          -5.6083  -26.7895  -51.0953 N.am      17 UNK        -0.5000 
     95 CA         -6.6146  -26.5559  -52.1357 C.3       17 UNK         0.1400 
     96 CB         -7.8333  -27.4865  -51.9608 C.3       17 UNK        -0.1800 
     97 C          -6.0488  -26.5679  -53.5730 C.2       17 UNK         0.5000 
     98 O          -6.8224  -26.6843  -54.5258 O.2       17 UNK        -0.5000 
     99 N          -4.7238  -26.4289  -53.7212 N.am      18 UNK        -0.5000 
    100 CA        -4.0488  -26.2973  -55.0109 C.3       18 UNK         0.1400 
    101 CB        -2.5646  -26.6586  -54.8382 C.3       18 UNK        -0.1800 
    102 C         -4.1839  -24.8725  -55.5789 C.2       18 UNK         0.5000 
    103 O         -4.4520  -23.9221  -54.8391 O.2       18 UNK        -0.5000 
    104 N         -3.9134  -24.7397  -56.8843 N.am      19 UNK        -0.5000 
    105 CA        -3.8985  -23.4736  -57.6288 C.3       19 UNK         0.1400 
    106 CB        -3.7838  -23.7879  -59.1290 C.3       19 UNK        -0.1800 
    107 C         -2.7889  -22.4894  -57.1936 C.2       19 UNK         0.5000 
    108 O         -2.8165  -21.3275  -57.5993 O.2       19 UNK        -0.5000 
    109 N         -1.8430  -22.9632  -56.3708 N.am      20 UNK        -0.5000 
    110 CA        -0.7733  -22.1856  -55.7464 C.3       20 UNK         0.1400 
    111 CB         0.2431  -23.1622  -55.1339 C.3       20 UNK        -0.1800 
    112 C         -1.2605  -21.1777  -54.6831 C.2       20 UNK         0.5000 
    113 O         -0.4807  -20.3046  -54.2977 O.2       20 UNK        -0.5000 
    114 N         -2.5162  -21.3033  -54.2225 N.am      21 UNK        -0.5000 
    115 CA        -3.1731  -20.3978  -53.2761 C.3       21 UNK         0.1400 
    116 CB        -4.6097  -20.8834  -53.0223 C.3       21 UNK        -0.1800 
    117 C         -3.1567  -18.9354  -53.7670 C.2       21 UNK         0.5000 
    118 O         -3.7775  -18.6254  -54.7859 O.2       21 UNK        -0.5000 
    119 N         -2.4096  -18.0888  -53.0473 N.am      22 UNK        -0.5000 
    120 CA        -2.1102  -16.6830  -53.3790 C.3       22 UNK         0.1400 
    121 C         -1.1859  -16.4917  -54.6226 C.2       22 UNK         0.5000 
    122 N         -0.4855  -17.5141  -55.0989 N.am      22 UNK        -0.7600 
    123 O         -1.0700  -15.3884  -55.1498 O.2       22 UNK        -0.5000 
    124 C124       -3.3630  -15.7594  -53.4245 C.3       23 UNK        -0.0398 
    125 S125       -4.3941  -15.8442  -51.9215 S.3       23 UNK        -0.2404 
    126 C126       -3.4816  -14.7243  -50.8105 C.3       23 UNK        -0.0205 
    127 H127       -0.1279  -14.2593  -47.8703 H         1 UNK         0.0600 
    128 H128       -1.7661  -14.9106  -47.7736 H         1 UNK         0.0600 
    129 H129       -0.4304  -15.7673  -47.0033 H         1 UNK         0.0600 
    130 H130       -2.8459  -13.3059  -46.5931 H         1 UNK         0.3000 
    131 H131       -2.6333  -13.2069  -43.8235 H         1 UNK         0.0600 
    132 H132       -4.7528  -12.7473  -44.7801 H         1 UNK         0.0800 
    133 H133       -4.2921  -11.2893  -43.9821 H         1 UNK         0.0800 
    134 H134       -6.4679  -12.0057  -46.5030 H         1 UNK         0.0800 
    135 H135       -6.0036  -11.2917  -48.0230 H         1 UNK         0.0800 
    136 H136       -4.4018  -12.4685  -49.5602 H         1 UNK         0.1150 
    137 H137       -4.0348  -16.7094  -49.0335 H         1 UNK         0.1150 
    138 H138       -5.8756  -14.3283  -45.9893 H         1 UNK         0.1150 
    139 H139       -6.1469  -16.7986  -46.0417 H         1 UNK         0.0800 
    140 H140       -5.2644  -17.7767  -47.1836 H         1 UNK         0.0800 
    141 H141       -1.6532  -17.6980  -45.8045 H         1 UNK         0.0800 
    142 H142       -2.4875  -17.4301  -47.2852 H         1 UNK         0.0800 
    143 H143       -3.0682  -19.6156  -47.5491 H         1 UNK         0.0600 
    144 H144       -0.5997  -19.5431  -46.1794 H         1 UNK         0.3000 
    145 H145        0.2542  -22.9977  -46.4919 H         1 UNK         0.0600 
    146 H146        2.2803  -21.9385  -47.4798 H         1 UNK         0.0600 
    147 H147        0.9482  -21.9620  -48.6262 H         1 UNK         0.0600 
    148 H148        1.3692  -20.4663  -47.8069 H         1 UNK         0.0600 
    149 H149        1.6312  -20.8177  -45.2862 H         1 UNK         0.3000 
    150 H150        0.0783  -21.0813  -42.0484 H         1 UNK         0.0600 
    151 H151        1.9238  -22.7624  -42.1202 H         1 UNK         0.0600 
    152 H152        2.4556  -21.2524  -41.3964 H         1 UNK         0.0600 
    153 H153        2.9179  -21.6478  -43.0498 H         1 UNK         0.0600 
    154 H154        2.0671  -19.2976  -43.0089 H         1 UNK         0.3000 
    155 H155       -0.1612  -16.7740  -44.2897 H         1 UNK         0.0600 
    156 H156        0.0898  -16.3348  -41.8723 H         1 UNK         0.0600 
    157 H157        1.2955  -15.4369  -42.7838 H         1 UNK         0.0600 
    158 H158        1.7556  -16.8971  -41.9084 H         1 UNK         0.0600 
    159 H159        2.6698  -16.9048  -44.2865 H         1 UNK         0.3000 
    160 H160        3.0944  -18.7540  -47.3201 H         1 UNK         0.0600 
    161 H161        3.7578  -15.8584  -46.6203 H         1 UNK         0.0600 
    162 H162        2.7135  -16.3331  -47.9581 H         1 UNK         0.0600 
    163 H163        4.4076  -16.8041  -47.9536 H         1 UNK         0.0600 
    164 H164        4.8143  -17.5307  -45.3115 H         1 UNK         0.3000 
    165 H165        5.3357  -20.5170  -43.4502 H         1 UNK         0.0600 
    166 H166        7.6956  -20.0521  -44.0449 H         1 UNK         0.0600 
    167 H167        6.8547  -20.7511  -45.4193 H         1 UNK         0.0600 
    168 H168        7.1882  -19.0237  -45.3852 H         1 UNK         0.0600 
    169 H169        6.4660  -17.8804  -43.3060 H         1 UNK         0.3000 
    170 H170        3.9993  -16.5034  -41.1213 H         1 UNK         0.0600 
    171 H171        5.4680  -17.9014  -39.6526 H         1 UNK         0.0600 
    172 H172        6.8794  -17.3823  -40.5663 H         1 UNK         0.0600 
    173 H173        5.9436  -16.2116  -39.6358 H         1 UNK         0.0600 
    174 H174        6.3334  -15.2632  -41.8708 H         1 UNK         0.3000 
    175 H175        5.9234  -13.3020  -43.1952 H         1 UNK         0.0600 
    176 H176        6.8592  -15.1048  -45.5047 H         1 UNK         0.0600 
    177 H177        7.5462  -13.5348  -45.0883 H         1 UNK         0.0600 
    178 H178        7.7057  -14.8836  -43.9784 H         1 UNK         0.0600 
    179 H179        5.1705  -13.3965  -45.9551 H         1 UNK         0.3000 
    180 H180        3.6031  -11.4065  -46.4528 H         1 UNK         0.0600 
    181 H181        2.0484  -12.8816  -47.8141 H         1 UNK         0.0600 
    182 H182        2.1366  -14.0920  -46.5356 H         1 UNK         0.0600 
    183 H183        3.5809  -13.6388  -47.4407 H         1 UNK         0.0600 
    184 H184        0.9247  -12.1667  -45.4171 H         1 UNK         0.3000 
    185 H185        0.0936   -9.4099  -43.9965 H         1 UNK         0.0600 
    186 H186       -0.3019   -8.8156  -46.9780 H         1 UNK         0.0600 
    187 H187       -1.3270   -8.2101  -45.6778 H         1 UNK         0.0600 
    188 H188        0.3524   -7.7098  -45.7747 H         1 UNK         0.0600 
    189 H189       -1.0647  -11.1195  -46.1697 H         1 UNK         0.3000 
    190 H190       -2.3930  -20.1271  -44.0566 H         1 UNK         0.3000 
    191 H191       -5.0388  -20.6766  -43.2671 H         1 UNK         0.0600 
    192 H192       -2.4170  -21.7172  -42.0685 H         1 UNK         0.0600 
    193 H193       -3.1812  -20.1749  -41.6914 H         1 UNK         0.0600 
    194 H194       -3.9758  -21.6811  -41.2559 H         1 UNK         0.0600 
    195 H195       -2.5812  -22.8532  -44.6267 H         1 UNK         0.3000 
    196 H196       -4.2224  -25.2551  -44.4753 H         1 UNK         0.0600 
    197 H197       -1.7230  -25.3055  -44.3920 H         1 UNK         0.0600 
    198 H198       -1.6466  -24.6413  -46.0222 H         1 UNK         0.0600 
    199 H199       -2.3293  -26.2398  -45.7500 H         1 UNK         0.0600 
    200 H200       -4.4758  -22.5356  -46.4330 H         1 UNK         0.3000 
    201 H201       -5.3239  -21.9491  -48.3763 H         1 UNK         0.0600 
    202 H202       -7.3289  -23.1409  -49.1886 H         1 UNK         0.0600 
    203 H203       -7.3596  -23.0720  -47.4347 H         1 UNK         0.0600 
    204 H204       -6.9122  -24.5696  -48.2514 H         1 UNK         0.0600 
    205 H205       -2.8212  -23.2639  -48.4867 H         1 UNK         0.3000 
    206 H206       -1.3068  -24.3505  -49.6763 H         1 UNK         0.0600 
    207 H207       -1.7999  -22.4553  -51.2500 H         1 UNK         0.0600 
    208 H208       -2.9276  -23.4920  -52.1294 H         1 UNK         0.0600 
    209 H209       -1.2148  -23.8802  -52.0892 H         1 UNK         0.0600 
    210 H210       -3.5167  -26.0003  -48.7309 H         1 UNK         0.3000 
    211 H211       -4.3845  -28.0128  -48.7838 H         1 UNK         0.0600 
    212 H212       -2.0169  -28.8030  -49.0539 H         1 UNK         0.0600 
    213 H213       -3.1727  -29.8990  -49.7916 H         1 UNK         0.0600 
    214 H214       -2.2265  -28.8191  -50.8048 H         1 UNK         0.0600 
    215 H215       -5.3467  -25.9496  -50.5879 H         1 UNK         0.3000 
    216 H216       -6.9651  -25.5358  -51.9729 H         1 UNK         0.0600 
    217 H217       -8.6522  -27.1842  -52.6144 H         1 UNK         0.0600 
    218 H218       -7.5929  -28.5222  -52.2013 H         1 UNK         0.0600 
    219 H219       -8.2095  -27.4562  -50.9383 H         1 UNK         0.0600 
    220 H220       -4.1452  -26.3153  -52.8980 H         1 UNK         0.3000 
    221 H221       -4.4973  -27.0004  -55.7160 H         1 UNK         0.0600 
    222 H222       -2.0381  -25.9206  -54.2318 H         1 UNK         0.0600 
    223 H223       -2.4466  -27.6307  -54.3587 H         1 UNK         0.0600 
    224 H224       -2.0568  -26.7100  -55.8018 H         1 UNK         0.0600 
    225 H225       -3.6842  -25.5663  -57.4178 H         1 UNK         0.3000 
    226 H226       -4.8537  -22.9736  -57.4560 H         1 UNK         0.0600 
    227 H227       -4.6087  -24.4163  -59.4654 H         1 UNK         0.0600 
    228 H228       -3.8113  -22.8746  -59.7249 H         1 UNK         0.0600 
    229 H229       -2.8509  -24.3031  -59.3613 H         1 UNK         0.0600 
    230 H230       -1.9037  -23.9335  -56.1028 H         1 UNK         0.3000 
    231 H231       -0.2711  -21.6121  -56.5281 H         1 UNK         0.0600 
    232 H232        1.0741  -22.6268  -54.6727 H         1 UNK         0.0600 
    233 H233        0.6656  -23.8201  -55.8936 H         1 UNK         0.0600 
    234 H234       -0.2124  -23.7867  -54.3646 H         1 UNK         0.0600 
    235 H235       -3.0882  -22.0529  -54.5896 H         1 UNK         0.3000 
    236 H236       -2.6286  -20.4565  -52.3321 H         1 UNK         0.0600 
    237 H237       -5.1269  -20.2244  -52.3238 H         1 UNK         0.0600 
    238 H238       -5.1929  -20.9106  -53.9436 H         1 UNK         0.0600 
    239 H239       -4.6225  -21.8849  -52.5923 H         1 UNK         0.0600 
    240 H240       -1.9144  -18.4513  -52.2458 H         1 UNK         0.3000 
    241 H241       -1.4960  -16.3317  -52.5500 H         1 UNK         0.0600 
    242 H242        0.1164  -17.3684  -55.8935 H         1 UNK         0.3800 
    243 H243       -0.5467  -18.4395  -54.6827 H         1 UNK         0.3800 
    244 H244       -3.0695  -14.7191  -53.5739 H         1 UNK         0.0800 
    245 H245       -3.9901  -16.0148  -54.2795 H         1 UNK         0.0800 
    246 H246       -2.4665  -15.0967  -50.6679 H         1 UNK         0.0800 
    247 H247       -3.3935  -13.7451  -51.2837 H         1 UNK         0.0800 
@<TRIPOS>BOND
     1    1    2 1    
     2    1  127 1    
     3    1  128 1    
     4    1  129 1    
     5    2    3 2    
     6    2    4 am   BACKBONE|DICT|INTERRES
     7    4    5 1    
     8    4  130 1    
     9    5    6 1    
    10    5   65 1    
    11    5  131 1    
    12    6    7 1    
    13    6  132 1    
    14    6  133 1    
    15    7    8 1    
    16    8    9 1    
    17    8  134 1    
    18    8  135 1    
    19    9   10 ar   
    20    9   14 ar   
    21   10   11 ar   
    22   10  136 1    
    23   11   12 ar   
    24   11  126 1    
    25   12   13 ar   
    26   12  137 1    
    27   13   14 ar   
    28   13   15 1    
    29   14  138 1    
    30   15   16 1    
    31   15  139 1    
    32   15  140 1    
    33   16   17 1    
    34   17   18 1    
    35   17  141 1    
    36   17  142 1    
    37   18   19 1    
    38   18   67 1    
    39   18  143 1    
    40   19   20 am   BACKBONE|DICT|INTERRES
    41   19  144 1    
    42   20   21 2    
    43   20   22 1    
    44   22   23 1    
    45   22   24 1    
    46   22  145 1    
    47   23  146 1    
    48   23  147 1    
    49   23  148 1    
    50   24   25 am   BACKBONE|DICT|INTERRES
    51   24  149 1    
    52   25   26 2    
    53   25   27 1    
    54   27   28 1    
    55   27   29 1    
    56   27  150 1    
    57   28  151 1    
    58   28  152 1    
    59   28  153 1    
    60   29   30 am   BACKBONE|DICT|INTERRES
    61   29  154 1    
    62   30   31 2    
    63   30   32 1    
    64   32   33 1    
    65   32   34 1    
    66   32  155 1    
    67   33  156 1    
    68   33  157 1    
    69   33  158 1    
    70   34   35 am   BACKBONE|DICT|INTERRES
    71   34  159 1    
    72   35   36 2    
    73   35   37 1    
    74   37   38 1    
    75   37   39 1    
    76   37  160 1    
    77   38  161 1    
    78   38  162 1    
    79   38  163 1    
    80   39   40 am   BACKBONE|DICT|INTERRES
    81   39  164 1    
    82   40   41 2    
    83   40   42 1    
    84   42   43 1    
    85   42   44 1    
    86   42  165 1    
    87   43  166 1    
    88   43  167 1    
    89   43  168 1    
    90   44   45 am   BACKBONE|DICT|INTERRES
    91   44  169 1    
    92   45   46 2    
    93   45   47 1    
    94   47   48 1    
    95   47   49 1    
    96   47  170 1    
    97   48  171 1    
    98   48  172 1    
    99   48  173 1    
   100   49   50 am   BACKBONE|DICT|INTERRES
   101   49  174 1    
   102   50   51 2    
   103   50   52 1    
   104   52   53 1    
   105   52   54 1    
   106   52  175 1    
   107   53  176 1    
   108   53  177 1    
   109   53  178 1    
   110   54   55 am   BACKBONE|DICT|INTERRES
   111   54  179 1    
   112   55   56 2    
   113   55   57 1    
   114   57   58 1    
   115   57   59 1    
   116   57  180 1    
   117   58  181 1    
   118   58  182 1    
   119   58  183 1    
   120   59   60 am   BACKBONE|DICT|INTERRES
   121   59  184 1    
   122   60   61 2    
   123   60   62 1    
   124   62   63 1    
   125   62   64 1    
   126   62  185 1    
   127   63  186 1    
   128   63  187 1    
   129   63  188 1    
   130   64   65 am   BACKBONE|DICT|INTERRES
   131   64  189 1    
   132   65   66 2    
   133   67   68 2    
   134   67   69 am   BACKBONE|DICT|INTERRES
   135   69   70 1    
   136   69  190 1    
   137   70   71 1    
   138   70   72 1    
   139   70  191 1    
   140   71  192 1    
   141   71  193 1    
   142   71  194 1    
   143   72   73 2    
   144   72   74 am   BACKBONE|DICT|INTERRES
   145   74   75 1    
   146   74  195 1    
   147   75   76 1    
   148   75   77 1    
   149   75  196 1    
   150   76  197 1    
   151   76  198 1    
   152   76  199 1    
   153   77   78 2    
   154   77   79 am   BACKBONE|DICT|INTERRES
   155   79   80 1    
   156   79  200 1    
   157   80   81 1    
   158   80   82 1    
   159   80  201 1    
   160   81  202 1    
   161   81  203 1    
   162   81  204 1    
   163   82   83 2    
   164   82   84 am   BACKBONE|DICT|INTERRES
   165   84   85 1    
   166   84  205 1    
   167   85   86 1    
   168   85   87 1    
   169   85  206 1    
   170   86  207 1    
   171   86  208 1    
   172   86  209 1    
   173   87   88 2    
   174   87   89 am   BACKBONE|DICT|INTERRES
   175   89   90 1    
   176   89  210 1    
   177   90   91 1    
   178   90   92 1    
   179   90  211 1    
   180   91  212 1    
   181   91  213 1    
   182   91  214 1    
   183   92   93 2    
   184   92   94 am   BACKBONE|DICT|INTERRES
   185   94   95 1    
   186   94  215 1    
   187   95   96 1    
   188   95   97 1    
   189   95  216 1    
   190   96  217 1    
   191   96  218 1    
   192   96  219 1    
   193   97   98 2    
   194   97   99 am   BACKBONE|DICT|INTERRES
   195   99  100 1    
   196   99  220 1    
   197  100  101 1    
   198  100  102 1    
   199  100  221 1    
   200  101  222 1    
   201  101  223 1    
   202  101  224 1    
   203  102  103 2    
   204  102  104 am   BACKBONE|DICT|INTERRES
   205  104  105 1    
   206  104  225 1    
   207  105  106 1    
   208  105  107 1    
   209  105  226 1    
   210  106  227 1    
   211  106  228 1    
   212  106  229 1    
   213  107  108 2    
   214  107  109 am   BACKBONE|DICT|INTERRES
   215  109  110 1    
   216  109  230 1    
   217  110  111 1    
   218  110  112 1    
   219  110  231 1    
   220  111  232 1    
   221  111  233 1    
   222  111  234 1    
   223  112  113 2    
   224  112  114 am   BACKBONE|DICT|INTERRES
   225  114  115 1    
   226  114  235 1    
   227  115  116 1    
   228  115  117 1    
   229  115  236 1    
   230  116  237 1    
   231  116  238 1    
   232  116  239 1    
   233  117  118 2    
   234  117  119 am   BACKBONE|DICT|INTERRES
   235  119  120 1    
   236  119  240 1    
   237  120  121 1    
   238  120  124 1    
   239  120  241 1    
   240  121  122 am   BACKBONE|DICT|INTERRES
   241  121  123 2    
   242  122  242 1    
   243  122  243 1    
   244  124  125 1    
   245  124  244 1    
   246  124  245 1    
   247  125  126 1    
   248  126  246 1    
   249  126  247 1    
@<TRIPOS>SUBSTRUCTURE
     1 UNK         1 GROUP             0       ****    0 ROOT    
