@<TRIPOS>MOLECULE
3R540
247   249    1
SMALL
USER_CHARGES


@<TRIPOS>ATOM
      1 CA          0.1168  -14.0042  -50.9140 C.3       0 UNK        -0.1800 
      2 C           1.6042  -14.1975  -50.6692 C.2       0 UNK         0.5000 
      3 O           2.2903  -13.2418  -50.3100 O.2       0 UNK        -0.5000 
      4 N           2.1034  -15.4283  -50.8505 N.am      1 UNK        -0.5000 
      5 CA          3.5231  -15.8034  -50.7412 C.3       1 UNK         0.1400 
      6 C6          3.7904  -17.2820  -51.1281 C.3       23 UNK        -0.0398 
      7 S7          3.0832  -17.7719  -52.7403 S.3       23 UNK        -0.2404 
      8 C8          1.8174  -18.9877  -52.2436 C.3       23 UNK        -0.0205 
      9 C9          0.6346  -18.3196  -51.5609 C.ar      23 UNK        -0.0193 
     10 C10        -0.3744  -17.7334  -52.3279 C.ar      23 UNK        -0.1150 
     11 C11        -1.4513  -17.0784  -51.7240 C.ar      23 UNK        -0.0193 
     12 C12        -1.5081  -17.0286  -50.3241 C.ar      23 UNK        -0.1150 
     13 C13        -0.5028  -17.6039  -49.5410 C.ar      23 UNK        -0.0193 
     14 C14         0.5615  -18.2583  -50.1676 C.ar      23 UNK        -0.1150 
     15 C15        -0.5476  -17.4446  -48.0252 C.3       23 UNK        -0.0205 
     16 S16        -0.1182  -18.9552  -47.1007 S.3       23 UNK        -0.2404 
     17 C17        -1.5669  -19.9864  -47.4837 C.3       23 UNK        -0.0398 
     18 CA         -1.4548  -21.4030  -46.8788 C.3       11 UNK         0.1400 
     19 N          -1.3683  -21.3793  -45.4082 N.am      11 UNK        -0.5000 
     20 C          -1.2683  -22.4468  -44.6008 C.2       10 UNK         0.5000 
     21 O          -1.3040  -23.6127  -45.0010 O.2       10 UNK        -0.5000 
     22 CA         -1.1030  -22.1420  -43.1020 C.3       10 UNK         0.1400 
     23 CB         -1.0281  -23.4092  -42.2251 C.3       10 UNK        -0.1800 
     24 N           0.0380  -21.2590  -42.8593 N.am      10 UNK        -0.5000 
     25 C           1.3362  -21.5067  -43.0922 C.2       9 UNK         0.5000 
     26 O           1.7760  -22.5691  -43.5292 O.2       9 UNK        -0.5000 
     27 CA          2.3190  -20.3677  -42.7643 C.3       9 UNK         0.1400 
     28 CB          2.5575  -19.4947  -44.0055 C.3       9 UNK        -0.1800 
     29 N           1.8573  -19.5180  -41.6669 N.am      9 UNK        -0.5000 
     30 C           1.7400  -19.8999  -40.3875 C.2       8 UNK         0.5000 
     31 O           2.0838  -21.0038  -39.9637 O.2       8 UNK        -0.5000 
     32 CA          1.1013  -18.8811  -39.4290 C.3       8 UNK         0.1400 
     33 CB          2.1420  -17.8626  -38.9371 C.3       8 UNK        -0.1800 
     34 N          -0.0101  -18.1749  -40.0681 N.am      8 UNK        -0.5000 
     35 C          -1.2530  -18.6628  -40.1834 C.2       7 UNK         0.5000 
     36 O          -1.6075  -19.7464  -39.7191 O.2       7 UNK        -0.5000 
     37 CA         -2.2740  -17.8020  -40.9523 C.3       7 UNK         0.1400 
     38 CB         -3.0101  -16.8559  -39.9918 C.3       7 UNK        -0.1800 
     39 N          -1.6677  -17.0145  -42.0264 N.am      7 UNK        -0.5000 
     40 C          -1.2227  -17.5250  -43.1822 C.2       6 UNK         0.5000 
     41 O          -1.2998  -18.7181  -43.4808 O.2       6 UNK        -0.5000 
     42 CA         -0.5506  -16.5398  -44.1582 C.3       6 UNK         0.1400 
     43 CB         -1.6094  -15.8846  -45.0558 C.3       6 UNK        -0.1800 
     44 N           0.2539  -15.4856  -43.5292 N.am      6 UNK        -0.5000 
     45 C           1.2325  -15.6649  -42.6295 C.2       5 UNK         0.5000 
     46 O           1.5496  -16.7720  -42.1981 O.2       5 UNK        -0.5000 
     47 CA          1.9772  -14.4210  -42.1045 C.3       5 UNK         0.1400 
     48 CB          3.4967  -14.6563  -42.0556 C.3       5 UNK        -0.1800 
     49 N           1.6973  -13.2082  -42.8773 N.am      5 UNK        -0.5000 
     50 C           0.6653  -12.3815  -42.6523 C.2       4 UNK         0.5000 
     51 O          -0.1766  -12.5787  -41.7756 O.2       4 UNK        -0.5000 
     52 CA          0.5322  -11.1320  -43.5480 C.3       4 UNK         0.1400 
     53 CB          0.9633   -9.8736  -42.7787 C.3       4 UNK        -0.1800 
     54 N           1.2976  -11.2046  -44.7938 N.am      4 UNK        -0.5000 
     55 C           1.0141  -12.0082  -45.8265 C.2       3 UNK         0.5000 
     56 O           0.0545  -12.7811  -45.8401 O.2       3 UNK        -0.5000 
     57 CA          1.9733  -11.9735  -47.0373 C.3       3 UNK         0.1400 
     58 CB          3.0896  -10.9092  -46.9394 C.3       3 UNK        -0.1800 
     59 N           2.5539  -13.2927  -47.2985 N.am      3 UNK        -0.5000 
     60 C           3.2292  -14.0641  -46.4322 C.2       2 UNK         0.5000 
     61 O           3.5088  -13.7093  -45.2865 O.2       2 UNK        -0.5000 
     62 CA          3.6420  -15.4745  -46.9001 C.3       2 UNK         0.1400 
     63 CB          2.9608  -16.5455  -46.0345 C.3       2 UNK        -0.1800 
     64 N           3.2999  -15.7303  -48.3008 N.am      2 UNK        -0.5000 
     65 C           4.1160  -15.5226  -49.3427 C.2       1 UNK         0.5000 
     66 O           5.2753  -15.1201  -49.2390 O.2       1 UNK        -0.5000 
     67 C          -2.5831  -22.2998  -47.4313 C.2       11 UNK         0.5000 
     68 O          -2.4265  -22.8675  -48.5130 O.2       11 UNK        -0.5000 
     69 N          -3.6665  -22.4686  -46.6606 N.am      12 UNK        -0.5000 
     70 CA         -4.7721  -23.3909  -46.9334 C.3       12 UNK         0.1400 
     71 CB         -5.8241  -23.2403  -45.8247 C.3       12 UNK        -0.1800 
     72 C          -4.3514  -24.8705  -47.0815 C.2       12 UNK         0.5000 
     73 O          -5.0904  -25.6351  -47.6995 O.2       12 UNK        -0.5000 
     74 N          -3.1842  -25.2390  -46.5367 N.am      13 UNK        -0.5000 
     75 CA         -2.5360  -26.5327  -46.7350 C.3       13 UNK         0.1400 
     76 CB         -2.3704  -27.2286  -45.3749 C.3       13 UNK        -0.1800 
     77 C          -1.1714  -26.3623  -47.4248 C.2       13 UNK         0.5000 
     78 O          -0.8617  -27.1178  -48.3465 O.2       13 UNK        -0.5000 
     79 N          -0.3757  -25.3783  -46.9783 N.am      14 UNK        -0.5000 
     80 CA          1.0080  -25.1601  -47.4126 C.3       14 UNK         0.1400 
     81 CB          1.6935  -24.1786  -46.4522 C.3       14 UNK        -0.1800 
     82 C           1.1550  -24.6842  -48.8695 C.2       14 UNK         0.5000 
     83 O           2.1842  -24.9597  -49.4868 O.2       14 UNK        -0.5000 
     84 N           0.1268  -24.0126  -49.4017 N.am      15 UNK        -0.5000 
     85 CA          0.0176  -23.6127  -50.8044 C.3       15 UNK         0.1400 
     86 CB         -0.1225  -22.0813  -50.8963 C.3       15 UNK        -0.1800 
     87 C          -1.1508  -24.3707  -51.4622 C.2       15 UNK         0.5000 
     88 O          -1.8925  -23.7933  -52.2602 O.2       15 UNK        -0.5000 
     89 N          -1.3094  -25.6492  -51.0835 N.am      16 UNK        -0.5000 
     90 CA         -2.2893  -26.6518  -51.5231 C.3       16 UNK         0.1400 
     91 CB         -2.1692  -26.9248  -53.0347 C.3       16 UNK        -0.1800 
     92 C          -3.7457  -26.3439  -51.1283 C.2       16 UNK         0.5000 
     93 O          -4.4237  -27.2138  -50.5819 O.2       16 UNK        -0.5000 
     94 N          -4.1894  -25.1205  -51.4189 N.am      17 UNK        -0.5000 
     95 CA         -5.5152  -24.5739  -51.1569 C.3       17 UNK         0.1400 
     96 CB         -6.5585  -25.2068  -52.1021 C.3       17 UNK        -0.1800 
     97 C          -5.4381  -23.0444  -51.2895 C.2       17 UNK         0.5000 
     98 O          -6.2359  -22.4484  -52.0149 O.2       17 UNK        -0.5000 
     99 N          -4.4281  -22.4390  -50.6418 N.am      18 UNK        -0.5000 
    100 CA        -4.1001  -21.0068  -50.6725 C.3       18 UNK         0.1400 
    101 CB        -5.1639  -20.2043  -49.8989 C.3       18 UNK        -0.1800 
    102 C         -3.8445  -20.4822  -52.1019 C.2       18 UNK         0.5000 
    103 O         -4.2815  -19.3850  -52.4522 O.2       18 UNK        -0.5000 
    104 N         -3.1989  -21.3277  -52.9228 N.am      19 UNK        -0.5000 
    105 CA        -2.9267  -21.1673  -54.3558 C.3       19 UNK         0.1400 
    106 CB        -1.8482  -20.0876  -54.5695 C.3       19 UNK        -0.1800 
    107 C         -4.1865  -20.9113  -55.2154 C.2       19 UNK         0.5000 
    108 O         -4.0706  -20.3575  -56.3101 O.2       19 UNK        -0.5000 
    109 N         -5.3702  -21.2658  -54.6887 N.am      20 UNK        -0.5000 
    110 CA        -6.7275  -20.9437  -55.1454 C.3       20 UNK         0.1400 
    111 CB        -7.0121  -21.5139  -56.5475 C.3       20 UNK        -0.1800 
    112 C         -7.0682  -19.4402  -55.0645 C.2       20 UNK         0.5000 
    113 O         -8.1347  -19.0876  -54.5593 O.2       20 UNK        -0.5000 
    114 N         -6.1550  -18.5843  -55.5400 N.am      21 UNK        -0.5000 
    115 CA        -6.2669  -17.1280  -55.6260 C.3       21 UNK         0.1400 
    116 CB        -4.9918  -16.5750  -56.2813 C.3       21 UNK        -0.1800 
    117 C         -6.5253  -16.4183  -54.2840 C.2       21 UNK         0.5000 
    118 O         -7.2266  -15.4054  -54.2716 O.2       21 UNK        -0.5000 
    119 N         -5.9737  -16.9584  -53.1908 N.am      22 UNK        -0.5000 
    120 CA        -6.1705  -16.4551  -51.8218 C.3       22 UNK         0.1400 
    121 C         -7.2448  -17.2585  -51.0298 C.2       22 UNK         0.5000 
    122 N         -7.9921  -18.1705  -51.6426 N.am      22 UNK        -0.7600 
    123 O         -7.4248  -17.0368  -49.8355 O.2       22 UNK        -0.5000 
    124 C124       -4.8307  -16.3511  -51.0467 C.3       23 UNK        -0.0398 
    125 S125       -3.6288  -15.2273  -51.8394 S.3       23 UNK        -0.2404 
    126 C126       -2.4927  -16.4181  -52.6340 C.3       23 UNK        -0.0205 
    127 H127       -0.4569  -14.3299  -50.0466 H         1 UNK         0.0600 
    128 H128       -0.1088  -12.9534  -51.0961 H         1 UNK         0.0600 
    129 H129       -0.2097  -14.5694  -51.7859 H         1 UNK         0.0600 
    130 H130        1.4852  -16.1706  -51.1518 H         1 UNK         0.3000 
    131 H131        4.0648  -15.1728  -51.4493 H         1 UNK         0.0600 
    132 H132        4.8663  -17.4576  -51.1835 H         1 UNK         0.0800 
    133 H133        3.4266  -17.9581  -50.3538 H         1 UNK         0.0800 
    134 H134        2.2629  -19.7437  -51.5950 H         1 UNK         0.0800 
    135 H135        1.4711  -19.5185  -53.1316 H         1 UNK         0.0800 
    136 H136       -0.3070  -17.7688  -53.4063 H         1 UNK         0.1150 
    137 H137       -2.3158  -16.5121  -49.8290 H         1 UNK         0.1150 
    138 H138        1.3445  -18.7010  -49.5689 H         1 UNK         0.1150 
    139 H139        0.1415  -16.6493  -47.7430 H         1 UNK         0.0800 
    140 H140       -1.5390  -17.1169  -47.7117 H         1 UNK         0.0800 
    141 H141       -1.6477  -20.0387  -48.5703 H         1 UNK         0.0800 
    142 H142       -2.4662  -19.4816  -47.1260 H         1 UNK         0.0800 
    143 H143       -0.5217  -21.8398  -47.2377 H         1 UNK         0.0600 
    144 H144       -1.3074  -20.4602  -44.9852 H         1 UNK         0.3000 
    145 H145       -1.9909  -21.5856  -42.7984 H         1 UNK         0.0600 
    146 H146       -0.9238  -23.1515  -41.1711 H         1 UNK         0.0600 
    147 H147       -1.9357  -24.0053  -42.3267 H         1 UNK         0.0600 
    148 H148       -0.1884  -24.0484  -42.4990 H         1 UNK         0.0600 
    149 H149       -0.2069  -20.3181  -42.5764 H         1 UNK         0.3000 
    150 H150        3.2691  -20.8183  -42.4701 H         1 UNK         0.0600 
    151 H151        2.9274  -20.0911  -44.8404 H         1 UNK         0.0600 
    152 H152        3.2970  -18.7196  -43.8044 H         1 UNK         0.0600 
    153 H153        1.6402  -19.0053  -44.3340 H         1 UNK         0.0600 
    154 H154        1.6176  -18.5582  -41.9071 H         1 UNK         0.3000 
    155 H155        0.7257  -19.4247  -38.5594 H         1 UNK         0.0600 
    156 H156        2.5706  -17.2880  -39.7586 H         1 UNK         0.0600 
    157 H157        2.9644  -18.3644  -38.4257 H         1 UNK         0.0600 
    158 H158        1.7010  -17.1592  -38.2307 H         1 UNK         0.0600 
    159 H159        0.2212  -17.3149  -40.5464 H         1 UNK         0.3000 
    160 H160       -3.0097  -18.4774  -41.3947 H         1 UNK         0.0600 
    161 H161       -3.7871  -16.2938  -40.5102 H         1 UNK         0.0600 
    162 H162       -2.3289  -16.1402  -39.5296 H         1 UNK         0.0600 
    163 H163       -3.4947  -17.4136  -39.1892 H         1 UNK         0.0600 
    164 H164       -1.5648  -16.0230  -41.8665 H         1 UNK         0.3000 
    165 H165        0.1184  -17.1279  -44.7849 H         1 UNK         0.0600 
    166 H166       -1.1457  -15.3190  -45.8641 H         1 UNK         0.0600 
    167 H167       -2.2591  -16.6340  -45.5094 H         1 UNK         0.0600 
    168 H168       -2.2453  -15.2007  -44.4925 H         1 UNK         0.0600 
    169 H169        0.0727  -14.5419  -43.8413 H         1 UNK         0.3000 
    170 H170        1.6424  -14.2697  -41.0763 H         1 UNK         0.0600 
    171 H171        3.7450  -15.4644  -41.3664 H         1 UNK         0.0600 
    172 H172        3.8975  -14.9300  -43.0309 H         1 UNK         0.0600 
    173 H173        4.0246  -13.7667  -41.7121 H         1 UNK         0.0600 
    174 H174        2.3219  -13.0238  -43.6553 H         1 UNK         0.3000 
    175 H175       -0.5241  -11.0289  -43.8050 H         1 UNK         0.0600 
    176 H176        0.8004   -8.9730  -43.3711 H         1 UNK         0.0600 
    177 H177        0.3898   -9.7618  -41.8574 H         1 UNK         0.0600 
    178 H178        2.0187   -9.9111  -42.5057 H         1 UNK         0.0600 
    179 H179        2.1192  -10.6206  -44.8523 H         1 UNK         0.3000 
    180 H180        1.3586  -11.7294  -47.9049 H         1 UNK         0.0600 
    181 H181        3.7614  -11.0891  -46.0994 H         1 UNK         0.0600 
    182 H182        2.6729   -9.9072  -46.8296 H         1 UNK         0.0600 
    183 H183        3.6951  -10.9027  -47.8460 H         1 UNK         0.0600 
    184 H184        2.4116  -13.6410  -48.2383 H         1 UNK         0.3000 
    185 H185        4.7212  -15.5621  -46.7599 H         1 UNK         0.0600 
    186 H186        1.8764  -16.4743  -46.0974 H         1 UNK         0.0600 
    187 H187        3.2497  -17.5499  -46.3445 H         1 UNK         0.0600 
    188 H188        3.2359  -16.4384  -44.9848 H         1 UNK         0.0600 
    189 H189        2.3620  -16.0530  -48.4862 H         1 UNK         0.3000 
    190 H190       -3.7047  -21.9739  -45.7818 H         1 UNK         0.3000 
    191 H191       -5.2266  -23.0887  -47.8786 H         1 UNK         0.0600 
    192 H192       -5.4168  -23.5015  -44.8471 H         1 UNK         0.0600 
    193 H193       -6.6814  -23.8896  -46.0074 H         1 UNK         0.0600 
    194 H194       -6.1992  -22.2180  -45.7719 H         1 UNK         0.0600 
    195 H195       -2.6472  -24.5453  -46.0258 H         1 UNK         0.3000 
    196 H196       -3.1441  -27.1755  -47.3752 H         1 UNK         0.0600 
    197 H197       -1.8713  -28.1921  -45.4862 H         1 UNK         0.0600 
    198 H198       -3.3388  -27.4152  -44.9106 H         1 UNK         0.0600 
    199 H199       -1.7788  -26.6277  -44.6826 H         1 UNK         0.0600 
    200 H200       -0.6952  -24.7945  -46.2083 H         1 UNK         0.3000 
    201 H201        1.5288  -26.1169  -47.3356 H         1 UNK         0.0600 
    202 H202        1.6686  -24.5519  -45.4284 H         1 UNK         0.0600 
    203 H203        1.2166  -23.1991  -46.4607 H         1 UNK         0.0600 
    204 H204        2.7412  -24.0346  -46.7187 H         1 UNK         0.0600 
    205 H205       -0.7030  -23.8493  -48.8412 H         1 UNK         0.3000 
    206 H206        0.9143  -23.8950  -51.3590 H         1 UNK         0.0600 
    207 H207        0.7205  -21.5809  -50.4200 H         1 UNK         0.0600 
    208 H208       -0.1510  -21.7494  -51.9347 H         1 UNK         0.0600 
    209 H209       -1.0307  -21.7267  -50.4149 H         1 UNK         0.0600 
    210 H210       -0.6854  -25.9854  -50.3607 H         1 UNK         0.3000 
    211 H211       -2.0155  -27.5720  -51.0043 H         1 UNK         0.0600 
    212 H212       -2.4284  -26.0501  -53.6318 H         1 UNK         0.0600 
    213 H213       -2.8362  -27.7331  -53.3369 H         1 UNK         0.0600 
    214 H214       -1.1554  -27.2236  -53.3010 H         1 UNK         0.0600 
    215 H215       -3.5234  -24.4885  -51.8583 H         1 UNK         0.3000 
    216 H216       -5.7953  -24.7962  -50.1266 H         1 UNK         0.0600 
    217 H217       -7.5517  -24.7941  -51.9214 H         1 UNK         0.0600 
    218 H218       -6.6298  -26.2844  -51.9563 H         1 UNK         0.0600 
    219 H219       -6.3108  -25.0263  -53.1488 H         1 UNK         0.0600 
    220 H220       -3.8019  -23.0010  -50.0754 H         1 UNK         0.3000 
    221 H221       -3.1577  -20.8884  -50.1430 H         1 UNK         0.0600 
    222 H222       -6.1131  -20.1709  -50.4344 H         1 UNK         0.0600 
    223 H223       -5.3486  -20.6393  -48.9168 H         1 UNK         0.0600 
    224 H224       -4.8389  -19.1786  -49.7345 H         1 UNK         0.0600 
    225 H225       -2.8681  -22.2079  -52.5365 H         1 UNK         0.3000 
    226 H226       -2.5165  -22.1198  -54.6938 H         1 UNK         0.0600 
    227 H227       -2.2262  -19.0941  -54.3308 H         1 UNK         0.0600 
    228 H228       -1.5090  -20.0684  -55.6056 H         1 UNK         0.0600 
    229 H229       -0.9739  -20.2753  -53.9466 H         1 UNK         0.0600 
    230 H230       -5.3501  -21.6768  -53.7617 H         1 UNK         0.3000 
    231 H231       -7.3947  -21.4512  -54.4468 H         1 UNK         0.0600 
    232 H232       -6.8118  -22.5846  -56.5848 H         1 UNK         0.0600 
    233 H233       -6.4101  -21.0323  -57.3182 H         1 UNK         0.0600 
    234 H234       -8.0587  -21.3689  -56.8177 H         1 UNK         0.0600 
    235 H235       -5.3090  -18.9959  -55.9245 H         1 UNK         0.3000 
    236 H236       -7.1126  -16.9070  -56.2800 H         1 UNK         0.0600 
    237 H237       -4.8472  -16.9917  -57.2782 H         1 UNK         0.0600 
    238 H238       -5.0434  -15.4905  -56.3868 H         1 UNK         0.0600 
    239 H239       -4.1052  -16.8062  -55.6892 H         1 UNK         0.0600 
    240 H240       -5.4288  -17.8107  -53.2670 H         1 UNK         0.3000 
    241 H241       -6.5727  -15.4419  -51.8697 H         1 UNK         0.0600 
    242 H242       -8.6878  -18.6713  -51.1138 H         1 UNK         0.3800 
    243 H243       -7.8945  -18.3508  -52.6346 H         1 UNK         0.3800 
    244 H244       -5.0022  -15.9733  -50.0376 H         1 UNK         0.0800 
    245 H245       -4.3791  -17.3332  -50.9262 H         1 UNK         0.0800 
    246 H246       -1.9671  -15.8796  -53.4239 H         1 UNK         0.0800 
    247 H247       -3.0754  -17.1897  -53.1349 H         1 UNK         0.0800 
@<TRIPOS>BOND
     1    1    2 1    
     2    1  127 1    
     3    1  128 1    
     4    1  129 1    
     5    2    3 2    
     6    2    4 am   BACKBONE|DICT|INTERRES
     7    4    5 1    
     8    4  130 1    
     9    5    6 1    
    10    5   65 1    
    11    5  131 1    
    12    6    7 1    
    13    6  132 1    
    14    6  133 1    
    15    7    8 1    
    16    8    9 1    
    17    8  134 1    
    18    8  135 1    
    19    9   10 ar   
    20    9   14 ar   
    21   10   11 ar   
    22   10  136 1    
    23   11   12 ar   
    24   11  126 1    
    25   12   13 ar   
    26   12  137 1    
    27   13   14 ar   
    28   13   15 1    
    29   14  138 1    
    30   15   16 1    
    31   15  139 1    
    32   15  140 1    
    33   16   17 1    
    34   17   18 1    
    35   17  141 1    
    36   17  142 1    
    37   18   19 1    
    38   18   67 1    
    39   18  143 1    
    40   19   20 am   BACKBONE|DICT|INTERRES
    41   19  144 1    
    42   20   21 2    
    43   20   22 1    
    44   22   23 1    
    45   22   24 1    
    46   22  145 1    
    47   23  146 1    
    48   23  147 1    
    49   23  148 1    
    50   24   25 am   BACKBONE|DICT|INTERRES
    51   24  149 1    
    52   25   26 2    
    53   25   27 1    
    54   27   28 1    
    55   27   29 1    
    56   27  150 1    
    57   28  151 1    
    58   28  152 1    
    59   28  153 1    
    60   29   30 am   BACKBONE|DICT|INTERRES
    61   29  154 1    
    62   30   31 2    
    63   30   32 1    
    64   32   33 1    
    65   32   34 1    
    66   32  155 1    
    67   33  156 1    
    68   33  157 1    
    69   33  158 1    
    70   34   35 am   BACKBONE|DICT|INTERRES
    71   34  159 1    
    72   35   36 2    
    73   35   37 1    
    74   37   38 1    
    75   37   39 1    
    76   37  160 1    
    77   38  161 1    
    78   38  162 1    
    79   38  163 1    
    80   39   40 am   BACKBONE|DICT|INTERRES
    81   39  164 1    
    82   40   41 2    
    83   40   42 1    
    84   42   43 1    
    85   42   44 1    
    86   42  165 1    
    87   43  166 1    
    88   43  167 1    
    89   43  168 1    
    90   44   45 am   BACKBONE|DICT|INTERRES
    91   44  169 1    
    92   45   46 2    
    93   45   47 1    
    94   47   48 1    
    95   47   49 1    
    96   47  170 1    
    97   48  171 1    
    98   48  172 1    
    99   48  173 1    
   100   49   50 am   BACKBONE|DICT|INTERRES
   101   49  174 1    
   102   50   51 2    
   103   50   52 1    
   104   52   53 1    
   105   52   54 1    
   106   52  175 1    
   107   53  176 1    
   108   53  177 1    
   109   53  178 1    
   110   54   55 am   BACKBONE|DICT|INTERRES
   111   54  179 1    
   112   55   56 2    
   113   55   57 1    
   114   57   58 1    
   115   57   59 1    
   116   57  180 1    
   117   58  181 1    
   118   58  182 1    
   119   58  183 1    
   120   59   60 am   BACKBONE|DICT|INTERRES
   121   59  184 1    
   122   60   61 2    
   123   60   62 1    
   124   62   63 1    
   125   62   64 1    
   126   62  185 1    
   127   63  186 1    
   128   63  187 1    
   129   63  188 1    
   130   64   65 am   BACKBONE|DICT|INTERRES
   131   64  189 1    
   132   65   66 2    
   133   67   68 2    
   134   67   69 am   BACKBONE|DICT|INTERRES
   135   69   70 1    
   136   69  190 1    
   137   70   71 1    
   138   70   72 1    
   139   70  191 1    
   140   71  192 1    
   141   71  193 1    
   142   71  194 1    
   143   72   73 2    
   144   72   74 am   BACKBONE|DICT|INTERRES
   145   74   75 1    
   146   74  195 1    
   147   75   76 1    
   148   75   77 1    
   149   75  196 1    
   150   76  197 1    
   151   76  198 1    
   152   76  199 1    
   153   77   78 2    
   154   77   79 am   BACKBONE|DICT|INTERRES
   155   79   80 1    
   156   79  200 1    
   157   80   81 1    
   158   80   82 1    
   159   80  201 1    
   160   81  202 1    
   161   81  203 1    
   162   81  204 1    
   163   82   83 2    
   164   82   84 am   BACKBONE|DICT|INTERRES
   165   84   85 1    
   166   84  205 1    
   167   85   86 1    
   168   85   87 1    
   169   85  206 1    
   170   86  207 1    
   171   86  208 1    
   172   86  209 1    
   173   87   88 2    
   174   87   89 am   BACKBONE|DICT|INTERRES
   175   89   90 1    
   176   89  210 1    
   177   90   91 1    
   178   90   92 1    
   179   90  211 1    
   180   91  212 1    
   181   91  213 1    
   182   91  214 1    
   183   92   93 2    
   184   92   94 am   BACKBONE|DICT|INTERRES
   185   94   95 1    
   186   94  215 1    
   187   95   96 1    
   188   95   97 1    
   189   95  216 1    
   190   96  217 1    
   191   96  218 1    
   192   96  219 1    
   193   97   98 2    
   194   97   99 am   BACKBONE|DICT|INTERRES
   195   99  100 1    
   196   99  220 1    
   197  100  101 1    
   198  100  102 1    
   199  100  221 1    
   200  101  222 1    
   201  101  223 1    
   202  101  224 1    
   203  102  103 2    
   204  102  104 am   BACKBONE|DICT|INTERRES
   205  104  105 1    
   206  104  225 1    
   207  105  106 1    
   208  105  107 1    
   209  105  226 1    
   210  106  227 1    
   211  106  228 1    
   212  106  229 1    
   213  107  108 2    
   214  107  109 am   BACKBONE|DICT|INTERRES
   215  109  110 1    
   216  109  230 1    
   217  110  111 1    
   218  110  112 1    
   219  110  231 1    
   220  111  232 1    
   221  111  233 1    
   222  111  234 1    
   223  112  113 2    
   224  112  114 am   BACKBONE|DICT|INTERRES
   225  114  115 1    
   226  114  235 1    
   227  115  116 1    
   228  115  117 1    
   229  115  236 1    
   230  116  237 1    
   231  116  238 1    
   232  116  239 1    
   233  117  118 2    
   234  117  119 am   BACKBONE|DICT|INTERRES
   235  119  120 1    
   236  119  240 1    
   237  120  121 1    
   238  120  124 1    
   239  120  241 1    
   240  121  122 am   BACKBONE|DICT|INTERRES
   241  121  123 2    
   242  122  242 1    
   243  122  243 1    
   244  124  125 1    
   245  124  244 1    
   246  124  245 1    
   247  125  126 1    
   248  126  246 1    
   249  126  247 1    
@<TRIPOS>SUBSTRUCTURE
     1 UNK         1 GROUP             0       ****    0 ROOT    
