@<TRIPOS>MOLECULE
3R540
247   249    1
SMALL
USER_CHARGES


@<TRIPOS>ATOM
      1 CA          2.1481  -16.7292  -47.2992 C.3       0 UNK        -0.1800 
      2 C           1.0672  -15.9664  -48.0445 C.2       0 UNK         0.5000 
      3 O           1.1686  -14.7453  -48.1647 O.2       0 UNK        -0.5000 
      4 N           0.0392  -16.6722  -48.5389 N.am      1 UNK        -0.5000 
      5 CA         -1.1289  -16.1501  -49.2623 C.3       1 UNK         0.1400 
      6 C6         -0.7762  -15.4552  -50.6105 C.3       23 UNK        -0.0398 
      7 S7         -0.4425  -16.6337  -51.9588 S.3       23 UNK        -0.2404 
      8 C8          1.3298  -17.0144  -51.7756 C.3       23 UNK        -0.0205 
      9 C9          1.5655  -18.5123  -51.6209 C.ar      23 UNK        -0.0193 
     10 C10         1.1503  -19.3960  -52.6217 C.ar      23 UNK        -0.1150 
     11 C11         1.3565  -20.7728  -52.4929 C.ar      23 UNK        -0.0193 
     12 C12         1.9922  -21.2670  -51.3510 C.ar      23 UNK        -0.1150 
     13 C13         2.4263  -20.3951  -50.3479 C.ar      23 UNK        -0.0193 
     14 C14         2.2115  -19.0196  -50.4901 C.ar      23 UNK        -0.1150 
     15 C15         3.1569  -20.9376  -49.1271 C.3       23 UNK        -0.0205 
     16 S16         2.2925  -20.5657  -47.5703 S.3       23 UNK        -0.2404 
     17 C17         0.8307  -21.6537  -47.6598 C.3       23 UNK        -0.0398 
     18 CA          0.9343  -22.8749  -46.7071 C.3       11 UNK         0.1400 
     19 N           1.2015  -22.4757  -45.3208 N.am      11 UNK        -0.5000 
     20 C           2.0273  -23.0966  -44.4678 C.2       10 UNK         0.5000 
     21 O           2.6394  -24.1263  -44.7516 O.2       10 UNK        -0.5000 
     22 CA          2.1803  -22.4981  -43.0532 C.3       10 UNK         0.1400 
     23 CB          3.5244  -21.7675  -42.9146 C.3       10 UNK        -0.1800 
     24 N           1.0948  -21.5840  -42.6939 N.am      10 UNK        -0.5000 
     25 C          -0.1492  -21.9744  -42.3825 C.2       9 UNK         0.5000 
     26 O          -0.4858  -23.1555  -42.2937 O.2       9 UNK        -0.5000 
     27 CA         -1.2064  -20.8724  -42.1626 C.3       9 UNK         0.1400 
     28 CB         -1.3748  -20.5881  -40.6627 C.3       9 UNK        -0.1800 
     29 N          -0.9342  -19.6158  -42.8697 N.am      9 UNK        -0.5000 
     30 C          -0.8158  -19.4965  -44.2004 C.2       8 UNK         0.5000 
     31 O          -0.9010  -20.4484  -44.9720 O.2       8 UNK        -0.5000 
     32 CA         -0.4730  -18.1043  -44.7584 C.3       8 UNK         0.1400 
     33 CB         -1.7181  -17.2098  -44.8382 C.3       8 UNK        -0.1800 
     34 N           0.5644  -17.4326  -43.9773 N.am      8 UNK        -0.5000 
     35 C           1.8208  -17.8797  -43.8373 C.2       7 UNK         0.5000 
     36 O           2.2541  -18.8882  -44.3899 O.2       7 UNK        -0.5000 
     37 CA          2.7322  -17.0928  -42.8828 C.3       7 UNK         0.1400 
     38 CB          3.2618  -15.8116  -43.5458 C.3       7 UNK        -0.1800 
     39 N           2.0413  -16.7628  -41.6375 N.am      7 UNK        -0.5000 
     40 C           1.7279  -17.6593  -40.6907 C.2       6 UNK         0.5000 
     41 O           2.0373  -18.8498  -40.7444 O.2       6 UNK        -0.5000 
     42 CA          0.9123  -17.1410  -39.4916 C.3       6 UNK         0.1400 
     43 CB          1.8461  -16.6182  -38.3899 C.3       6 UNK        -0.1800 
     44 N          -0.0353  -16.0874  -39.8602 N.am      6 UNK        -0.5000 
     45 C          -1.1200  -16.2782  -40.6240 C.2       5 UNK         0.5000 
     46 O          -1.4423  -17.3664  -41.0980 O.2       5 UNK        -0.5000 
     47 CA         -1.9490  -15.0260  -40.9607 C.3       5 UNK         0.1400 
     48 CB         -2.8803  -14.6582  -39.7959 C.3       5 UNK        -0.1800 
     49 N          -1.1178  -13.8700  -41.3106 N.am      5 UNK        -0.5000 
     50 C          -0.2971  -13.8324  -42.3669 C.2       4 UNK         0.5000 
     51 O          -0.1320  -14.7813  -43.1392 O.2       4 UNK        -0.5000 
     52 CA          0.4942  -12.5397  -42.5905 C.3       4 UNK         0.1400 
     53 CB          1.8006  -12.5478  -41.7756 C.3       4 UNK        -0.1800 
     54 N           0.7718  -12.4592  -44.0174 N.am      4 UNK        -0.5000 
     55 C           1.1813  -11.3876  -44.7010 C.2       3 UNK         0.5000 
     56 O           1.4756  -10.3086  -44.1851 O.2       3 UNK        -0.5000 
     57 CA          1.2347  -11.5475  -46.2329 C.3       3 UNK         0.1400 
     58 CB          2.5786  -12.1570  -46.6613 C.3       3 UNK        -0.1800 
     59 N           0.1384  -12.3671  -46.7651 N.am      3 UNK        -0.5000 
     60 C          -1.1610  -12.0231  -46.7147 C.2       2 UNK         0.5000 
     61 O          -1.5558  -10.9663  -46.2201 O.2       2 UNK        -0.5000 
     62 CA         -2.1947  -12.9992  -47.3126 C.3       2 UNK         0.1400 
     63 CB         -3.3009  -12.2737  -48.1025 C.3       2 UNK        -0.1800 
     64 N          -1.5628  -13.9995  -48.1673 N.am      2 UNK        -0.5000 
     65 C          -1.9906  -15.2532  -48.3476 C.2       1 UNK         0.5000 
     66 O          -3.0058  -15.7092  -47.8221 O.2       1 UNK        -0.5000 
     67 C          -0.3226  -23.7713  -46.7819 C.2       11 UNK         0.5000 
     68 O          -1.0665  -23.7108  -47.7630 O.2       11 UNK        -0.5000 
     69 N          -0.5583  -24.5911  -45.7461 N.am      12 UNK        -0.5000 
     70 CA         -1.7279  -25.4620  -45.5816 C.3       12 UNK         0.1400 
     71 CB         -1.6178  -26.2023  -44.2412 C.3       12 UNK        -0.1800 
     72 C          -1.9453  -26.4628  -46.7336 C.2       12 UNK         0.5000 
     73 O          -3.0919  -26.7744  -47.0556 O.2       12 UNK        -0.5000 
     74 N          -0.8512  -26.8950  -47.3767 N.am      13 UNK        -0.5000 
     75 CA         -0.8525  -27.7436  -48.5726 C.3       13 UNK         0.1400 
     76 CB          0.5910  -28.1721  -48.8769 C.3       13 UNK        -0.1800 
     77 C          -1.4875  -27.0754  -49.8117 C.2       13 UNK         0.5000 
     78 O          -1.9583  -27.7828  -50.7027 O.2       13 UNK        -0.5000 
     79 N          -1.5093  -25.7362  -49.8351 N.am      14 UNK        -0.5000 
     80 CA         -2.1507  -24.9067  -50.8550 C.3       14 UNK         0.1400 
     81 CB         -1.1570  -23.8120  -51.2846 C.3       14 UNK        -0.1800 
     82 C          -3.4693  -24.2962  -50.3343 C.2       14 UNK         0.5000 
     83 O          -3.9509  -23.3202  -50.9102 O.2       14 UNK        -0.5000 
     84 N          -4.0148  -24.8458  -49.2350 N.am      15 UNK        -0.5000 
     85 CA         -5.2022  -24.3803  -48.5054 C.3       15 UNK         0.1400 
     86 CB         -6.4770  -24.5709  -49.3532 C.3       15 UNK        -0.1800 
     87 C          -5.0380  -22.9405  -47.9723 C.2       15 UNK         0.5000 
     88 O          -5.9819  -22.1508  -48.0081 O.2       15 UNK        -0.5000 
     89 N          -3.8093  -22.6220  -47.5390 N.am      16 UNK        -0.5000 
     90 CA         -3.2915  -21.3220  -47.0971 C.3       16 UNK         0.1400 
     91 CB         -4.1460  -20.7080  -45.9695 C.3       16 UNK        -0.1800 
     92 C          -3.0314  -20.3193  -48.2397 C.2       16 UNK         0.5000 
     93 O          -2.4062  -19.2873  -47.9967 O.2       16 UNK        -0.5000 
     94 N          -3.4944  -20.6397  -49.4581 N.am      17 UNK        -0.5000 
     95 CA         -3.3898  -19.8646  -50.6973 C.3       17 UNK         0.1400 
     96 CB         -1.9252  -19.8021  -51.1684 C.3       17 UNK        -0.1800 
     97 C          -4.0712  -18.4787  -50.6386 C.2       17 UNK         0.5000 
     98 O          -3.7511  -17.6034  -51.4419 O.2       17 UNK        -0.5000 
     99 N          -5.0249  -18.3044  -49.7112 N.am      18 UNK        -0.5000 
    100 CA        -5.8075  -17.0765  -49.5341 C.3       18 UNK         0.1400 
    101 CB        -6.5650  -17.1559  -48.2004 C.3       18 UNK        -0.1800 
    102 C         -6.7770  -16.8098  -50.7034 C.2       18 UNK         0.5000 
    103 O         -7.1115  -15.6562  -50.9751 O.2       18 UNK        -0.5000 
    104 N         -7.1779  -17.8842  -51.3873 N.am      19 UNK        -0.5000 
    105 CA        -7.8726  -17.8987  -52.6644 C.3       19 UNK         0.1400 
    106 CB        -9.3893  -17.9913  -52.4326 C.3       19 UNK        -0.1800 
    107 C         -7.3447  -19.1162  -53.4366 C.2       19 UNK         0.5000 
    108 O         -6.9137  -20.0871  -52.8065 O.2       19 UNK        -0.5000 
    109 N         -7.3843  -19.0413  -54.7747 N.am      20 UNK        -0.5000 
    110 CA        -6.9074  -20.0608  -55.7209 C.3       20 UNK         0.1400 
    111 CB        -7.8220  -21.3038  -55.6852 C.3       20 UNK        -0.1800 
    112 C         -5.4119  -20.4016  -55.5278 C.2       20 UNK         0.5000 
    113 O         -5.0403  -21.5754  -55.4626 O.2       20 UNK        -0.5000 
    114 N         -4.5873  -19.3512  -55.4096 N.am      21 UNK        -0.5000 
    115 CA        -3.1392  -19.4301  -55.2133 C.3       21 UNK         0.1400 
    116 CB        -2.5982  -18.0178  -54.9403 C.3       21 UNK        -0.1800 
    117 C         -2.3998  -20.0695  -56.4061 C.2       21 UNK         0.5000 
    118 O         -2.8931  -20.0437  -57.5366 O.2       21 UNK        -0.5000 
    119 N         -1.2118  -20.6113  -56.1216 N.am      22 UNK        -0.5000 
    120 CA        -0.3339  -21.3073  -57.0767 C.3       22 UNK         0.1400 
    121 C          0.4044  -20.3947  -58.1034 C.2       22 UNK         0.5000 
    122 N          0.3545  -19.0736  -57.9825 N.am      22 UNK        -0.7600 
    123 O          1.0229  -20.8974  -59.0378 O.2       22 UNK        -0.5000 
    124 C124        0.6371  -22.2706  -56.3409 C.3       23 UNK        -0.0398 
    125 S125        1.7460  -21.4326  -55.1523 S.3       23 UNK        -0.2404 
    126 C126        0.8728  -21.7198  -53.5801 C.3       23 UNK        -0.0205 
    127 H127        3.0699  -16.7437  -47.8801 H         1 UNK         0.0600 
    128 H128        2.3525  -16.2413  -46.3478 H         1 UNK         0.0600 
    129 H129        1.8511  -17.7562  -47.0962 H         1 UNK         0.0600 
    130 H130        0.0113  -17.6701  -48.3822 H         1 UNK         0.3000 
    131 H131       -1.7493  -17.0175  -49.4881 H         1 UNK         0.0600 
    132 H132       -1.6200  -14.8542  -50.9551 H         1 UNK         0.0800 
    133 H133        0.0586  -14.7607  -50.5154 H         1 UNK         0.0800 
    134 H134        1.8586  -16.6628  -52.6622 H         1 UNK         0.0800 
    135 H135        1.7499  -16.4662  -50.9320 H         1 UNK         0.0800 
    136 H136        0.6571  -19.0090  -53.5019 H         1 UNK         0.1150 
    137 H137        2.1554  -22.3304  -51.2466 H         1 UNK         0.1150 
    138 H138        2.5518  -18.3468  -49.7169 H         1 UNK         0.1150 
    139 H139        3.3087  -22.0154  -49.2034 H         1 UNK         0.0800 
    140 H140        4.1510  -20.4905  -49.0890 H         1 UNK         0.0800 
    141 H141        0.6894  -21.9799  -48.6914 H         1 UNK         0.0800 
    142 H142       -0.0422  -21.0476  -47.4164 H         1 UNK         0.0800 
    143 H143        1.7625  -23.4882  -47.0672 H         1 UNK         0.0600 
    144 H144        0.6892  -21.6586  -45.0036 H         1 UNK         0.3000 
    145 H145        2.1758  -23.3283  -42.3438 H         1 UNK         0.0600 
    146 H146        3.6361  -21.3258  -41.9240 H         1 UNK         0.0600 
    147 H147        4.3572  -22.4564  -43.0606 H         1 UNK         0.0600 
    148 H148        3.6293  -20.9717  -43.6516 H         1 UNK         0.0600 
    149 H149        1.2944  -20.5943  -42.7550 H         1 UNK         0.3000 
    150 H150       -2.1540  -21.2589  -42.5431 H         1 UNK         0.0600 
    151 H151       -1.5796  -21.5054  -40.1091 H         1 UNK         0.0600 
    152 H152       -2.2081  -19.9094  -40.4809 H         1 UNK         0.0600 
    153 H153       -0.4764  -20.1404  -40.2372 H         1 UNK         0.0600 
    154 H154       -0.8926  -18.7772  -42.2968 H         1 UNK         0.3000 
    155 H155       -0.0943  -18.2429  -45.7725 H         1 UNK         0.0600 
    156 H156       -1.4774  -16.2401  -45.2747 H         1 UNK         0.0600 
    157 H157       -2.1544  -17.0345  -43.8544 H         1 UNK         0.0600 
    158 H158       -2.4846  -17.6636  -45.4675 H         1 UNK         0.0600 
    159 H159        0.2948  -16.5672  -43.5163 H         1 UNK         0.3000 
    160 H160        3.5899  -17.7244  -42.6406 H         1 UNK         0.0600 
    161 H161        3.8491  -16.0508  -44.4329 H         1 UNK         0.0600 
    162 H162        3.9134  -15.2581  -42.8697 H         1 UNK         0.0600 
    163 H163        2.4554  -15.1474  -43.8569 H         1 UNK         0.0600 
    164 H164        1.7129  -15.8152  -41.5332 H         1 UNK         0.3000 
    165 H165        0.3451  -17.9823  -39.0876 H         1 UNK         0.0600 
    166 H166        2.4262  -15.7581  -38.7267 H         1 UNK         0.0600 
    167 H167        1.2836  -16.3190  -37.5053 H         1 UNK         0.0600 
    168 H168        2.5523  -17.3893  -38.0789 H         1 UNK         0.0600 
    169 H169        0.1577  -15.1576  -39.5182 H         1 UNK         0.3000 
    170 H170       -2.5686  -15.2662  -41.8276 H         1 UNK         0.0600 
    171 H171       -3.5182  -15.5009  -39.5258 H         1 UNK         0.0600 
    172 H172       -2.3207  -14.3711  -38.9049 H         1 UNK         0.0600 
    173 H173       -3.5359  -13.8290  -40.0625 H         1 UNK         0.0600 
    174 H174       -1.1986  -13.0570  -40.7169 H         1 UNK         0.3000 
    175 H175       -0.1240  -11.6885  -42.2985 H         1 UNK         0.0600 
    176 H176        2.3570  -11.6199  -41.9064 H         1 UNK         0.0600 
    177 H177        1.5971  -12.6518  -40.7092 H         1 UNK         0.0600 
    178 H178        2.4535  -13.3698  -42.0676 H         1 UNK         0.0600 
    179 H179        0.5334  -13.3050  -44.5206 H         1 UNK         0.3000 
    180 H180        1.1553  -10.5519  -46.6740 H         1 UNK         0.0600 
    181 H181        2.7071  -13.1662  -46.2674 H         1 UNK         0.0600 
    182 H182        3.4138  -11.5546  -46.3021 H         1 UNK         0.0600 
    183 H183        2.6589  -12.2101  -47.7472 H         1 UNK         0.0600 
    184 H184        0.4109  -13.2542  -47.1776 H         1 UNK         0.3000 
    185 H185       -2.6541  -13.5027  -46.4594 H         1 UNK         0.0600 
    186 H186       -4.0472  -12.9761  -48.4743 H         1 UNK         0.0600 
    187 H187       -3.8259  -11.5510  -47.4769 H         1 UNK         0.0600 
    188 H188       -2.8920  -11.7354  -48.9581 H         1 UNK         0.0600 
    189 H189       -0.6777  -13.7372  -48.5833 H         1 UNK         0.3000 
    190 H190        0.0979  -24.5762  -44.9784 H         1 UNK         0.3000 
    191 H191       -2.6083  -24.8173  -45.5429 H         1 UNK         0.0600 
    192 H192       -1.5736  -25.5023  -43.4067 H         1 UNK         0.0600 
    193 H193       -2.4827  -26.8465  -44.0768 H         1 UNK         0.0600 
    194 H194       -0.7269  -26.8303  -44.2004 H         1 UNK         0.0600 
    195 H195        0.0496  -26.5834  -47.0445 H         1 UNK         0.3000 
    196 H196       -1.4368  -28.6383  -48.3482 H         1 UNK         0.0600 
    197 H197        0.6286  -28.8312  -49.7453 H         1 UNK         0.0600 
    198 H198        1.0265  -28.7168  -48.0390 H         1 UNK         0.0600 
    199 H199        1.2292  -27.3133  -49.0889 H         1 UNK         0.0600 
    200 H200       -1.1363  -25.2255  -49.0414 H         1 UNK         0.3000 
    201 H201       -2.3986  -25.5048  -51.7338 H         1 UNK         0.0600 
    202 H202       -0.2186  -24.2463  -51.6291 H         1 UNK         0.0600 
    203 H203       -0.9288  -23.1304  -50.4644 H         1 UNK         0.0600 
    204 H204       -1.5587  -23.2168  -52.1053 H         1 UNK         0.0600 
    205 H205       -3.5436  -25.6397  -48.8176 H         1 UNK         0.3000 
    206 H206       -5.2928  -25.0202  -47.6266 H         1 UNK         0.0600 
    207 H207       -6.5648  -25.5982  -49.7066 H         1 UNK         0.0600 
    208 H208       -7.3711  -24.3525  -48.7683 H         1 UNK         0.0600 
    209 H209       -6.4888  -23.9144  -50.2238 H         1 UNK         0.0600 
    210 H210       -3.0872  -23.3277  -47.6358 H         1 UNK         0.3000 
    211 H211       -2.3151  -21.5484  -46.6777 H         1 UNK         0.0600 
    212 H212       -5.1224  -20.3791  -46.3248 H         1 UNK         0.0600 
    213 H213       -3.6519  -19.8354  -45.5425 H         1 UNK         0.0600 
    214 H214       -4.3000  -21.4198  -45.1587 H         1 UNK         0.0600 
    215 H215       -3.9691  -21.5283  -49.5599 H         1 UNK         0.3000 
    216 H216       -3.9455  -20.4297  -51.4473 H         1 UNK         0.0600 
    217 H217       -1.4961  -20.7993  -51.2550 H         1 UNK         0.0600 
    218 H218       -1.3000  -19.2319  -50.4815 H         1 UNK         0.0600 
    219 H219       -1.8474  -19.3328  -52.1488 H         1 UNK         0.0600 
    220 H220       -5.2259  -19.0695  -49.0843 H         1 UNK         0.3000 
    221 H221       -5.1136  -16.2350  -49.4857 H         1 UNK         0.0600 
    222 H222       -7.2584  -17.9975  -48.1798 H         1 UNK         0.0600 
    223 H223       -5.8743  -17.2664  -47.3638 H         1 UNK         0.0600 
    224 H224       -7.1431  -16.2477  -48.0255 H         1 UNK         0.0600 
    225 H225       -6.8147  -18.7910  -51.1203 H         1 UNK         0.3000 
    226 H226       -7.6358  -16.9927  -53.2265 H         1 UNK         0.0600 
    227 H227       -9.7539  -17.1342  -51.8662 H         1 UNK         0.0600 
    228 H228       -9.9291  -18.0097  -53.3800 H         1 UNK         0.0600 
    229 H229       -9.6569  -18.8946  -51.8828 H         1 UNK         0.0600 
    230 H230       -7.7555  -18.2008  -55.1961 H         1 UNK         0.3000 
    231 H231       -6.9916  -19.6232  -56.7167 H         1 UNK         0.0600 
    232 H232       -7.5429  -22.0161  -56.4625 H         1 UNK         0.0600 
    233 H233       -8.8636  -21.0314  -55.8548 H         1 UNK         0.0600 
    234 H234       -7.7633  -21.8245  -54.7289 H         1 UNK         0.0600 
    235 H235       -4.9782  -18.4244  -55.4877 H         1 UNK         0.3000 
    236 H236       -2.9619  -20.0472  -54.3299 H         1 UNK         0.0600 
    237 H237       -1.5287  -18.0387  -54.7274 H         1 UNK         0.0600 
    238 H238       -2.7511  -17.3560  -55.7936 H         1 UNK         0.0600 
    239 H239       -3.0857  -17.5676  -54.0756 H         1 UNK         0.0600 
    240 H240       -0.8530  -20.5417  -55.1822 H         1 UNK         0.3000 
    241 H241       -0.9834  -21.9368  -57.6881 H         1 UNK         0.0600 
    242 H242       -0.1538  -18.6470  -57.2257 H         1 UNK         0.3800 
    243 H243        0.8312  -18.4954  -58.6566 H         1 UNK         0.3800 
    244 H244        0.0662  -23.0387  -55.8172 H         1 UNK         0.0800 
    245 H245        1.2535  -22.8129  -57.0599 H         1 UNK         0.0800 
    246 H246       -0.2010  -21.5836  -53.7067 H         1 UNK         0.0800 
    247 H247        1.0179  -22.7597  -53.2841 H         1 UNK         0.0800 
@<TRIPOS>BOND
     1    1    2 1    
     2    1  127 1    
     3    1  128 1    
     4    1  129 1    
     5    2    3 2    
     6    2    4 am   BACKBONE|DICT|INTERRES
     7    4    5 1    
     8    4  130 1    
     9    5    6 1    
    10    5   65 1    
    11    5  131 1    
    12    6    7 1    
    13    6  132 1    
    14    6  133 1    
    15    7    8 1    
    16    8    9 1    
    17    8  134 1    
    18    8  135 1    
    19    9   10 ar   
    20    9   14 ar   
    21   10   11 ar   
    22   10  136 1    
    23   11   12 ar   
    24   11  126 1    
    25   12   13 ar   
    26   12  137 1    
    27   13   14 ar   
    28   13   15 1    
    29   14  138 1    
    30   15   16 1    
    31   15  139 1    
    32   15  140 1    
    33   16   17 1    
    34   17   18 1    
    35   17  141 1    
    36   17  142 1    
    37   18   19 1    
    38   18   67 1    
    39   18  143 1    
    40   19   20 am   BACKBONE|DICT|INTERRES
    41   19  144 1    
    42   20   21 2    
    43   20   22 1    
    44   22   23 1    
    45   22   24 1    
    46   22  145 1    
    47   23  146 1    
    48   23  147 1    
    49   23  148 1    
    50   24   25 am   BACKBONE|DICT|INTERRES
    51   24  149 1    
    52   25   26 2    
    53   25   27 1    
    54   27   28 1    
    55   27   29 1    
    56   27  150 1    
    57   28  151 1    
    58   28  152 1    
    59   28  153 1    
    60   29   30 am   BACKBONE|DICT|INTERRES
    61   29  154 1    
    62   30   31 2    
    63   30   32 1    
    64   32   33 1    
    65   32   34 1    
    66   32  155 1    
    67   33  156 1    
    68   33  157 1    
    69   33  158 1    
    70   34   35 am   BACKBONE|DICT|INTERRES
    71   34  159 1    
    72   35   36 2    
    73   35   37 1    
    74   37   38 1    
    75   37   39 1    
    76   37  160 1    
    77   38  161 1    
    78   38  162 1    
    79   38  163 1    
    80   39   40 am   BACKBONE|DICT|INTERRES
    81   39  164 1    
    82   40   41 2    
    83   40   42 1    
    84   42   43 1    
    85   42   44 1    
    86   42  165 1    
    87   43  166 1    
    88   43  167 1    
    89   43  168 1    
    90   44   45 am   BACKBONE|DICT|INTERRES
    91   44  169 1    
    92   45   46 2    
    93   45   47 1    
    94   47   48 1    
    95   47   49 1    
    96   47  170 1    
    97   48  171 1    
    98   48  172 1    
    99   48  173 1    
   100   49   50 am   BACKBONE|DICT|INTERRES
   101   49  174 1    
   102   50   51 2    
   103   50   52 1    
   104   52   53 1    
   105   52   54 1    
   106   52  175 1    
   107   53  176 1    
   108   53  177 1    
   109   53  178 1    
   110   54   55 am   BACKBONE|DICT|INTERRES
   111   54  179 1    
   112   55   56 2    
   113   55   57 1    
   114   57   58 1    
   115   57   59 1    
   116   57  180 1    
   117   58  181 1    
   118   58  182 1    
   119   58  183 1    
   120   59   60 am   BACKBONE|DICT|INTERRES
   121   59  184 1    
   122   60   61 2    
   123   60   62 1    
   124   62   63 1    
   125   62   64 1    
   126   62  185 1    
   127   63  186 1    
   128   63  187 1    
   129   63  188 1    
   130   64   65 am   BACKBONE|DICT|INTERRES
   131   64  189 1    
   132   65   66 2    
   133   67   68 2    
   134   67   69 am   BACKBONE|DICT|INTERRES
   135   69   70 1    
   136   69  190 1    
   137   70   71 1    
   138   70   72 1    
   139   70  191 1    
   140   71  192 1    
   141   71  193 1    
   142   71  194 1    
   143   72   73 2    
   144   72   74 am   BACKBONE|DICT|INTERRES
   145   74   75 1    
   146   74  195 1    
   147   75   76 1    
   148   75   77 1    
   149   75  196 1    
   150   76  197 1    
   151   76  198 1    
   152   76  199 1    
   153   77   78 2    
   154   77   79 am   BACKBONE|DICT|INTERRES
   155   79   80 1    
   156   79  200 1    
   157   80   81 1    
   158   80   82 1    
   159   80  201 1    
   160   81  202 1    
   161   81  203 1    
   162   81  204 1    
   163   82   83 2    
   164   82   84 am   BACKBONE|DICT|INTERRES
   165   84   85 1    
   166   84  205 1    
   167   85   86 1    
   168   85   87 1    
   169   85  206 1    
   170   86  207 1    
   171   86  208 1    
   172   86  209 1    
   173   87   88 2    
   174   87   89 am   BACKBONE|DICT|INTERRES
   175   89   90 1    
   176   89  210 1    
   177   90   91 1    
   178   90   92 1    
   179   90  211 1    
   180   91  212 1    
   181   91  213 1    
   182   91  214 1    
   183   92   93 2    
   184   92   94 am   BACKBONE|DICT|INTERRES
   185   94   95 1    
   186   94  215 1    
   187   95   96 1    
   188   95   97 1    
   189   95  216 1    
   190   96  217 1    
   191   96  218 1    
   192   96  219 1    
   193   97   98 2    
   194   97   99 am   BACKBONE|DICT|INTERRES
   195   99  100 1    
   196   99  220 1    
   197  100  101 1    
   198  100  102 1    
   199  100  221 1    
   200  101  222 1    
   201  101  223 1    
   202  101  224 1    
   203  102  103 2    
   204  102  104 am   BACKBONE|DICT|INTERRES
   205  104  105 1    
   206  104  225 1    
   207  105  106 1    
   208  105  107 1    
   209  105  226 1    
   210  106  227 1    
   211  106  228 1    
   212  106  229 1    
   213  107  108 2    
   214  107  109 am   BACKBONE|DICT|INTERRES
   215  109  110 1    
   216  109  230 1    
   217  110  111 1    
   218  110  112 1    
   219  110  231 1    
   220  111  232 1    
   221  111  233 1    
   222  111  234 1    
   223  112  113 2    
   224  112  114 am   BACKBONE|DICT|INTERRES
   225  114  115 1    
   226  114  235 1    
   227  115  116 1    
   228  115  117 1    
   229  115  236 1    
   230  116  237 1    
   231  116  238 1    
   232  116  239 1    
   233  117  118 2    
   234  117  119 am   BACKBONE|DICT|INTERRES
   235  119  120 1    
   236  119  240 1    
   237  120  121 1    
   238  120  124 1    
   239  120  241 1    
   240  121  122 am   BACKBONE|DICT|INTERRES
   241  121  123 2    
   242  122  242 1    
   243  122  243 1    
   244  124  125 1    
   245  124  244 1    
   246  124  245 1    
   247  125  126 1    
   248  126  246 1    
   249  126  247 1    
@<TRIPOS>SUBSTRUCTURE
     1 UNK         1 GROUP             0       ****    0 ROOT    
