@<TRIPOS>MOLECULE
3R540
247   249    1
SMALL
USER_CHARGES


@<TRIPOS>ATOM
      1 CA         -2.8511  -12.0650  -51.9813 C.3       0 UNK        -0.1800 
      2 C          -2.1180  -12.6837  -50.7999 C.2       0 UNK         0.5000 
      3 O          -2.1939  -12.1665  -49.6851 O.2       0 UNK        -0.5000 
      4 N          -1.4273  -13.8049  -51.0314 N.am      1 UNK        -0.5000 
      5 CA         -0.6977  -14.5869  -50.0337 C.3       1 UNK         0.1400 
      6 C6          0.4948  -15.3242  -50.6879 C.3       23 UNK        -0.0398 
      7 S7          1.7688  -15.8071  -49.4770 S.3       23 UNK        -0.2404 
      8 C8          2.8366  -16.8805  -50.4869 C.3       23 UNK        -0.0205 
      9 C9          2.2815  -18.2923  -50.6131 C.ar      23 UNK        -0.0193 
     10 C10         1.4054  -18.6175  -51.6523 C.ar      23 UNK        -0.1150 
     11 C11         0.9127  -19.9174  -51.7886 C.ar      23 UNK        -0.0193 
     12 C12         1.3045  -20.8977  -50.8717 C.ar      23 UNK        -0.1150 
     13 C13         2.1849  -20.5912  -49.8301 C.ar      23 UNK        -0.0193 
     14 C14         2.6714  -19.2856  -49.7094 C.ar      23 UNK        -0.1150 
     15 C15         2.6489  -21.6850  -48.8739 C.3       23 UNK        -0.0205 
     16 S16         2.3136  -21.3089  -47.1224 S.3       23 UNK        -0.2404 
     17 C17         0.4945  -21.4192  -47.0466 C.3       23 UNK        -0.0398 
     18 CA         -0.0068  -22.7747  -46.4920 C.3       11 UNK         0.1400 
     19 N           0.5487  -23.0889  -45.1714 N.am      11 UNK        -0.5000 
     20 C           0.4915  -24.3002  -44.5969 C.2       10 UNK         0.5000 
     21 O          -0.0319  -25.2784  -45.1277 O.2       10 UNK        -0.5000 
     22 CA          1.0603  -24.4353  -43.1702 C.3       10 UNK         0.1400 
     23 CB          2.5582  -24.7695  -43.2218 C.3       10 UNK        -0.1800 
     24 N           0.8662  -23.2378  -42.3535 N.am      10 UNK        -0.5000 
     25 C          -0.3122  -22.6551  -42.0903 C.2       9 UNK         0.5000 
     26 O          -1.3952  -23.1355  -42.4222 O.2       9 UNK        -0.5000 
     27 CA         -0.2759  -21.2758  -41.4016 C.3       9 UNK         0.1400 
     28 CB         -0.6466  -21.4074  -39.9174 C.3       9 UNK        -0.1800 
     29 N           1.0128  -20.5820  -41.5160 N.am      9 UNK        -0.5000 
     30 C           1.5971  -20.2105  -42.6639 C.2       8 UNK         0.5000 
     31 O           1.1148  -20.4262  -43.7790 O.2       8 UNK        -0.5000 
     32 CA          2.9936  -19.5750  -42.5269 C.3       8 UNK         0.1400 
     33 CB          4.0613  -20.6759  -42.4210 C.3       8 UNK        -0.1800 
     34 N           3.3422  -18.6970  -43.6427 N.am      8 UNK        -0.5000 
     35 C           2.6961  -17.5706  -43.9620 C.2       7 UNK         0.5000 
     36 O           1.7254  -17.1335  -43.3410 O.2       7 UNK        -0.5000 
     37 CA          3.2319  -16.8035  -45.1770 C.3       7 UNK         0.1400 
     38 CB          2.9690  -17.5732  -46.4835 C.3       7 UNK        -0.1800 
     39 N           2.5990  -15.4901  -45.2214 N.am      7 UNK        -0.5000 
     40 C           3.0286  -14.4318  -45.9155 C.2       6 UNK         0.5000 
     41 O           4.0411  -14.4358  -46.6166 O.2       6 UNK        -0.5000 
     42 CA          2.1957  -13.1439  -45.7969 C.3       6 UNK         0.1400 
     43 CB          1.1175  -13.0981  -46.8906 C.3       6 UNK        -0.1800 
     44 N           1.5615  -13.0012  -44.4841 N.am      6 UNK        -0.5000 
     45 C           2.1864  -12.5185  -43.3998 C.2       5 UNK         0.5000 
     46 O           3.3733  -12.1889  -43.3946 O.2       5 UNK        -0.5000 
     47 CA          1.3610  -12.3394  -42.1107 C.3       5 UNK         0.1400 
     48 CB          0.9704  -10.8636  -41.9319 C.3       5 UNK        -0.1800 
     49 N           0.1426  -13.1472  -42.0979 N.am      5 UNK        -0.5000 
     50 C           0.0586  -14.3935  -41.6175 C.2       4 UNK         0.5000 
     51 O           0.9975  -14.9835  -41.0822 O.2       4 UNK        -0.5000 
     52 CA         -1.3065  -15.1028  -41.7440 C.3       4 UNK         0.1400 
     53 CB         -2.5064  -14.1328  -41.8311 C.3       4 UNK        -0.1800 
     54 N          -1.3374  -16.0538  -42.8588 N.am      4 UNK        -0.5000 
     55 C          -1.1045  -15.7954  -44.1540 C.2       3 UNK         0.5000 
     56 O          -0.8029  -14.6795  -44.5844 O.2       3 UNK        -0.5000 
     57 CA         -1.2129  -16.9722  -45.1507 C.3       3 UNK         0.1400 
     58 CB         -1.7817  -18.2765  -44.5485 C.3       3 UNK        -0.1800 
     59 N          -1.9561  -16.5903  -46.3556 N.am      3 UNK        -0.5000 
     60 C          -3.1991  -16.0884  -46.4269 C.2       2 UNK         0.5000 
     61 O          -3.9433  -15.9680  -45.4520 O.2       2 UNK        -0.5000 
     62 CA         -3.6845  -15.6339  -47.8237 C.3       2 UNK         0.1400 
     63 CB         -4.9231  -14.7229  -47.7568 C.3       2 UNK        -0.1800 
     64 N          -2.6434  -14.9418  -48.5867 N.am      2 UNK        -0.5000 
     65 C          -1.6672  -15.5302  -49.2866 C.2       1 UNK         0.5000 
     66 O          -1.5371  -16.7529  -49.3509 O.2       1 UNK        -0.5000 
     67 C          -1.5491  -22.8124  -46.4829 C.2       11 UNK         0.5000 
     68 O          -2.1515  -23.1999  -47.4853 O.2       11 UNK        -0.5000 
     69 N          -2.1627  -22.4247  -45.3557 N.am      12 UNK        -0.5000 
     70 CA         -3.6065  -22.5020  -45.1367 C.3       12 UNK         0.1400 
     71 CB         -4.0227  -21.5217  -44.0302 C.3       12 UNK        -0.1800 
     72 C          -4.0537  -23.9358  -44.8134 C.2       12 UNK         0.5000 
     73 O          -5.0744  -24.3776  -45.3390 O.2       12 UNK        -0.5000 
     74 N          -3.2628  -24.6554  -44.0042 N.am      13 UNK        -0.5000 
     75 CA         -3.4814  -26.0624  -43.6534 C.3       13 UNK         0.1400 
     76 CB         -2.4683  -26.4865  -42.5804 C.3       13 UNK        -0.1800 
     77 C          -3.4107  -27.0037  -44.8720 C.2       13 UNK         0.5000 
     78 O          -4.2044  -27.9402  -44.9663 O.2       13 UNK        -0.5000 
     79 N          -2.4936  -26.7081  -45.8033 N.am      14 UNK        -0.5000 
     80 CA         -2.3606  -27.3778  -47.0991 C.3       14 UNK         0.1400 
     81 CB         -0.9668  -27.0671  -47.6690 C.3       14 UNK        -0.1800 
     82 C          -3.4478  -26.9751  -48.1182 C.2       14 UNK         0.5000 
     83 O          -3.5375  -27.6045  -49.1728 O.2       14 UNK        -0.5000 
     84 N          -4.2236  -25.9239  -47.8078 N.am      15 UNK        -0.5000 
     85 CA         -5.2428  -25.2786  -48.6437 C.3       15 UNK         0.1400 
     86 CB         -6.4147  -26.2378  -48.9362 C.3       15 UNK        -0.1800 
     87 C          -4.6657  -24.6262  -49.9182 C.2       15 UNK         0.5000 
     88 O          -5.3911  -24.4329  -50.8941 O.2       15 UNK        -0.5000 
     89 N          -3.3750  -24.2725  -49.8816 N.am      16 UNK        -0.5000 
     90 CA         -2.6670  -23.5890  -50.9597 C.3       16 UNK         0.1400 
     91 CB         -1.1642  -23.8814  -50.8398 C.3       16 UNK        -0.1800 
     92 C          -2.9456  -22.0785  -50.9218 C.2       16 UNK         0.5000 
     93 O          -3.1843  -21.4766  -51.9669 O.2       16 UNK        -0.5000 
     94 N          -2.9786  -21.5055  -49.7091 N.am      17 UNK        -0.5000 
     95 CA         -3.2737  -20.0916  -49.4513 C.3       17 UNK         0.1400 
     96 CB         -2.9414  -19.7647  -47.9897 C.3       17 UNK        -0.1800 
     97 C          -4.7244  -19.6816  -49.7771 C.2       17 UNK         0.5000 
     98 O          -5.0085  -18.4875  -49.8558 O.2       17 UNK        -0.5000 
     99 N          -5.6142  -20.6647  -49.9828 N.am      18 UNK        -0.5000 
    100 CA        -6.9707  -20.4639  -50.4977 C.3       18 UNK         0.1400 
    101 CB        -7.7604  -21.7749  -50.3707 C.3       18 UNK        -0.1800 
    102 C         -6.9766  -19.9612  -51.9566 C.2       18 UNK         0.5000 
    103 O         -7.8878  -19.2288  -52.3426 O.2       18 UNK        -0.5000 
    104 N         -5.9365  -20.3200  -52.7213 N.am      19 UNK        -0.5000 
    105 CA        -5.6169  -19.7682  -54.0324 C.3       19 UNK         0.1400 
    106 CB        -5.2255  -20.9198  -54.9758 C.3       19 UNK        -0.1800 
    107 C         -4.4812  -18.7517  -53.8311 C.2       19 UNK         0.5000 
    108 O         -3.3506  -18.9926  -54.2513 O.2       19 UNK        -0.5000 
    109 N         -4.8005  -17.6500  -53.1379 N.am      20 UNK        -0.5000 
    110 CA        -3.8651  -16.6596  -52.5917 C.3       20 UNK         0.1400 
    111 CB        -4.6752  -15.5887  -51.8446 C.3       20 UNK        -0.1800 
    112 C         -2.9119  -15.9990  -53.6090 C.2       20 UNK         0.5000 
    113 O         -1.8313  -15.5563  -53.2190 O.2       20 UNK        -0.5000 
    114 N         -3.3104  -15.9429  -54.8867 N.am      21 UNK        -0.5000 
    115 CA        -2.4682  -15.4737  -55.9908 C.3       21 UNK         0.1400 
    116 CB        -3.3562  -15.2041  -57.2151 C.3       21 UNK        -0.1800 
    117 C         -1.3379  -16.4620  -56.3511 C.2       21 UNK         0.5000 
    118 O         -0.3026  -16.0367  -56.8640 O.2       21 UNK        -0.5000 
    119 N         -1.5587  -17.7539  -56.0731 N.am      22 UNK        -0.5000 
    120 CA        -0.6372  -18.8823  -56.2758 C.3       22 UNK         0.1400 
    121 C         -0.2442  -19.1822  -57.7564 C.2       22 UNK         0.5000 
    122 N         -0.9947  -18.7087  -58.7438 N.am      22 UNK        -0.7600 
    123 O          0.7340  -19.8755  -58.0223 O.2       22 UNK        -0.5000 
    124 C124        0.5714  -18.8362  -55.2948 C.3       23 UNK        -0.0398 
    125 S125        0.8651  -20.4585  -54.5067 S.3       23 UNK        -0.2404 
    126 C126       -0.0301  -20.2677  -52.9307 C.3       23 UNK        -0.0205 
    127 H127       -2.6971  -12.6369  -52.8971 H         1 UNK         0.0600 
    128 H128       -2.4984  -11.0479  -52.1514 H         1 UNK         0.0600 
    129 H129       -3.9217  -12.0280  -51.7802 H         1 UNK         0.0600 
    130 H130       -1.4689  -14.2362  -51.9524 H         1 UNK         0.3000 
    131 H131       -0.2927  -13.8916  -49.2967 H         1 UNK         0.0600 
    132 H132        0.1483  -16.1902  -51.2501 H         1 UNK         0.0800 
    133 H133        0.9818  -14.6720  -51.4143 H         1 UNK         0.0800 
    134 H134        2.9796  -16.4380  -51.4739 H         1 UNK         0.0800 
    135 H135        3.8252  -16.9154  -50.0268 H         1 UNK         0.0800 
    136 H136        1.1181  -17.8611  -52.3663 H         1 UNK         0.1150 
    137 H137        0.9413  -21.9078  -50.9824 H         1 UNK         0.1150 
    138 H138        3.3636  -19.0471  -48.9152 H         1 UNK         0.1150 
    139 H139        2.1907  -22.6435  -49.1228 H         1 UNK         0.0800 
    140 H140        3.7239  -21.8196  -48.9996 H         1 UNK         0.0800 
    141 H141        0.0873  -21.2387  -48.0428 H         1 UNK         0.0800 
    142 H142        0.1443  -20.5969  -46.4198 H         1 UNK         0.0800 
    143 H143        0.3237  -23.5549  -47.1814 H         1 UNK         0.0600 
    144 H144        0.9677  -22.3131  -44.6691 H         1 UNK         0.3000 
    145 H145        0.5415  -25.2591  -42.6780 H         1 UNK         0.0600 
    146 H146        2.9585  -24.9463  -42.2234 H         1 UNK         0.0600 
    147 H147        2.7363  -25.6729  -43.8068 H         1 UNK         0.0600 
    148 H148        3.1350  -23.9637  -43.6781 H         1 UNK         0.0600 
    149 H149        1.7015  -22.7697  -42.0374 H         1 UNK         0.3000 
    150 H150       -1.0299  -20.6549  -41.8897 H         1 UNK         0.0600 
    151 H151        0.0882  -21.9992  -39.3701 H         1 UNK         0.0600 
    152 H152       -1.6154  -21.8947  -39.7980 H         1 UNK         0.0600 
    153 H153       -0.7160  -20.4301  -39.4393 H         1 UNK         0.0600 
    154 H154        1.4859  -20.3846  -40.6457 H         1 UNK         0.3000 
    155 H155        3.0122  -18.9759  -41.6141 H         1 UNK         0.0600 
    156 H156        4.0868  -21.2977  -43.3173 H         1 UNK         0.0600 
    157 H157        3.8703  -21.3325  -41.5713 H         1 UNK         0.0600 
    158 H158        5.0550  -20.2501  -42.2799 H         1 UNK         0.0600 
    159 H159        4.1040  -19.0046  -44.2287 H         1 UNK         0.3000 
    160 H160        4.3073  -16.6715  -45.0417 H         1 UNK         0.0600 
    161 H161        3.4045  -18.5716  -46.4475 H         1 UNK         0.0600 
    162 H162        3.4181  -17.0650  -47.3357 H         1 UNK         0.0600 
    163 H163        1.9030  -17.6865  -46.6828 H         1 UNK         0.0600 
    164 H164        1.7967  -15.3942  -44.6108 H         1 UNK         0.3000 
    165 H165        2.8663  -12.2969  -45.9579 H         1 UNK         0.0600 
    166 H166        0.5113  -12.1954  -46.8147 H         1 UNK         0.0600 
    167 H167        1.5753  -13.0995  -47.8804 H         1 UNK         0.0600 
    168 H168        0.4491  -13.9581  -46.8374 H         1 UNK         0.0600 
    169 H169        0.6025  -13.3282  -44.4077 H         1 UNK         0.3000 
    170 H170        1.9981  -12.6223  -41.2700 H         1 UNK         0.0600 
    171 H171        0.4332  -10.7088  -40.9959 H         1 UNK         0.0600 
    172 H172        1.8543  -10.2249  -41.9070 H         1 UNK         0.0600 
    173 H173        0.3349  -10.5132  -42.7462 H         1 UNK         0.0600 
    174 H174       -0.6731  -12.7480  -42.5397 H         1 UNK         0.3000 
    175 H175       -1.4292  -15.6906  -40.8331 H         1 UNK         0.0600 
    176 H176       -2.5005  -13.4248  -41.0013 H         1 UNK         0.0600 
    177 H177       -2.5141  -13.5594  -42.7585 H         1 UNK         0.0600 
    178 H178       -3.4484  -14.6789  -41.7797 H         1 UNK         0.0600 
    179 H179       -1.5320  -17.0105  -42.6030 H         1 UNK         0.3000 
    180 H180       -0.1942  -17.1813  -45.4780 H         1 UNK         0.0600 
    181 H181       -2.7918  -18.1410  -44.1606 H         1 UNK         0.0600 
    182 H182       -1.1535  -18.6439  -43.7362 H         1 UNK         0.0600 
    183 H183       -1.8175  -19.0676  -45.2970 H         1 UNK         0.0600 
    184 H184       -1.4461  -16.6612  -47.2277 H         1 UNK         0.3000 
    185 H185       -3.9737  -16.5338  -48.3679 H         1 UNK         0.0600 
    186 H186       -5.7570  -15.2278  -47.2676 H         1 UNK         0.0600 
    187 H187       -4.7180  -13.8071  -47.2011 H         1 UNK         0.0600 
    188 H188       -5.2594  -14.4421  -48.7552 H         1 UNK         0.0600 
    189 H189       -2.6769  -13.9285  -48.5860 H         1 UNK         0.3000 
    190 H190       -1.5973  -22.1706  -44.5581 H         1 UNK         0.3000 
    191 H191       -4.1193  -22.2050  -46.0533 H         1 UNK         0.0600 
    192 H192       -3.7720  -20.4965  -44.3004 H         1 UNK         0.0600 
    193 H193       -5.1002  -21.5577  -43.8650 H         1 UNK         0.0600 
    194 H194       -3.5395  -21.7465  -43.0797 H         1 UNK         0.0600 
    195 H195       -2.4730  -24.1921  -43.5625 H         1 UNK         0.3000 
    196 H196       -4.4834  -26.1439  -43.2270 H         1 UNK         0.0600 
    197 H197       -2.6699  -27.5011  -42.2349 H         1 UNK         0.0600 
    198 H198       -2.5126  -25.8303  -41.7108 H         1 UNK         0.0600 
    199 H199       -1.4487  -26.4691  -42.9638 H         1 UNK         0.0600 
    200 H200       -1.8184  -25.9754  -45.6057 H         1 UNK         0.3000 
    201 H201       -2.4372  -28.4559  -46.9446 H         1 UNK         0.0600 
    202 H202       -0.8084  -27.5720  -48.6228 H         1 UNK         0.0600 
    203 H203       -0.1807  -27.4016  -46.9920 H         1 UNK         0.0600 
    204 H204       -0.8316  -25.9976  -47.8368 H         1 UNK         0.0600 
    205 H205       -4.0921  -25.4968  -46.8996 H         1 UNK         0.3000 
    206 H206       -5.6394  -24.4558  -48.0476 H         1 UNK         0.0600 
    207 H207       -6.8005  -26.6790  -48.0172 H         1 UNK         0.0600 
    208 H208       -7.2415  -25.7104  -49.4132 H         1 UNK         0.0600 
    209 H209       -6.1198  -27.0496  -49.6015 H         1 UNK         0.0600 
    210 H210       -2.8708  -24.3841  -49.0097 H         1 UNK         0.3000 
    211 H211       -3.0140  -23.9784  -51.9194 H         1 UNK         0.0600 
    212 H212       -0.7355  -23.4518  -49.9334 H         1 UNK         0.0600 
    213 H213       -0.6237  -23.4731  -51.6936 H         1 UNK         0.0600 
    214 H214       -0.9730  -24.9546  -50.8222 H         1 UNK         0.0600 
    215 H215       -2.7792  -22.0867  -48.9001 H         1 UNK         0.3000 
    216 H216       -2.6221  -19.4902  -50.0895 H         1 UNK         0.0600 
    217 H217       -3.1589  -18.7219  -47.7677 H         1 UNK         0.0600 
    218 H218       -1.8850  -19.9185  -47.7799 H         1 UNK         0.0600 
    219 H219       -3.5232  -20.3699  -47.2969 H         1 UNK         0.0600 
    220 H220       -5.2977  -21.6185  -49.8966 H         1 UNK         0.3000 
    221 H221       -7.4594  -19.7067  -49.8810 H         1 UNK         0.0600 
    222 H222       -7.3355  -22.5628  -50.9932 H         1 UNK         0.0600 
    223 H223       -7.7764  -22.1310  -49.3405 H         1 UNK         0.0600 
    224 H224       -8.7962  -21.6359  -50.6828 H         1 UNK         0.0600 
    225 H225       -5.1945  -20.8698  -52.3023 H         1 UNK         0.3000 
    226 H226       -6.4734  -19.2459  -54.4633 H         1 UNK         0.0600 
    227 H227       -4.9594  -20.5420  -55.9636 H         1 UNK         0.0600 
    228 H228       -4.3707  -21.4816  -54.5961 H         1 UNK         0.0600 
    229 H229       -6.0520  -21.6185  -55.1053 H         1 UNK         0.0600 
    230 H230       -5.7578  -17.5575  -52.8287 H         1 UNK         0.3000 
    231 H231       -3.2399  -17.1808  -51.8635 H         1 UNK         0.0600 
    232 H232       -5.3310  -15.0367  -52.5188 H         1 UNK         0.0600 
    233 H233       -4.0217  -14.8673  -51.3578 H         1 UNK         0.0600 
    234 H234       -5.2922  -16.0324  -51.0632 H         1 UNK         0.0600 
    235 H235       -4.2167  -16.3170  -55.1257 H         1 UNK         0.3000 
    236 H236       -2.0016  -14.5319  -55.6940 H         1 UNK         0.0600 
    237 H237       -4.1137  -14.4518  -56.9944 H         1 UNK         0.0600 
    238 H238       -2.7646  -14.8317  -58.0525 H         1 UNK         0.0600 
    239 H239       -3.8671  -16.1079  -57.5496 H         1 UNK         0.0600 
    240 H240       -2.4139  -18.0050  -55.5859 H         1 UNK         0.3000 
    241 H241       -1.2523  -19.7406  -56.0030 H         1 UNK         0.0600 
    242 H242       -1.8054  -18.1449  -58.5456 H         1 UNK         0.3800 
    243 H243       -0.7442  -18.9108  -59.6991 H         1 UNK         0.3800 
    244 H244        1.4835  -18.5113  -55.7979 H         1 UNK         0.0800 
    245 H245        0.4030  -18.0976  -54.5116 H         1 UNK         0.0800 
    246 H246       -0.8151  -19.5144  -53.0185 H         1 UNK         0.0800 
    247 H247       -0.5441  -21.2049  -52.7175 H         1 UNK         0.0800 
@<TRIPOS>BOND
     1    1    2 1    
     2    1  127 1    
     3    1  128 1    
     4    1  129 1    
     5    2    3 2    
     6    2    4 am   BACKBONE|DICT|INTERRES
     7    4    5 1    
     8    4  130 1    
     9    5    6 1    
    10    5   65 1    
    11    5  131 1    
    12    6    7 1    
    13    6  132 1    
    14    6  133 1    
    15    7    8 1    
    16    8    9 1    
    17    8  134 1    
    18    8  135 1    
    19    9   10 ar   
    20    9   14 ar   
    21   10   11 ar   
    22   10  136 1    
    23   11   12 ar   
    24   11  126 1    
    25   12   13 ar   
    26   12  137 1    
    27   13   14 ar   
    28   13   15 1    
    29   14  138 1    
    30   15   16 1    
    31   15  139 1    
    32   15  140 1    
    33   16   17 1    
    34   17   18 1    
    35   17  141 1    
    36   17  142 1    
    37   18   19 1    
    38   18   67 1    
    39   18  143 1    
    40   19   20 am   BACKBONE|DICT|INTERRES
    41   19  144 1    
    42   20   21 2    
    43   20   22 1    
    44   22   23 1    
    45   22   24 1    
    46   22  145 1    
    47   23  146 1    
    48   23  147 1    
    49   23  148 1    
    50   24   25 am   BACKBONE|DICT|INTERRES
    51   24  149 1    
    52   25   26 2    
    53   25   27 1    
    54   27   28 1    
    55   27   29 1    
    56   27  150 1    
    57   28  151 1    
    58   28  152 1    
    59   28  153 1    
    60   29   30 am   BACKBONE|DICT|INTERRES
    61   29  154 1    
    62   30   31 2    
    63   30   32 1    
    64   32   33 1    
    65   32   34 1    
    66   32  155 1    
    67   33  156 1    
    68   33  157 1    
    69   33  158 1    
    70   34   35 am   BACKBONE|DICT|INTERRES
    71   34  159 1    
    72   35   36 2    
    73   35   37 1    
    74   37   38 1    
    75   37   39 1    
    76   37  160 1    
    77   38  161 1    
    78   38  162 1    
    79   38  163 1    
    80   39   40 am   BACKBONE|DICT|INTERRES
    81   39  164 1    
    82   40   41 2    
    83   40   42 1    
    84   42   43 1    
    85   42   44 1    
    86   42  165 1    
    87   43  166 1    
    88   43  167 1    
    89   43  168 1    
    90   44   45 am   BACKBONE|DICT|INTERRES
    91   44  169 1    
    92   45   46 2    
    93   45   47 1    
    94   47   48 1    
    95   47   49 1    
    96   47  170 1    
    97   48  171 1    
    98   48  172 1    
    99   48  173 1    
   100   49   50 am   BACKBONE|DICT|INTERRES
   101   49  174 1    
   102   50   51 2    
   103   50   52 1    
   104   52   53 1    
   105   52   54 1    
   106   52  175 1    
   107   53  176 1    
   108   53  177 1    
   109   53  178 1    
   110   54   55 am   BACKBONE|DICT|INTERRES
   111   54  179 1    
   112   55   56 2    
   113   55   57 1    
   114   57   58 1    
   115   57   59 1    
   116   57  180 1    
   117   58  181 1    
   118   58  182 1    
   119   58  183 1    
   120   59   60 am   BACKBONE|DICT|INTERRES
   121   59  184 1    
   122   60   61 2    
   123   60   62 1    
   124   62   63 1    
   125   62   64 1    
   126   62  185 1    
   127   63  186 1    
   128   63  187 1    
   129   63  188 1    
   130   64   65 am   BACKBONE|DICT|INTERRES
   131   64  189 1    
   132   65   66 2    
   133   67   68 2    
   134   67   69 am   BACKBONE|DICT|INTERRES
   135   69   70 1    
   136   69  190 1    
   137   70   71 1    
   138   70   72 1    
   139   70  191 1    
   140   71  192 1    
   141   71  193 1    
   142   71  194 1    
   143   72   73 2    
   144   72   74 am   BACKBONE|DICT|INTERRES
   145   74   75 1    
   146   74  195 1    
   147   75   76 1    
   148   75   77 1    
   149   75  196 1    
   150   76  197 1    
   151   76  198 1    
   152   76  199 1    
   153   77   78 2    
   154   77   79 am   BACKBONE|DICT|INTERRES
   155   79   80 1    
   156   79  200 1    
   157   80   81 1    
   158   80   82 1    
   159   80  201 1    
   160   81  202 1    
   161   81  203 1    
   162   81  204 1    
   163   82   83 2    
   164   82   84 am   BACKBONE|DICT|INTERRES
   165   84   85 1    
   166   84  205 1    
   167   85   86 1    
   168   85   87 1    
   169   85  206 1    
   170   86  207 1    
   171   86  208 1    
   172   86  209 1    
   173   87   88 2    
   174   87   89 am   BACKBONE|DICT|INTERRES
   175   89   90 1    
   176   89  210 1    
   177   90   91 1    
   178   90   92 1    
   179   90  211 1    
   180   91  212 1    
   181   91  213 1    
   182   91  214 1    
   183   92   93 2    
   184   92   94 am   BACKBONE|DICT|INTERRES
   185   94   95 1    
   186   94  215 1    
   187   95   96 1    
   188   95   97 1    
   189   95  216 1    
   190   96  217 1    
   191   96  218 1    
   192   96  219 1    
   193   97   98 2    
   194   97   99 am   BACKBONE|DICT|INTERRES
   195   99  100 1    
   196   99  220 1    
   197  100  101 1    
   198  100  102 1    
   199  100  221 1    
   200  101  222 1    
   201  101  223 1    
   202  101  224 1    
   203  102  103 2    
   204  102  104 am   BACKBONE|DICT|INTERRES
   205  104  105 1    
   206  104  225 1    
   207  105  106 1    
   208  105  107 1    
   209  105  226 1    
   210  106  227 1    
   211  106  228 1    
   212  106  229 1    
   213  107  108 2    
   214  107  109 am   BACKBONE|DICT|INTERRES
   215  109  110 1    
   216  109  230 1    
   217  110  111 1    
   218  110  112 1    
   219  110  231 1    
   220  111  232 1    
   221  111  233 1    
   222  111  234 1    
   223  112  113 2    
   224  112  114 am   BACKBONE|DICT|INTERRES
   225  114  115 1    
   226  114  235 1    
   227  115  116 1    
   228  115  117 1    
   229  115  236 1    
   230  116  237 1    
   231  116  238 1    
   232  116  239 1    
   233  117  118 2    
   234  117  119 am   BACKBONE|DICT|INTERRES
   235  119  120 1    
   236  119  240 1    
   237  120  121 1    
   238  120  124 1    
   239  120  241 1    
   240  121  122 am   BACKBONE|DICT|INTERRES
   241  121  123 2    
   242  122  242 1    
   243  122  243 1    
   244  124  125 1    
   245  124  244 1    
   246  124  245 1    
   247  125  126 1    
   248  126  246 1    
   249  126  247 1    
@<TRIPOS>SUBSTRUCTURE
     1 UNK         1 GROUP             0       ****    0 ROOT    
