@<TRIPOS>MOLECULE
3R540
247   249    1
SMALL
USER_CHARGES


@<TRIPOS>ATOM
      1 CA         -0.1442  -12.6504  -45.6474 C.3       0 UNK        -0.1800 
      2 C           0.1632  -11.9610  -46.9695 C.2       0 UNK         0.5000 
      3 O          -0.2275  -10.8108  -47.1722 O.2       0 UNK        -0.5000 
      4 N           0.8723  -12.6527  -47.8694 N.am      1 UNK        -0.5000 
      5 CA          1.2581  -12.1772  -49.2043 C.3       1 UNK         0.1400 
      6 C6          1.4828  -13.3518  -50.1926 C.3       23 UNK        -0.0398 
      7 S7         -0.0080  -14.3718  -50.4567 S.3       23 UNK        -0.2404 
      8 C8          0.3547  -15.7809  -49.3646 C.3       23 UNK        -0.0205 
      9 C9         -0.6645  -16.9002  -49.5043 C.ar      23 UNK        -0.0193 
     10 C10        -1.9794  -16.7212  -49.0672 C.ar      23 UNK        -0.1150 
     11 C11        -2.8997  -17.7716  -49.1302 C.ar      23 UNK        -0.0193 
     12 C12        -2.4938  -19.0113  -49.6323 C.ar      23 UNK        -0.1150 
     13 C13        -1.1814  -19.2049  -50.0741 C.ar      23 UNK        -0.0193 
     14 C14        -0.2778  -18.1379  -50.0233 C.ar      23 UNK        -0.1150 
     15 C15        -0.7427  -20.5781  -50.5734 C.3       23 UNK        -0.0205 
     16 S16         0.8720  -21.1289  -49.9089 S.3       23 UNK        -0.2404 
     17 C17         0.6862  -20.8679  -48.1070 C.3       23 UNK        -0.0398 
     18 CA          0.3483  -22.1508  -47.3175 C.3       11 UNK         0.1400 
     19 N           0.5167  -21.9513  -45.8769 N.am      11 UNK        -0.5000 
     20 C           0.4249  -22.9180  -44.9533 C.2       10 UNK         0.5000 
     21 O           0.2366  -24.1046  -45.2195 O.2       10 UNK        -0.5000 
     22 CA          0.4988  -22.4753  -43.4821 C.3       10 UNK         0.1400 
     23 CB          1.9520  -22.2076  -43.0635 C.3       10 UNK        -0.1800 
     24 N          -0.3227  -21.2935  -43.2150 N.am      10 UNK        -0.5000 
     25 C          -1.6576  -21.2565  -43.3425 C.2       9 UNK         0.5000 
     26 O          -2.3412  -22.2330  -43.6508 O.2       9 UNK        -0.5000 
     27 CA         -2.3410  -19.8927  -43.1326 C.3       9 UNK         0.1400 
     28 CB         -2.4951  -19.5830  -41.6364 C.3       9 UNK        -0.1800 
     29 N          -1.6351  -18.7935  -43.7927 N.am      9 UNK        -0.5000 
     30 C          -1.4500  -18.6928  -45.1167 C.2       8 UNK         0.5000 
     31 O          -1.8780  -19.5075  -45.9307 O.2       8 UNK        -0.5000 
     32 CA         -0.5945  -17.5157  -45.6127 C.3       8 UNK         0.1400 
     33 CB         -1.4093  -16.2149  -45.6523 C.3       8 UNK        -0.1800 
     34 N           0.6075  -17.3269  -44.8015 N.am      8 UNK        -0.5000 
     35 C           1.6032  -18.2200  -44.7073 C.2       7 UNK         0.5000 
     36 O           1.6442  -19.2744  -45.3419 O.2       7 UNK        -0.5000 
     37 CA          2.7089  -17.9033  -43.6872 C.3       7 UNK         0.1400 
     38 CB          3.7309  -16.9169  -44.2736 C.3       7 UNK        -0.1800 
     39 N           2.1557  -17.3683  -42.4417 N.am      7 UNK        -0.5000 
     40 C           1.4533  -18.1001  -41.5622 C.2       6 UNK         0.5000 
     41 O           1.2282  -19.3014  -41.7039 O.2       6 UNK        -0.5000 
     42 CA          0.8685  -17.3676  -40.3391 C.3       6 UNK         0.1400 
     43 CB          1.8876  -17.3423  -39.1905 C.3       6 UNK        -0.1800 
     44 N           0.4448  -15.9997  -40.6345 N.am      6 UNK        -0.5000 
     45 C          -0.5085  -15.6614  -41.5140 C.2       5 UNK         0.5000 
     46 O          -1.1909  -16.4816  -42.1264 O.2       5 UNK        -0.5000 
     47 CA         -0.6947  -14.1572  -41.7962 C.3       5 UNK         0.1400 
     48 CB         -1.8640  -13.5964  -40.9744 C.3       5 UNK        -0.1800 
     49 N           0.5067  -13.3542  -41.5389 N.am      5 UNK        -0.5000 
     50 C           1.6712  -13.4965  -42.1852 C.2       4 UNK         0.5000 
     51 O           1.8683  -14.3478  -43.0562 O.2       4 UNK        -0.5000 
     52 CA          2.8244  -12.5817  -41.7327 C.3       4 UNK         0.1400 
     53 CB          3.6618  -13.2856  -40.6535 C.3       4 UNK        -0.1800 
     54 N           3.6973  -12.2199  -42.8491 N.am      4 UNK        -0.5000 
     55 C           3.3225  -11.4497  -43.8768 C.2       3 UNK         0.5000 
     56 O           2.2323  -10.8725  -43.9327 O.2       3 UNK        -0.5000 
     57 CA          4.3248  -11.3065  -45.0342 C.3       3 UNK         0.1400 
     58 CB          4.7250  -12.6772  -45.6172 C.3       3 UNK        -0.1800 
     59 N           3.6994  -10.5059  -46.0780 N.am      3 UNK        -0.5000 
     60 C           4.3124   -9.7833  -47.0198 C.2       2 UNK         0.5000 
     61 O           5.5348   -9.6435  -47.0927 O.2       2 UNK        -0.5000 
     62 CA          3.3738   -9.1463  -48.0690 C.3       2 UNK         0.1400 
     63 CB          4.1210   -8.5517  -49.2814 C.3       2 UNK        -0.1800 
     64 N           2.3275  -10.0879  -48.4949 N.am      2 UNK        -0.5000 
     65 C           2.5081  -11.2783  -49.0884 C.2       1 UNK         0.5000 
     66 O           3.6019  -11.6944  -49.4751 O.2       1 UNK        -0.5000 
     67 C          -1.0599  -22.6779  -47.6580 C.2       11 UNK         0.5000 
     68 O          -1.1726  -23.6473  -48.4055 O.2       11 UNK        -0.5000 
     69 N          -2.1008  -22.0662  -47.0763 N.am      12 UNK        -0.5000 
     70 CA         -3.4984  -22.4528  -47.2614 C.3       12 UNK         0.1400 
     71 CB         -4.4155  -21.4216  -46.5889 C.3       12 UNK        -0.1800 
     72 C          -3.8212  -23.8742  -46.7680 C.2       12 UNK         0.5000 
     73 O          -4.6532  -24.5475  -47.3753 O.2       12 UNK        -0.5000 
     74 N          -3.1551  -24.3060  -45.6895 N.am      13 UNK        -0.5000 
     75 CA         -3.2370  -25.6670  -45.1663 C.3       13 UNK         0.1400 
     76 CB         -2.7106  -25.6883  -43.7229 C.3       13 UNK        -0.1800 
     77 C          -2.4737  -26.6786  -46.0423 C.2       13 UNK         0.5000 
     78 O          -2.9686  -27.7859  -46.2574 O.2       13 UNK        -0.5000 
     79 N          -1.2786  -26.2933  -46.5099 N.am      14 UNK        -0.5000 
     80 CA         -0.3821  -27.1423  -47.2923 C.3       14 UNK         0.1400 
     81 CB          1.0371  -26.5529  -47.2567 C.3       14 UNK        -0.1800 
     82 C          -0.8439  -27.3497  -48.7454 C.2       14 UNK         0.5000 
     83 O          -0.8528  -28.4866  -49.2206 O.2       14 UNK        -0.5000 
     84 N          -1.1813  -26.2550  -49.4371 N.am      15 UNK        -0.5000 
     85 CA         -1.5528  -26.2571  -50.8494 C.3       15 UNK         0.1400 
     86 CB         -1.3393  -24.8532  -51.4327 C.3       15 UNK        -0.1800 
     87 C          -3.0090  -26.6987  -51.0534 C.2       15 UNK         0.5000 
     88 O          -3.8900  -26.2932  -50.2909 O.2       15 UNK        -0.5000 
     89 N          -3.2433  -27.4789  -52.1166 N.am      16 UNK        -0.5000 
     90 CA         -4.5684  -27.9088  -52.5623 C.3       16 UNK         0.1400 
     91 CB         -4.4183  -28.8774  -53.7453 C.3       16 UNK        -0.1800 
     92 C          -5.4349  -26.6977  -52.9489 C.2       16 UNK         0.5000 
     93 O          -5.0182  -25.8977  -53.7894 O.2       16 UNK        -0.5000 
     94 N          -6.5890  -26.5592  -52.2819 N.am      17 UNK        -0.5000 
     95 CA         -7.5507  -25.4546  -52.4025 C.3       17 UNK         0.1400 
     96 CB         -8.2406  -25.4945  -53.7826 C.3       17 UNK        -0.1800 
     97 C          -6.9590  -24.0612  -52.0803 C.2       17 UNK         0.5000 
     98 O          -7.5069  -23.0546  -52.5299 O.2       17 UNK        -0.5000 
     99 N          -5.8511  -24.0295  -51.3202 N.am      18 UNK        -0.5000 
    100 CA        -5.0575  -22.8516  -50.9503 C.3       18 UNK         0.1400 
    101 CB        -5.8677  -21.9249  -50.0201 C.3       18 UNK        -0.1800 
    102 C         -4.4427  -22.1028  -52.1562 C.2       18 UNK         0.5000 
    103 O         -4.1741  -20.9028  -52.0654 O.2       18 UNK        -0.5000 
    104 N         -4.2334  -22.8205  -53.2684 N.am      19 UNK        -0.5000 
    105 CA        -3.7012  -22.2886  -54.5204 C.3       19 UNK         0.1400 
    106 CB        -3.8355  -23.3784  -55.5966 C.3       19 UNK        -0.1800 
    107 C         -2.2288  -21.8263  -54.4028 C.2       19 UNK         0.5000 
    108 O         -1.4900  -22.3710  -53.5840 O.2       19 UNK        -0.5000 
    109 N         -1.7563  -20.8836  -55.2305 N.am      20 UNK        -0.5000 
    110 CA        -2.5087  -20.1169  -56.2270 C.3       20 UNK         0.1400 
    111 CB        -1.5611  -19.7359  -57.3745 C.3       20 UNK        -0.1800 
    112 C         -3.1467  -18.8504  -55.6300 C.2       20 UNK         0.5000 
    113 O         -4.2236  -18.4549  -56.0761 O.2       20 UNK        -0.5000 
    114 N         -2.4769  -18.2441  -54.6389 N.am      21 UNK        -0.5000 
    115 CA        -2.7865  -16.9213  -54.0847 C.3       21 UNK         0.1400 
    116 CB        -1.7182  -16.5509  -53.0488 C.3       21 UNK        -0.1800 
    117 C         -4.1927  -16.7804  -53.4740 C.2       21 UNK         0.5000 
    118 O         -4.7924  -15.7105  -53.5914 O.2       21 UNK        -0.5000 
    119 N         -4.6946  -17.8594  -52.8662 N.am      22 UNK        -0.5000 
    120 CA        -6.0512  -17.9618  -52.3102 C.3       22 UNK         0.1400 
    121 C         -6.9284  -18.9907  -53.0838 C.2       22 UNK         0.5000 
    122 N         -6.5679  -19.3939  -54.2981 N.am      22 UNK        -0.7600 
    123 O         -7.9771  -19.4042  -52.5975 O.2       22 UNK        -0.5000 
    124 C124       -6.0172  -18.2220  -50.7817 C.3       23 UNK        -0.0398 
    125 S125       -5.3983  -16.7842  -49.8412 S.3       23 UNK        -0.2404 
    126 C126       -4.3147  -17.5714  -48.6093 C.3       23 UNK        -0.0205 
    127 H127       -0.0525  -11.9464  -44.8208 H         1 UNK         0.0600 
    128 H128        0.5370  -13.4803  -45.4574 H         1 UNK         0.0600 
    129 H129       -1.1650  -13.0317  -45.6522 H         1 UNK         0.0600 
    130 H130        1.2002  -13.5759  -47.6304 H         1 UNK         0.3000 
    131 H131        0.4513  -11.5611  -49.6076 H         1 UNK         0.0600 
    132 H132        1.7808  -12.9643  -51.1684 H         1 UNK         0.0800 
    133 H133        2.3059  -13.9875  -49.8615 H         1 UNK         0.0800 
    134 H134        0.3694  -15.4453  -48.3280 H         1 UNK         0.0800 
    135 H135        1.3562  -16.1553  -49.5823 H         1 UNK         0.0800 
    136 H136       -2.2826  -15.7647  -48.6654 H         1 UNK         0.1150 
    137 H137       -3.1963  -19.8312  -49.6658 H         1 UNK         0.1150 
    138 H138        0.7389  -18.2827  -50.3599 H         1 UNK         0.1150 
    139 H139       -1.4939  -21.3322  -50.3334 H         1 UNK         0.0800 
    140 H140       -0.6820  -20.5478  -51.6616 H         1 UNK         0.0800 
    141 H141       -0.0382  -20.0829  -47.8915 H         1 UNK         0.0800 
    142 H142        1.6429  -20.4765  -47.7595 H         1 UNK         0.0800 
    143 H143        1.0637  -22.9219  -47.6114 H         1 UNK         0.0600 
    144 H144        0.7033  -21.0004  -45.5726 H         1 UNK         0.3000 
    145 H145        0.1148  -23.2941  -42.8701 H         1 UNK         0.0600 
    146 H146        2.0197  -21.9881  -41.9979 H         1 UNK         0.0600 
    147 H147        2.5812  -23.0773  -43.2568 H         1 UNK         0.0600 
    148 H148        2.3798  -21.3639  -43.6058 H         1 UNK         0.0600 
    149 H149        0.1678  -20.4600  -42.9053 H         1 UNK         0.3000 
    150 H150       -3.3395  -19.9520  -43.5703 H         1 UNK         0.0600 
    151 H151       -3.0561  -20.3701  -41.1310 H         1 UNK         0.0600 
    152 H152       -3.0330  -18.6476  -41.4805 H         1 UNK         0.0600 
    153 H153       -1.5279  -19.4992  -41.1411 H         1 UNK         0.0600 
    154 H154       -1.2948  -18.0456  -43.1942 H         1 UNK         0.3000 
    155 H155       -0.2800  -17.7486  -46.6323 H         1 UNK         0.0600 
    156 H156       -1.6539  -15.8530  -44.6544 H         1 UNK         0.0600 
    157 H157       -2.3503  -16.3590  -46.1834 H         1 UNK         0.0600 
    158 H158       -0.8623  -15.4304  -46.1720 H         1 UNK         0.0600 
    159 H159        0.6474  -16.5005  -44.2224 H         1 UNK         0.3000 
    160 H160        3.2314  -18.8344  -43.4573 H         1 UNK         0.0600 
    161 H161        4.5170  -16.6875  -43.5541 H         1 UNK         0.0600 
    162 H162        3.2665  -15.9772  -44.5736 H         1 UNK         0.0600 
    163 H163        4.2113  -17.3379  -45.1575 H         1 UNK         0.0600 
    164 H164        2.2425  -16.3697  -42.2998 H         1 UNK         0.3000 
    165 H165       -0.0093  -17.9246  -40.0061 H         1 UNK         0.0600 
    166 H166        1.4580  -16.9006  -38.2912 H         1 UNK         0.0600 
    167 H167        2.2101  -18.3520  -38.9329 H         1 UNK         0.0600 
    168 H168        2.7782  -16.7701  -39.4542 H         1 UNK         0.0600 
    169 H169        0.9498  -15.2585  -40.1728 H         1 UNK         0.3000 
    170 H170       -0.9412  -14.0551  -42.8552 H         1 UNK         0.0600 
    171 H171       -2.7796  -14.1585  -41.1640 H         1 UNK         0.0600 
    172 H172       -1.6640  -13.6462  -39.9033 H         1 UNK         0.0600 
    173 H173       -2.0645  -12.5563  -41.2320 H         1 UNK         0.0600 
    174 H174        0.4249  -12.6426  -40.8267 H         1 UNK         0.3000 
    175 H175        2.4064  -11.6647  -41.3119 H         1 UNK         0.0600 
    176 H176        4.1054  -14.2099  -41.0266 H         1 UNK         0.0600 
    177 H177        4.4698  -12.6444  -40.3005 H         1 UNK         0.0600 
    178 H178        3.0509  -13.5414  -39.7868 H         1 UNK         0.0600 
    179 H179        4.5940  -12.6816  -42.8838 H         1 UNK         0.3000 
    180 H180        5.2088  -10.7890  -44.6567 H         1 UNK         0.0600 
    181 H181        3.8511  -13.2414  -45.9463 H         1 UNK         0.0600 
    182 H182        5.2530  -13.2863  -44.8831 H         1 UNK         0.0600 
    183 H183        5.3890  -12.5646  -46.4745 H         1 UNK         0.0600 
    184 H184        2.6884  -10.5003  -46.0328 H         1 UNK         0.3000 
    185 H185        2.8629   -8.3253  -47.5639 H         1 UNK         0.0600 
    186 H186        4.8022   -7.7602  -48.9672 H         1 UNK         0.0600 
    187 H187        4.7144   -9.3017  -49.8047 H         1 UNK         0.0600 
    188 H188        3.4250   -8.1149  -49.9974 H         1 UNK         0.0600 
    189 H189        1.3902   -9.8823  -48.1650 H         1 UNK         0.3000 
    190 H190       -1.9354  -21.2378  -46.5072 H         1 UNK         0.3000 
    191 H191       -3.6869  -22.4297  -48.3325 H         1 UNK         0.0600 
    192 H192       -4.2488  -21.3788  -45.5124 H         1 UNK         0.0600 
    193 H193       -5.4659  -21.6661  -46.7509 H         1 UNK         0.0600 
    194 H194       -4.2471  -20.4242  -46.9924 H         1 UNK         0.0600 
    195 H195       -2.5404  -23.6613  -45.2052 H         1 UNK         0.3000 
    196 H196       -4.2869  -25.9671  -45.1454 H         1 UNK         0.0600 
    197 H197       -2.7776  -26.6902  -43.2972 H         1 UNK         0.0600 
    198 H198       -3.2903  -25.0225  -43.0832 H         1 UNK         0.0600 
    199 H199       -1.6671  -25.3764  -43.6683 H         1 UNK         0.0600 
    200 H200       -0.9234  -25.3783  -46.2512 H         1 UNK         0.3000 
    201 H201       -0.3439  -28.1241  -46.8154 H         1 UNK         0.0600 
    202 H202        1.4158  -26.5012  -46.2357 H         1 UNK         0.0600 
    203 H203        1.0654  -25.5456  -47.6740 H         1 UNK         0.0600 
    204 H204        1.7319  -27.1675  -47.8305 H         1 UNK         0.0600 
    205 H205       -1.1918  -25.3492  -48.9701 H         1 UNK         0.3000 
    206 H206       -0.8931  -26.9467  -51.3806 H         1 UNK         0.0600 
    207 H207       -1.5606  -24.8404  -52.5004 H         1 UNK         0.0600 
    208 H208       -1.9839  -24.1133  -50.9577 H         1 UNK         0.0600 
    209 H209       -0.3079  -24.5225  -51.3092 H         1 UNK         0.0600 
    210 H210       -2.4706  -27.7363  -52.7129 H         1 UNK         0.3000 
    211 H211       -5.0433  -28.4448  -51.7379 H         1 UNK         0.0600 
    212 H212       -3.9206  -28.4047  -54.5932 H         1 UNK         0.0600 
    213 H213       -5.3931  -29.2251  -54.0896 H         1 UNK         0.0600 
    214 H214       -3.8402  -29.7580  -53.4644 H         1 UNK         0.0600 
    215 H215       -6.8199  -27.2528  -51.5836 H         1 UNK         0.3000 
    216 H216       -8.3163  -25.6349  -51.6466 H         1 UNK         0.0600 
    217 H217       -9.0644  -24.7815  -53.8313 H         1 UNK         0.0600 
    218 H218       -8.6565  -26.4809  -53.9878 H         1 UNK         0.0600 
    219 H219       -7.5478  -25.2480  -54.5880 H         1 UNK         0.0600 
    220 H220       -5.4715  -24.9142  -51.0012 H         1 UNK         0.3000 
    221 H221       -4.2121  -23.2412  -50.3838 H         1 UNK         0.0600 
    222 H222       -5.2336  -21.1533  -49.5862 H         1 UNK         0.0600 
    223 H223       -6.6757  -21.4224  -50.5527 H         1 UNK         0.0600 
    224 H224       -6.3055  -22.4825  -49.1922 H         1 UNK         0.0600 
    225 H225       -4.4756  -23.8039  -53.2674 H         1 UNK         0.3000 
    226 H226       -4.3348  -21.4424  -54.7871 H         1 UNK         0.0600 
    227 H227       -3.4712  -23.0375  -56.5657 H         1 UNK         0.0600 
    228 H228       -3.2657  -24.2703  -55.3323 H         1 UNK         0.0600 
    229 H229       -4.8763  -23.6760  -55.7278 H         1 UNK         0.0600 
    230 H230       -0.7768  -20.6523  -55.1590 H         1 UNK         0.3000 
    231 H231       -3.3042  -20.7225  -56.6615 H         1 UNK         0.0600 
    232 H232       -1.1432  -20.6232  -57.8507 H         1 UNK         0.0600 
    233 H233       -0.7309  -19.1190  -57.0279 H         1 UNK         0.0600 
    234 H234       -2.0881  -19.1729  -58.1462 H         1 UNK         0.0600 
    235 H235       -1.6253  -18.6732  -54.3096 H         1 UNK         0.3000 
    236 H236       -2.7203  -16.2057  -54.9067 H         1 UNK         0.0600 
    237 H237       -0.7197  -16.5399  -53.4858 H         1 UNK         0.0600 
    238 H238       -1.9026  -15.5599  -52.6322 H         1 UNK         0.0600 
    239 H239       -1.7178  -17.2571  -52.2202 H         1 UNK         0.0600 
    240 H240       -4.1438  -18.7074  -52.8162 H         1 UNK         0.3000 
    241 H241       -6.5790  -17.0182  -52.4569 H         1 UNK         0.0600 
    242 H242       -5.7562  -19.0015  -54.7584 H         1 UNK         0.3800 
    243 H243       -7.1551  -20.0499  -54.7873 H         1 UNK         0.3800 
    244 H244       -7.0121  -18.4492  -50.3959 H         1 UNK         0.0800 
    245 H245       -5.4000  -19.0924  -50.5701 H         1 UNK         0.0800 
    246 H246       -4.2839  -16.9396  -47.7208 H         1 UNK         0.0800 
    247 H247       -4.7479  -18.5183  -48.2865 H         1 UNK         0.0800 
@<TRIPOS>BOND
     1    1    2 1    
     2    1  127 1    
     3    1  128 1    
     4    1  129 1    
     5    2    3 2    
     6    2    4 am   BACKBONE|DICT|INTERRES
     7    4    5 1    
     8    4  130 1    
     9    5    6 1    
    10    5   65 1    
    11    5  131 1    
    12    6    7 1    
    13    6  132 1    
    14    6  133 1    
    15    7    8 1    
    16    8    9 1    
    17    8  134 1    
    18    8  135 1    
    19    9   10 ar   
    20    9   14 ar   
    21   10   11 ar   
    22   10  136 1    
    23   11   12 ar   
    24   11  126 1    
    25   12   13 ar   
    26   12  137 1    
    27   13   14 ar   
    28   13   15 1    
    29   14  138 1    
    30   15   16 1    
    31   15  139 1    
    32   15  140 1    
    33   16   17 1    
    34   17   18 1    
    35   17  141 1    
    36   17  142 1    
    37   18   19 1    
    38   18   67 1    
    39   18  143 1    
    40   19   20 am   BACKBONE|DICT|INTERRES
    41   19  144 1    
    42   20   21 2    
    43   20   22 1    
    44   22   23 1    
    45   22   24 1    
    46   22  145 1    
    47   23  146 1    
    48   23  147 1    
    49   23  148 1    
    50   24   25 am   BACKBONE|DICT|INTERRES
    51   24  149 1    
    52   25   26 2    
    53   25   27 1    
    54   27   28 1    
    55   27   29 1    
    56   27  150 1    
    57   28  151 1    
    58   28  152 1    
    59   28  153 1    
    60   29   30 am   BACKBONE|DICT|INTERRES
    61   29  154 1    
    62   30   31 2    
    63   30   32 1    
    64   32   33 1    
    65   32   34 1    
    66   32  155 1    
    67   33  156 1    
    68   33  157 1    
    69   33  158 1    
    70   34   35 am   BACKBONE|DICT|INTERRES
    71   34  159 1    
    72   35   36 2    
    73   35   37 1    
    74   37   38 1    
    75   37   39 1    
    76   37  160 1    
    77   38  161 1    
    78   38  162 1    
    79   38  163 1    
    80   39   40 am   BACKBONE|DICT|INTERRES
    81   39  164 1    
    82   40   41 2    
    83   40   42 1    
    84   42   43 1    
    85   42   44 1    
    86   42  165 1    
    87   43  166 1    
    88   43  167 1    
    89   43  168 1    
    90   44   45 am   BACKBONE|DICT|INTERRES
    91   44  169 1    
    92   45   46 2    
    93   45   47 1    
    94   47   48 1    
    95   47   49 1    
    96   47  170 1    
    97   48  171 1    
    98   48  172 1    
    99   48  173 1    
   100   49   50 am   BACKBONE|DICT|INTERRES
   101   49  174 1    
   102   50   51 2    
   103   50   52 1    
   104   52   53 1    
   105   52   54 1    
   106   52  175 1    
   107   53  176 1    
   108   53  177 1    
   109   53  178 1    
   110   54   55 am   BACKBONE|DICT|INTERRES
   111   54  179 1    
   112   55   56 2    
   113   55   57 1    
   114   57   58 1    
   115   57   59 1    
   116   57  180 1    
   117   58  181 1    
   118   58  182 1    
   119   58  183 1    
   120   59   60 am   BACKBONE|DICT|INTERRES
   121   59  184 1    
   122   60   61 2    
   123   60   62 1    
   124   62   63 1    
   125   62   64 1    
   126   62  185 1    
   127   63  186 1    
   128   63  187 1    
   129   63  188 1    
   130   64   65 am   BACKBONE|DICT|INTERRES
   131   64  189 1    
   132   65   66 2    
   133   67   68 2    
   134   67   69 am   BACKBONE|DICT|INTERRES
   135   69   70 1    
   136   69  190 1    
   137   70   71 1    
   138   70   72 1    
   139   70  191 1    
   140   71  192 1    
   141   71  193 1    
   142   71  194 1    
   143   72   73 2    
   144   72   74 am   BACKBONE|DICT|INTERRES
   145   74   75 1    
   146   74  195 1    
   147   75   76 1    
   148   75   77 1    
   149   75  196 1    
   150   76  197 1    
   151   76  198 1    
   152   76  199 1    
   153   77   78 2    
   154   77   79 am   BACKBONE|DICT|INTERRES
   155   79   80 1    
   156   79  200 1    
   157   80   81 1    
   158   80   82 1    
   159   80  201 1    
   160   81  202 1    
   161   81  203 1    
   162   81  204 1    
   163   82   83 2    
   164   82   84 am   BACKBONE|DICT|INTERRES
   165   84   85 1    
   166   84  205 1    
   167   85   86 1    
   168   85   87 1    
   169   85  206 1    
   170   86  207 1    
   171   86  208 1    
   172   86  209 1    
   173   87   88 2    
   174   87   89 am   BACKBONE|DICT|INTERRES
   175   89   90 1    
   176   89  210 1    
   177   90   91 1    
   178   90   92 1    
   179   90  211 1    
   180   91  212 1    
   181   91  213 1    
   182   91  214 1    
   183   92   93 2    
   184   92   94 am   BACKBONE|DICT|INTERRES
   185   94   95 1    
   186   94  215 1    
   187   95   96 1    
   188   95   97 1    
   189   95  216 1    
   190   96  217 1    
   191   96  218 1    
   192   96  219 1    
   193   97   98 2    
   194   97   99 am   BACKBONE|DICT|INTERRES
   195   99  100 1    
   196   99  220 1    
   197  100  101 1    
   198  100  102 1    
   199  100  221 1    
   200  101  222 1    
   201  101  223 1    
   202  101  224 1    
   203  102  103 2    
   204  102  104 am   BACKBONE|DICT|INTERRES
   205  104  105 1    
   206  104  225 1    
   207  105  106 1    
   208  105  107 1    
   209  105  226 1    
   210  106  227 1    
   211  106  228 1    
   212  106  229 1    
   213  107  108 2    
   214  107  109 am   BACKBONE|DICT|INTERRES
   215  109  110 1    
   216  109  230 1    
   217  110  111 1    
   218  110  112 1    
   219  110  231 1    
   220  111  232 1    
   221  111  233 1    
   222  111  234 1    
   223  112  113 2    
   224  112  114 am   BACKBONE|DICT|INTERRES
   225  114  115 1    
   226  114  235 1    
   227  115  116 1    
   228  115  117 1    
   229  115  236 1    
   230  116  237 1    
   231  116  238 1    
   232  116  239 1    
   233  117  118 2    
   234  117  119 am   BACKBONE|DICT|INTERRES
   235  119  120 1    
   236  119  240 1    
   237  120  121 1    
   238  120  124 1    
   239  120  241 1    
   240  121  122 am   BACKBONE|DICT|INTERRES
   241  121  123 2    
   242  122  242 1    
   243  122  243 1    
   244  124  125 1    
   245  124  244 1    
   246  124  245 1    
   247  125  126 1    
   248  126  246 1    
   249  126  247 1    
@<TRIPOS>SUBSTRUCTURE
     1 UNK         1 GROUP             0       ****    0 ROOT    
