@<TRIPOS>MOLECULE
3R540
247   249    1
SMALL
USER_CHARGES


@<TRIPOS>ATOM
      1 CA          3.4096   -9.7512  -49.1073 C.3       0 UNK        -0.1800 
      2 C           2.7682  -11.1313  -49.0721 C.2       0 UNK         0.5000 
      3 O           3.3942  -12.1090  -49.4816 O.2       0 UNK        -0.5000 
      4 N           1.5258  -11.2143  -48.5858 N.am      1 UNK        -0.5000 
      5 CA          0.7557  -12.4515  -48.4570 C.3       1 UNK         0.1400 
      6 C6          0.1133  -12.9010  -49.7982 C.3       23 UNK        -0.0398 
      7 S7         -0.1889  -14.7011  -49.8484 S.3       23 UNK        -0.2404 
      8 C8          1.0408  -15.2193  -51.0843 C.3       23 UNK        -0.0205 
      9 C9          1.0154  -16.7249  -51.2884 C.ar      23 UNK        -0.0193 
     10 C10         0.0274  -17.3077  -52.0869 C.ar      23 UNK        -0.1150 
     11 C11        -0.0089  -18.6923  -52.2787 C.ar      23 UNK        -0.0193 
     12 C12         0.9566  -19.4941  -51.6644 C.ar      23 UNK        -0.1150 
     13 C13         1.9395  -18.9244  -50.8484 C.ar      23 UNK        -0.0193 
     14 C14         1.9707  -17.5381  -50.6731 C.ar      23 UNK        -0.1150 
     15 C15         2.9373  -19.8145  -50.1196 C.3       23 UNK        -0.0205 
     16 S16         2.6899  -19.8096  -48.3104 S.3       23 UNK        -0.2404 
     17 C17         0.9327  -20.2696  -48.1478 C.3       23 UNK        -0.0398 
     18 CA          0.7216  -21.7771  -47.8817 C.3       11 UNK         0.1400 
     19 N           1.1395  -22.1388  -46.5301 N.am      11 UNK        -0.5000 
     20 C           1.3379  -23.3806  -46.0763 C.2       10 UNK         0.5000 
     21 O           1.2351  -24.3887  -46.7782 O.2       10 UNK        -0.5000 
     22 CA          1.7271  -23.4934  -44.5860 C.3       10 UNK         0.1400 
     23 CB          2.2483  -24.8907  -44.1913 C.3       10 UNK        -0.1800 
     24 N           2.6625  -22.4418  -44.1708 N.am      10 UNK        -0.5000 
     25 C           3.9046  -22.2184  -44.6271 C.2       9 UNK         0.5000 
     26 O           4.4858  -22.9542  -45.4258 O.2       9 UNK        -0.5000 
     27 CA          4.6246  -20.9498  -44.1221 C.3       9 UNK         0.1400 
     28 CB          4.7203  -19.9045  -45.2430 C.3       9 UNK        -0.1800 
     29 N           3.9793  -20.3273  -42.9651 N.am      9 UNK        -0.5000 
     30 C           4.0599  -20.7779  -41.7068 C.2       8 UNK         0.5000 
     31 O           4.7336  -21.7523  -41.3701 O.2       8 UNK        -0.5000 
     32 CA          3.2204  -20.0303  -40.6532 C.3       8 UNK         0.1400 
     33 CB          3.9706  -18.7929  -40.1379 C.3       8 UNK        -0.1800 
     34 N           1.9010  -19.6321  -41.1513 N.am      8 UNK        -0.5000 
     35 C           0.9357  -20.4901  -41.5130 C.2       7 UNK         0.5000 
     36 O           1.0470  -21.7141  -41.4438 O.2       7 UNK        -0.5000 
     37 CA         -0.3569  -19.8866  -42.0881 C.3       7 UNK         0.1400 
     38 CB         -1.2752  -19.3866  -40.9635 C.3       7 UNK        -0.1800 
     39 N          -0.1013  -18.8065  -43.0414 N.am      7 UNK        -0.5000 
     40 C           0.5072  -18.9710  -44.2247 C.2       6 UNK         0.5000 
     41 O           0.8828  -20.0616  -44.6505 O.2       6 UNK        -0.5000 
     42 CA          0.7830  -17.7066  -45.0572 C.3       6 UNK         0.1400 
     43 CB         -0.4703  -17.2611  -45.8279 C.3       6 UNK        -0.1800 
     44 N           1.2768  -16.5983  -44.2441 N.am      6 UNK        -0.5000 
     45 C           2.4109  -16.6147  -43.5304 C.2       5 UNK         0.5000 
     46 O           3.2004  -17.5584  -43.5129 O.2       5 UNK        -0.5000 
     47 CA          2.6732  -15.3905  -42.6392 C.3       5 UNK         0.1400 
     48 CB          3.2115  -14.2109  -43.4639 C.3       5 UNK        -0.1800 
     49 N           1.4688  -14.9823  -41.9158 N.am      5 UNK        -0.5000 
     50 C           0.8962  -15.6979  -40.9372 C.2       4 UNK         0.5000 
     51 O           1.3413  -16.7670  -40.5198 O.2       4 UNK        -0.5000 
     52 CA         -0.4146  -15.1408  -40.3533 C.3       4 UNK         0.1400 
     53 CB         -0.1241  -14.0650  -39.2961 C.3       4 UNK        -0.1800 
     54 N          -1.2978  -14.5873  -41.3809 N.am      4 UNK        -0.5000 
     55 C          -1.9062  -15.3190  -42.3248 C.2       3 UNK         0.5000 
     56 O          -1.7996  -16.5405  -42.4187 O.2       3 UNK        -0.5000 
     57 CA         -2.7349  -14.5504  -43.3694 C.3       3 UNK         0.1400 
     58 CB         -4.1480  -14.2681  -42.8381 C.3       3 UNK        -0.1800 
     59 N          -2.1162  -13.2952  -43.8079 N.am      3 UNK        -0.5000 
     60 C          -0.9165  -13.2064  -44.3963 C.2       2 UNK         0.5000 
     61 O          -0.1540  -14.1633  -44.5463 O.2       2 UNK        -0.5000 
     62 CA         -0.4754  -11.8116  -44.8729 C.3       2 UNK         0.1400 
     63 CB          0.3976  -11.1334  -43.8060 C.3       2 UNK        -0.1800 
     64 N           0.2803  -11.9031  -46.1229 N.am      2 UNK        -0.5000 
     65 C          -0.2440  -12.2827  -47.2971 C.2       1 UNK         0.5000 
     66 O          -1.4520  -12.4492  -47.4764 O.2       1 UNK        -0.5000 
     67 C          -0.7615  -22.1190  -48.1076 C.2       11 UNK         0.5000 
     68 O          -1.5715  -22.0020  -47.1826 O.2       11 UNK        -0.5000 
     69 N          -1.1053  -22.4319  -49.3661 N.am      12 UNK        -0.5000 
     70 CA         -2.4731  -22.6707  -49.8389 C.3       12 UNK         0.1400 
     71 CB         -2.4501  -22.9943  -51.3387 C.3       12 UNK        -0.1800 
     72 C          -3.4355  -21.5031  -49.5542 C.2       12 UNK         0.5000 
     73 O          -4.5841  -21.7496  -49.1950 O.2       12 UNK        -0.5000 
     74 N          -2.9216  -20.2658  -49.6155 N.am      13 UNK        -0.5000 
     75 CA         -3.6336  -19.0299  -49.2775 C.3       13 UNK         0.1400 
     76 CB         -2.6916  -17.8376  -49.5094 C.3       13 UNK        -0.1800 
     77 C          -4.2111  -18.9863  -47.8453 C.2       13 UNK         0.5000 
     78 O          -5.1728  -18.2534  -47.6147 O.2       13 UNK        -0.5000 
     79 N          -3.6396  -19.7733  -46.9228 N.am      14 UNK        -0.5000 
     80 CA         -4.1633  -19.9813  -45.5748 C.3       14 UNK         0.1400 
     81 CB         -3.0306  -19.8008  -44.5548 C.3       14 UNK        -0.1800 
     82 C          -4.7935  -21.3765  -45.4343 C.2       14 UNK         0.5000 
     83 O          -5.8804  -21.4915  -44.8680 O.2       14 UNK        -0.5000 
     84 N          -4.1011  -22.4116  -45.9321 N.am      15 UNK        -0.5000 
     85 CA         -4.4652  -23.8175  -45.7444 C.3       15 UNK         0.1400 
     86 CB         -3.2637  -24.7005  -46.1164 C.3       15 UNK        -0.1800 
     87 C          -5.7225  -24.2589  -46.5177 C.2       15 UNK         0.5000 
     88 O          -6.4888  -25.0731  -46.0009 O.2       15 UNK        -0.5000 
     89 N          -5.9074  -23.7295  -47.7325 N.am      16 UNK        -0.5000 
     90 CA         -7.0207  -24.0436  -48.6316 C.3       16 UNK         0.1400 
     91 CB         -6.4438  -24.5738  -49.9563 C.3       16 UNK        -0.1800 
     92 C          -7.9187  -22.8214  -48.8982 C.2       16 UNK         0.5000 
     93 O          -8.9866  -22.9847  -49.4895 O.2       16 UNK        -0.5000 
     94 N          -7.4645  -21.6227  -48.5029 N.am      17 UNK        -0.5000 
     95 CA         -8.0408  -20.2869  -48.7147 C.3       17 UNK         0.1400 
     96 CB         -9.4666  -20.1753  -48.1421 C.3       17 UNK        -0.1800 
     97 C          -7.9766  -19.8049  -50.1788 C.2       17 UNK         0.5000 
     98 O          -7.6562  -18.6401  -50.4191 O.2       17 UNK        -0.5000 
     99 N          -8.2576  -20.7033  -51.1293 N.am      18 UNK        -0.5000 
    100 CA        -8.0479  -20.5216  -52.5641 C.3       18 UNK         0.1400 
    101 CB        -8.7459  -21.6730  -53.3055 C.3       18 UNK        -0.1800 
    102 C         -6.5487  -20.4882  -52.9205 C.2       18 UNK         0.5000 
    103 O         -5.7230  -20.9962  -52.1594 O.2       18 UNK        -0.5000 
    104 N         -6.2294  -19.9167  -54.0904 N.am      19 UNK        -0.5000 
    105 CA        -4.8665  -19.8210  -54.6217 C.3       19 UNK         0.1400 
    106 CB        -4.8746  -18.9988  -55.9202 C.3       19 UNK        -0.1800 
    107 C         -4.2170  -21.1978  -54.8479 C.2       19 UNK         0.5000 
    108 O         -3.0956  -21.4171  -54.3926 O.2       19 UNK        -0.5000 
    109 N         -4.9590  -22.1004  -55.5102 N.am      20 UNK        -0.5000 
    110 CA        -4.6411  -23.5100  -55.7652 C.3       20 UNK         0.1400 
    111 CB        -4.9468  -24.3465  -54.5046 C.3       20 UNK        -0.1800 
    112 C         -3.2109  -23.7168  -56.3085 C.2       20 UNK         0.5000 
    113 O         -2.9872  -23.5364  -57.5064 O.2       20 UNK        -0.5000 
    114 N         -2.2694  -24.0403  -55.4112 N.am      21 UNK        -0.5000 
    115 CA        -0.8415  -24.2244  -55.6705 C.3       21 UNK         0.1400 
    116 CB        -0.1477  -24.6096  -54.3545 C.3       21 UNK        -0.1800 
    117 C         -0.1376  -23.0087  -56.3077 C.2       21 UNK         0.5000 
    118 O          0.7996  -23.2117  -57.0812 O.2       21 UNK        -0.5000 
    119 N         -0.5955  -21.7866  -55.9970 N.am      22 UNK        -0.5000 
    120 CA        -0.1197  -20.5433  -56.6314 C.3       22 UNK         0.1400 
    121 C         -1.0098  -20.0570  -57.8154 C.2       22 UNK         0.5000 
    122 N         -2.0265  -20.7985  -58.2423 N.am      22 UNK        -0.7600 
    123 O         -0.7579  -18.9968  -58.3819 O.2       22 UNK        -0.5000 
    124 C124        0.2079  -19.4320  -55.5957 C.3       23 UNK        -0.0398 
    125 S125       -1.2372  -18.6621  -54.7883 S.3       23 UNK        -0.2404 
    126 C126       -1.1202  -19.3313  -53.1000 C.3       23 UNK        -0.0205 
    127 H127        2.7428   -8.9835  -48.7138 H         1 UNK         0.0600 
    128 H128        3.6683   -9.4840  -50.1318 H         1 UNK         0.0600 
    129 H129        4.3224   -9.7464  -48.5116 H         1 UNK         0.0600 
    130 H130        1.0595  -10.3808  -48.2526 H         1 UNK         0.3000 
    131 H131        1.4480  -13.2328  -48.1339 H         1 UNK         0.0600 
    132 H132       -0.8198  -12.3711  -49.9959 H         1 UNK         0.0800 
    133 H133        0.7680  -12.6422  -50.6310 H         1 UNK         0.0800 
    134 H134        2.0330  -14.8942  -50.7661 H         1 UNK         0.0800 
    135 H135        0.8384  -14.7193  -52.0327 H         1 UNK         0.0800 
    136 H136       -0.7235  -16.6828  -52.5497 H         1 UNK         0.1150 
    137 H137        0.9260  -20.5663  -51.7972 H         1 UNK         0.1150 
    138 H138        2.7256  -17.0971  -50.0371 H         1 UNK         0.1150 
    139 H139        2.8775  -20.8420  -50.4816 H         1 UNK         0.0800 
    140 H140        3.9493  -19.4719  -50.3388 H         1 UNK         0.0800 
    141 H141        0.3894  -19.9423  -49.0324 H         1 UNK         0.0800 
    142 H142        0.5100  -19.6853  -47.3321 H         1 UNK         0.0800 
    143 H143        1.3191  -22.3526  -48.5921 H         1 UNK         0.0600 
    144 H144        1.1844  -21.3738  -45.8596 H         1 UNK         0.3000 
    145 H145        0.8098  -23.3158  -44.0228 H         1 UNK         0.0600 
    146 H146        2.5016  -24.9307  -43.1319 H         1 UNK         0.0600 
    147 H147        1.4908  -25.6540  -44.3726 H         1 UNK         0.0600 
    148 H148        3.1353  -25.1706  -44.7600 H         1 UNK         0.0600 
    149 H149        2.2763  -21.7532  -43.5384 H         1 UNK         0.3000 
    150 H150        5.6389  -21.2413  -43.8420 H         1 UNK         0.0600 
    151 H151        5.1849  -20.3215  -46.1373 H         1 UNK         0.0600 
    152 H152        5.3193  -19.0480  -44.9333 H         1 UNK         0.0600 
    153 H153        3.7335  -19.5356  -45.5244 H         1 UNK         0.0600 
    154 H154        3.4562  -19.4747  -43.1455 H         1 UNK         0.3000 
    155 H155        3.0677  -20.7083  -39.8111 H         1 UNK         0.0600 
    156 H156        4.9528  -19.0642  -39.7490 H         1 UNK         0.0600 
    157 H157        3.4228  -18.3093  -39.3289 H         1 UNK         0.0600 
    158 H158        4.1210  -18.0554  -40.9268 H         1 UNK         0.0600 
    159 H159        1.7166  -18.6349  -41.2011 H         1 UNK         0.3000 
    160 H160       -0.8807  -20.6837  -42.6195 H         1 UNK         0.0600 
    161 H161       -0.8311  -18.5512  -40.4218 H         1 UNK         0.0600 
    162 H162       -1.4768  -20.1785  -40.2411 H         1 UNK         0.0600 
    163 H163       -2.2358  -19.0560  -41.3585 H         1 UNK         0.0600 
    164 H164       -0.4443  -17.8853  -42.7852 H         1 UNK         0.3000 
    165 H165        1.5592  -17.9554  -45.7839 H         1 UNK         0.0600 
    166 H166       -0.2333  -16.4667  -46.5363 H         1 UNK         0.0600 
    167 H167       -0.9073  -18.0836  -46.3943 H         1 UNK         0.0600 
    168 H168       -1.2407  -16.8847  -45.1554 H         1 UNK         0.0600 
    169 H169        0.7036  -15.7571  -44.2280 H         1 UNK         0.3000 
    170 H170        3.4335  -15.6664  -41.9054 H         1 UNK         0.0600 
    171 H171        4.1367  -14.4846  -43.9723 H         1 UNK         0.0600 
    172 H172        2.5029  -13.8905  -44.2279 H         1 UNK         0.0600 
    173 H173        3.4316  -13.3530  -42.8286 H         1 UNK         0.0600 
    174 H174        1.0039  -14.1483  -42.2410 H         1 UNK         0.3000 
    175 H175       -0.9374  -15.9659  -39.8647 H         1 UNK         0.0600 
    176 H176        0.5214  -14.4567  -38.5089 H         1 UNK         0.0600 
    177 H177        0.3749  -13.1969  -39.7286 H         1 UNK         0.0600 
    178 H178       -1.0431  -13.7220  -38.8204 H         1 UNK         0.0600 
    179 H179       -1.4354  -13.5875  -41.3808 H         1 UNK         0.3000 
    180 H180       -2.8276  -15.1929  -44.2475 H         1 UNK         0.0600 
    181 H181       -4.6369  -15.1903  -42.5208 H         1 UNK         0.0600 
    182 H182       -4.1300  -13.5941  -41.9808 H         1 UNK         0.0600 
    183 H183       -4.7760  -13.8178  -43.6070 H         1 UNK         0.0600 
    184 H184       -2.6764  -12.4608  -43.7092 H         1 UNK         0.3000 
    185 H185       -1.3608  -11.1966  -45.0471 H         1 UNK         0.0600 
    186 H186       -0.1434  -11.0312  -42.8644 H         1 UNK         0.0600 
    187 H187        1.3048  -11.7034  -43.6029 H         1 UNK         0.0600 
    188 H188        0.6944  -10.1320  -44.1185 H         1 UNK         0.0600 
    189 H189        1.2814  -11.7944  -46.0531 H         1 UNK         0.3000 
    190 H190       -0.3795  -22.5129  -50.0629 H         1 UNK         0.3000 
    191 H191       -2.8579  -23.5448  -49.3110 H         1 UNK         0.0600 
    192 H192       -1.9985  -22.1902  -51.9192 H         1 UNK         0.0600 
    193 H193       -3.4634  -23.1354  -51.7153 H         1 UNK         0.0600 
    194 H194       -1.8955  -23.9108  -51.5396 H         1 UNK         0.0600 
    195 H195       -1.9638  -20.1638  -49.9116 H         1 UNK         0.3000 
    196 H196       -4.4774  -18.9426  -49.9656 H         1 UNK         0.0600 
    197 H197       -3.1739  -16.8961  -49.2433 H         1 UNK         0.0600 
    198 H198       -2.4028  -17.7617  -50.5567 H         1 UNK         0.0600 
    199 H199       -1.7810  -17.9178  -48.9142 H         1 UNK         0.0600 
    200 H200       -2.8701  -20.3696  -47.2017 H         1 UNK         0.3000 
    201 H201       -4.9378  -19.2477  -45.3415 H         1 UNK         0.0600 
    202 H202       -3.3696  -20.0322  -43.5443 H         1 UNK         0.0600 
    203 H203       -2.1812  -20.4485  -44.7754 H         1 UNK         0.0600 
    204 H204       -2.6771  -18.7707  -44.5446 H         1 UNK         0.0600 
    205 H205       -3.1997  -22.2402  -46.3711 H         1 UNK         0.3000 
    206 H206       -4.6695  -23.9665  -44.6819 H         1 UNK         0.0600 
    207 H207       -2.3876  -24.4478  -45.5186 H         1 UNK         0.0600 
    208 H208       -3.4836  -25.7545  -45.9421 H         1 UNK         0.0600 
    209 H209       -2.9924  -24.5912  -47.1662 H         1 UNK         0.0600 
    210 H210       -5.2380  -23.0521  -48.0897 H         1 UNK         0.3000 
    211 H211       -7.6574  -24.8194  -48.2020 H         1 UNK         0.0600 
    212 H212       -7.2402  -24.8709  -50.6397 H         1 UNK         0.0600 
    213 H213       -5.8151  -25.4487  -49.7908 H         1 UNK         0.0600 
    214 H214       -5.8421  -23.8197  -50.4658 H         1 UNK         0.0600 
    215 H215       -6.5269  -21.6123  -48.1252 H         1 UNK         0.3000 
    216 H216       -7.4114  -19.6092  -48.1377 H         1 UNK         0.0600 
    217 H217       -9.8195  -19.1444  -48.1862 H         1 UNK         0.0600 
    218 H218       -9.4971  -20.4852  -47.0975 H         1 UNK         0.0600 
    219 H219      -10.1813  -20.7845  -48.6956 H         1 UNK         0.0600 
    220 H220       -8.5139  -21.6344  -50.8194 H         1 UNK         0.3000 
    221 H221       -8.5022  -19.5751  -52.8638 H         1 UNK         0.0600 
    222 H222       -8.3193  -22.6403  -53.0353 H         1 UNK         0.0600 
    223 H223       -9.8114  -21.7014  -53.0763 H         1 UNK         0.0600 
    224 H224       -8.6502  -21.5625  -54.3863 H         1 UNK         0.0600 
    225 H225       -6.9644  -19.5261  -54.6620 H         1 UNK         0.3000 
    226 H226       -4.2607  -19.2883  -53.8860 H         1 UNK         0.0600 
    227 H227       -3.8732  -18.9330  -56.3478 H         1 UNK         0.0600 
    228 H228       -5.5233  -19.4406  -56.6772 H         1 UNK         0.0600 
    229 H229       -5.2155  -17.9796  -55.7383 H         1 UNK         0.0600 
    230 H230       -5.8571  -21.7945  -55.8549 H         1 UNK         0.3000 
    231 H231       -5.3177  -23.8454  -56.5526 H         1 UNK         0.0600 
    232 H232       -6.0055  -24.2915  -54.2507 H         1 UNK         0.0600 
    233 H233       -4.3878  -24.0008  -53.6364 H         1 UNK         0.0600 
    234 H234       -4.7070  -25.3991  -54.6604 H         1 UNK         0.0600 
    235 H235       -2.5529  -24.0951  -54.4444 H         1 UNK         0.3000 
    236 H236       -0.7444  -25.0595  -56.3670 H         1 UNK         0.0600 
    237 H237       -0.5750  -25.5194  -53.9326 H         1 UNK         0.0600 
    238 H238        0.9157  -24.7943  -54.5125 H         1 UNK         0.0600 
    239 H239       -0.2360  -23.8183  -53.6089 H         1 UNK         0.0600 
    240 H240       -1.3972  -21.6964  -55.3783 H         1 UNK         0.3000 
    241 H241        0.8364  -20.7561  -57.1122 H         1 UNK         0.0600 
    242 H242       -2.5777  -20.4703  -59.0189 H         1 UNK         0.3800 
    243 H243       -2.2253  -21.7079  -57.8410 H         1 UNK         0.3800 
    244 H244        0.8830  -19.8281  -54.8363 H         1 UNK         0.0800 
    245 H245        0.7673  -18.6325  -56.0838 H         1 UNK         0.0800 
    246 H246       -0.9843  -20.4113  -53.1608 H         1 UNK         0.0800 
    247 H247       -2.0715  -19.1706  -52.5921 H         1 UNK         0.0800 
@<TRIPOS>BOND
     1    1    2 1    
     2    1  127 1    
     3    1  128 1    
     4    1  129 1    
     5    2    3 2    
     6    2    4 am   BACKBONE|DICT|INTERRES
     7    4    5 1    
     8    4  130 1    
     9    5    6 1    
    10    5   65 1    
    11    5  131 1    
    12    6    7 1    
    13    6  132 1    
    14    6  133 1    
    15    7    8 1    
    16    8    9 1    
    17    8  134 1    
    18    8  135 1    
    19    9   10 ar   
    20    9   14 ar   
    21   10   11 ar   
    22   10  136 1    
    23   11   12 ar   
    24   11  126 1    
    25   12   13 ar   
    26   12  137 1    
    27   13   14 ar   
    28   13   15 1    
    29   14  138 1    
    30   15   16 1    
    31   15  139 1    
    32   15  140 1    
    33   16   17 1    
    34   17   18 1    
    35   17  141 1    
    36   17  142 1    
    37   18   19 1    
    38   18   67 1    
    39   18  143 1    
    40   19   20 am   BACKBONE|DICT|INTERRES
    41   19  144 1    
    42   20   21 2    
    43   20   22 1    
    44   22   23 1    
    45   22   24 1    
    46   22  145 1    
    47   23  146 1    
    48   23  147 1    
    49   23  148 1    
    50   24   25 am   BACKBONE|DICT|INTERRES
    51   24  149 1    
    52   25   26 2    
    53   25   27 1    
    54   27   28 1    
    55   27   29 1    
    56   27  150 1    
    57   28  151 1    
    58   28  152 1    
    59   28  153 1    
    60   29   30 am   BACKBONE|DICT|INTERRES
    61   29  154 1    
    62   30   31 2    
    63   30   32 1    
    64   32   33 1    
    65   32   34 1    
    66   32  155 1    
    67   33  156 1    
    68   33  157 1    
    69   33  158 1    
    70   34   35 am   BACKBONE|DICT|INTERRES
    71   34  159 1    
    72   35   36 2    
    73   35   37 1    
    74   37   38 1    
    75   37   39 1    
    76   37  160 1    
    77   38  161 1    
    78   38  162 1    
    79   38  163 1    
    80   39   40 am   BACKBONE|DICT|INTERRES
    81   39  164 1    
    82   40   41 2    
    83   40   42 1    
    84   42   43 1    
    85   42   44 1    
    86   42  165 1    
    87   43  166 1    
    88   43  167 1    
    89   43  168 1    
    90   44   45 am   BACKBONE|DICT|INTERRES
    91   44  169 1    
    92   45   46 2    
    93   45   47 1    
    94   47   48 1    
    95   47   49 1    
    96   47  170 1    
    97   48  171 1    
    98   48  172 1    
    99   48  173 1    
   100   49   50 am   BACKBONE|DICT|INTERRES
   101   49  174 1    
   102   50   51 2    
   103   50   52 1    
   104   52   53 1    
   105   52   54 1    
   106   52  175 1    
   107   53  176 1    
   108   53  177 1    
   109   53  178 1    
   110   54   55 am   BACKBONE|DICT|INTERRES
   111   54  179 1    
   112   55   56 2    
   113   55   57 1    
   114   57   58 1    
   115   57   59 1    
   116   57  180 1    
   117   58  181 1    
   118   58  182 1    
   119   58  183 1    
   120   59   60 am   BACKBONE|DICT|INTERRES
   121   59  184 1    
   122   60   61 2    
   123   60   62 1    
   124   62   63 1    
   125   62   64 1    
   126   62  185 1    
   127   63  186 1    
   128   63  187 1    
   129   63  188 1    
   130   64   65 am   BACKBONE|DICT|INTERRES
   131   64  189 1    
   132   65   66 2    
   133   67   68 2    
   134   67   69 am   BACKBONE|DICT|INTERRES
   135   69   70 1    
   136   69  190 1    
   137   70   71 1    
   138   70   72 1    
   139   70  191 1    
   140   71  192 1    
   141   71  193 1    
   142   71  194 1    
   143   72   73 2    
   144   72   74 am   BACKBONE|DICT|INTERRES
   145   74   75 1    
   146   74  195 1    
   147   75   76 1    
   148   75   77 1    
   149   75  196 1    
   150   76  197 1    
   151   76  198 1    
   152   76  199 1    
   153   77   78 2    
   154   77   79 am   BACKBONE|DICT|INTERRES
   155   79   80 1    
   156   79  200 1    
   157   80   81 1    
   158   80   82 1    
   159   80  201 1    
   160   81  202 1    
   161   81  203 1    
   162   81  204 1    
   163   82   83 2    
   164   82   84 am   BACKBONE|DICT|INTERRES
   165   84   85 1    
   166   84  205 1    
   167   85   86 1    
   168   85   87 1    
   169   85  206 1    
   170   86  207 1    
   171   86  208 1    
   172   86  209 1    
   173   87   88 2    
   174   87   89 am   BACKBONE|DICT|INTERRES
   175   89   90 1    
   176   89  210 1    
   177   90   91 1    
   178   90   92 1    
   179   90  211 1    
   180   91  212 1    
   181   91  213 1    
   182   91  214 1    
   183   92   93 2    
   184   92   94 am   BACKBONE|DICT|INTERRES
   185   94   95 1    
   186   94  215 1    
   187   95   96 1    
   188   95   97 1    
   189   95  216 1    
   190   96  217 1    
   191   96  218 1    
   192   96  219 1    
   193   97   98 2    
   194   97   99 am   BACKBONE|DICT|INTERRES
   195   99  100 1    
   196   99  220 1    
   197  100  101 1    
   198  100  102 1    
   199  100  221 1    
   200  101  222 1    
   201  101  223 1    
   202  101  224 1    
   203  102  103 2    
   204  102  104 am   BACKBONE|DICT|INTERRES
   205  104  105 1    
   206  104  225 1    
   207  105  106 1    
   208  105  107 1    
   209  105  226 1    
   210  106  227 1    
   211  106  228 1    
   212  106  229 1    
   213  107  108 2    
   214  107  109 am   BACKBONE|DICT|INTERRES
   215  109  110 1    
   216  109  230 1    
   217  110  111 1    
   218  110  112 1    
   219  110  231 1    
   220  111  232 1    
   221  111  233 1    
   222  111  234 1    
   223  112  113 2    
   224  112  114 am   BACKBONE|DICT|INTERRES
   225  114  115 1    
   226  114  235 1    
   227  115  116 1    
   228  115  117 1    
   229  115  236 1    
   230  116  237 1    
   231  116  238 1    
   232  116  239 1    
   233  117  118 2    
   234  117  119 am   BACKBONE|DICT|INTERRES
   235  119  120 1    
   236  119  240 1    
   237  120  121 1    
   238  120  124 1    
   239  120  241 1    
   240  121  122 am   BACKBONE|DICT|INTERRES
   241  121  123 2    
   242  122  242 1    
   243  122  243 1    
   244  124  125 1    
   245  124  244 1    
   246  124  245 1    
   247  125  126 1    
   248  126  246 1    
   249  126  247 1    
@<TRIPOS>SUBSTRUCTURE
     1 UNK         1 GROUP             0       ****    0 ROOT    
