@<TRIPOS>MOLECULE
3R540
247   249    1
SMALL
USER_CHARGES


@<TRIPOS>ATOM
      1 CA          5.8514  -13.2632  -46.3938 C.3       0 UNK        -0.1800 
      2 C           4.3326  -13.3375  -46.3745 C.2       0 UNK         0.5000 
      3 O           3.6880  -12.5018  -45.7417 O.2       0 UNK        -0.5000 
      4 N           3.7570  -14.3180  -47.0830 N.am      1 UNK        -0.5000 
      5 CA          2.3179  -14.6200  -47.1585 C.3       1 UNK         0.1400 
      6 C6          2.0506  -15.9279  -47.9421 C.3       23 UNK        -0.0398 
      7 S7          2.7268  -15.9334  -49.6419 S.3       23 UNK        -0.2404 
      8 C8          1.2112  -16.0362  -50.6532 C.3       23 UNK        -0.0205 
      9 C9          0.4532  -17.3396  -50.4332 C.ar      23 UNK        -0.0193 
     10 C10        -0.8727  -17.3212  -49.9886 C.ar      23 UNK        -0.1150 
     11 C11        -1.5658  -18.5143  -49.7575 C.ar      23 UNK        -0.0193 
     12 C12        -0.9051  -19.7322  -49.9488 C.ar      23 UNK        -0.1150 
     13 C13         0.4119  -19.7656  -50.4124 C.ar      23 UNK        -0.0193 
     14 C14         1.0802  -18.5665  -50.6682 C.ar      23 UNK        -0.1150 
     15 C15         1.1174  -21.0986  -50.6108 C.3       23 UNK        -0.0205 
     16 S16         2.5183  -21.3295  -49.4640 S.3       23 UNK        -0.2404 
     17 C17         1.7656  -21.0146  -47.8283 C.3       23 UNK        -0.0398 
     18 CA          1.3262  -22.2972  -47.0890 C.3       11 UNK         0.1400 
     19 N           1.1452  -22.0562  -45.6583 N.am      11 UNK        -0.5000 
     20 C           0.9525  -23.0110  -44.7388 C.2       10 UNK         0.5000 
     21 O           0.9531  -24.2164  -44.9912 O.2       10 UNK        -0.5000 
     22 CA          0.6600  -22.5311  -43.3059 C.3       10 UNK         0.1400 
     23 CB          1.9535  -22.1074  -42.5944 C.3       10 UNK        -0.1800 
     24 N          -0.3042  -21.4295  -43.2745 N.am      10 UNK        -0.5000 
     25 C          -1.5770  -21.5321  -43.6839 C.2       9 UNK         0.5000 
     26 O          -2.0832  -22.5825  -44.0806 O.2       9 UNK        -0.5000 
     27 CA         -2.4150  -20.2404  -43.6886 C.3       9 UNK         0.1400 
     28 CB         -2.9322  -19.9220  -42.2780 C.3       9 UNK        -0.1800 
     29 N          -1.6890  -19.0849  -44.2195 N.am      9 UNK        -0.5000 
     30 C          -1.2241  -18.9881  -45.4731 C.2       8 UNK         0.5000 
     31 O          -1.3663  -19.8627  -46.3224 O.2       8 UNK        -0.5000 
     32 CA         -0.4116  -17.7326  -45.8291 C.3       8 UNK         0.1400 
     33 CB         -1.3305  -16.5223  -46.0492 C.3       8 UNK        -0.1800 
     34 N           0.5960  -17.4174  -44.8172 N.am      8 UNK        -0.5000 
     35 C           1.6055  -18.2324  -44.4766 C.2       7 UNK         0.5000 
     36 O           1.8363  -19.3085  -45.0262 O.2       7 UNK        -0.5000 
     37 CA          2.4678  -17.7970  -43.2827 C.3       7 UNK         0.1400 
     38 CB          3.5373  -16.7861  -43.7231 C.3       7 UNK        -0.1800 
     39 N           1.6487  -17.2335  -42.2087 N.am      7 UNK        -0.5000 
     40 C           0.8008  -17.9520  -41.4568 C.2       6 UNK         0.5000 
     41 O           0.6560  -19.1700  -41.5635 O.2       6 UNK        -0.5000 
     42 CA         -0.0615  -17.1715  -40.4476 C.3       6 UNK         0.1400 
     43 CB          0.7234  -16.9067  -39.1543 C.3       6 UNK        -0.1800 
     44 N          -0.5486  -15.9020  -40.9894 N.am      6 UNK        -0.5000 
     45 C          -1.4196  -15.7950  -42.0033 C.2       5 UNK         0.5000 
     46 O          -1.9452  -16.7613  -42.5529 O.2       5 UNK        -0.5000 
     47 CA         -1.7174  -14.3747  -42.5220 C.3       5 UNK         0.1400 
     48 CB         -2.9224  -13.7731  -41.7844 C.3       5 UNK        -0.1800 
     49 N          -0.5751  -13.4636  -42.4094 N.am      5 UNK        -0.5000 
     50 C           0.5985  -13.6344  -43.0305 C.2       4 UNK         0.5000 
     51 O           0.8406  -14.5778  -43.7867 O.2       4 UNK        -0.5000 
     52 CA          1.6862  -12.5935  -42.7277 C.3       4 UNK         0.1400 
     53 CB          3.0441  -13.2590  -42.4498 C.3       4 UNK        -0.1800 
     54 N           1.8268  -11.6637  -43.8422 N.am      4 UNK        -0.5000 
     55 C           1.0681  -10.5760  -44.0254 C.2       3 UNK         0.5000 
     56 O           0.1440  -10.2590  -43.2749 O.2       3 UNK        -0.5000 
     57 CA          1.3967   -9.6840  -45.2331 C.3       3 UNK         0.1400 
     58 CB          2.6294   -8.8126  -44.9426 C.3       3 UNK        -0.1800 
     59 N           1.6408  -10.4727  -46.4405 N.am      3 UNK        -0.5000 
     60 C           0.9941  -10.3117  -47.6043 C.2       2 UNK         0.5000 
     61 O           0.1159   -9.4674  -47.7873 O.2       2 UNK        -0.5000 
     62 CA          1.3902  -11.2369  -48.7754 C.3       2 UNK         0.1400 
     63 CB          2.3274  -10.5030  -49.7467 C.3       2 UNK        -0.1800 
     64 N           2.0370  -12.4763  -48.3472 N.am      2 UNK        -0.5000 
     65 C           1.4304  -13.4641  -47.6761 C.2       1 UNK         0.5000 
     66 O           0.2223  -13.4766  -47.4417 O.2       1 UNK        -0.5000 
     67 C           0.0720  -22.9350  -47.7207 C.2       11 UNK         0.5000 
     68 O           0.2071  -23.9093  -48.4571 O.2       11 UNK        -0.5000 
     69 N          -1.1217  -22.4203  -47.3901 N.am      12 UNK        -0.5000 
     70 CA         -2.4149  -22.9426  -47.8364 C.3       12 UNK         0.1400 
     71 CB         -3.5518  -22.0581  -47.3043 C.3       12 UNK        -0.1800 
     72 C          -2.6485  -24.3996  -47.4099 C.2       12 UNK         0.5000 
     73 O          -3.1255  -25.1936  -48.2199 O.2       12 UNK        -0.5000 
     74 N          -2.2849  -24.7286  -46.1631 N.am      13 UNK        -0.5000 
     75 CA         -2.3448  -26.0831  -45.6172 C.3       13 UNK         0.1400 
     76 CB         -2.0933  -26.0366  -44.1025 C.3       13 UNK        -0.1800 
     77 C          -1.3611  -27.0445  -46.3098 C.2       13 UNK         0.5000 
     78 O          -1.7318  -28.1825  -46.5988 O.2       13 UNK        -0.5000 
     79 N          -0.1377  -26.5677  -46.5783 N.am      14 UNK        -0.5000 
     80 CA          0.9144  -27.3223  -47.2598 C.3       14 UNK         0.1400 
     81 CB          2.2574  -26.5961  -47.0848 C.3       14 UNK        -0.1800 
     82 C           0.6120  -27.5613  -48.7512 C.2       14 UNK         0.5000 
     83 O           0.7885  -28.6795  -49.2364 O.2       14 UNK        -0.5000 
     84 N           0.1647  -26.5098  -49.4491 N.am      15 UNK        -0.5000 
     85 CA         -0.1462  -26.5254  -50.8794 C.3       15 UNK         0.1400 
     86 CB         -0.1305  -25.0807  -51.4062 C.3       15 UNK        -0.1800 
     87 C          -1.4934  -27.1943  -51.2103 C.2       15 UNK         0.5000 
     88 O          -1.6831  -27.6098  -52.3540 O.2       15 UNK        -0.5000 
     89 N          -2.3926  -27.2725  -50.2170 N.am      16 UNK        -0.5000 
     90 CA         -3.8033  -27.6586  -50.3180 C.3       16 UNK         0.1400 
     91 CB         -3.9676  -29.1148  -50.8035 C.3       16 UNK        -0.1800 
     92 C          -4.5827  -26.6261  -51.1579 C.2       16 UNK         0.5000 
     93 O          -5.1279  -26.9610  -52.2116 O.2       16 UNK        -0.5000 
     94 N          -4.5791  -25.3822  -50.6543 N.am      17 UNK        -0.5000 
     95 CA         -5.0602  -24.1337  -51.2610 C.3       17 UNK         0.1400 
     96 CB         -6.5161  -24.2629  -51.7565 C.3       17 UNK        -0.1800 
     97 C          -4.1131  -23.6075  -52.3601 C.2       17 UNK         0.5000 
     98 O          -3.2233  -24.3247  -52.8227 O.2       17 UNK        -0.5000 
     99 N          -4.3050  -22.3427  -52.7467 N.am      18 UNK        -0.5000 
    100 CA        -3.4904  -21.6337  -53.7282 C.3       18 UNK         0.1400 
    101 CB        -2.1528  -21.1863  -53.1043 C.3       18 UNK        -0.1800 
    102 C         -4.3219  -20.4595  -54.2560 C.2       18 UNK         0.5000 
    103 O         -4.1687  -19.3272  -53.7945 O.2       18 UNK        -0.5000 
    104 N         -5.2520  -20.7631  -55.1691 N.am      19 UNK        -0.5000 
    105 CA        -6.1616  -19.7870  -55.7681 C.3       19 UNK         0.1400 
    106 CB        -7.1914  -20.5318  -56.6315 C.3       19 UNK        -0.1800 
    107 C         -5.4018  -18.7334  -56.6092 C.2       19 UNK         0.5000 
    108 O         -4.4049  -19.0831  -57.2429 O.2       19 UNK        -0.5000 
    109 N         -5.8399  -17.4681  -56.6587 N.am      20 UNK        -0.5000 
    110 CA        -7.0260  -16.8922  -56.0160 C.3       20 UNK         0.1400 
    111 CB        -7.5408  -15.7523  -56.9112 C.3       20 UNK        -0.1800 
    112 C         -6.7704  -16.3772  -54.5821 C.2       20 UNK         0.5000 
    113 O         -7.6986  -15.8474  -53.9701 O.2       20 UNK        -0.5000 
    114 N         -5.5363  -16.5103  -54.0722 N.am      21 UNK        -0.5000 
    115 CA        -5.1206  -16.0087  -52.7577 C.3       21 UNK         0.1400 
    116 CB        -3.5918  -16.1060  -52.6237 C.3       21 UNK        -0.1800 
    117 C         -5.8121  -16.7129  -51.5749 C.2       21 UNK         0.5000 
    118 O         -6.1133  -16.0578  -50.5759 O.2       21 UNK        -0.5000 
    119 N         -6.0587  -18.0193  -51.7064 N.am      22 UNK        -0.5000 
    120 CA        -6.6815  -18.8633  -50.6795 C.3       22 UNK         0.1400 
    121 C         -7.2715  -20.1578  -51.2916 C.2       22 UNK         0.5000 
    122 N         -8.3562  -20.6778  -50.7347 N.am      22 UNK        -0.7600 
    123 O         -6.7386  -20.7189  -52.2436 O.2       22 UNK        -0.5000 
    124 C124       -5.7292  -19.1715  -49.4909 C.3       23 UNK        -0.0398 
    125 S125       -4.0758  -19.7542  -50.0076 S.3       23 UNK        -0.2404 
    126 C126       -3.0120  -18.4649  -49.2742 C.3       23 UNK        -0.0205 
    127 H127        6.2420  -13.3619  -45.3811 H         1 UNK         0.0600 
    128 H128        6.2887  -14.0518  -47.0065 H         1 UNK         0.0600 
    129 H129        6.1742  -12.3018  -46.7929 H         1 UNK         0.0600 
    130 H130        4.3464  -14.9440  -47.6138 H         1 UNK         0.3000 
    131 H131        1.9937  -14.7941  -46.1317 H         1 UNK         0.0600 
    132 H132        0.9816  -16.1375  -47.9712 H         1 UNK         0.0800 
    133 H133        2.4950  -16.7684  -47.4072 H         1 UNK         0.0800 
    134 H134        0.5795  -15.1733  -50.4359 H         1 UNK         0.0800 
    135 H135        1.4839  -15.9615  -51.7066 H         1 UNK         0.0800 
    136 H136       -1.3657  -16.3747  -49.8168 H         1 UNK         0.1150 
    137 H137       -1.4201  -20.6589  -49.7413 H         1 UNK         0.1150 
    138 H138        2.1038  -18.5886  -51.0152 H         1 UNK         0.1150 
    139 H139        0.4185  -21.9284  -50.4970 H         1 UNK         0.0800 
    140 H140        1.4876  -21.1554  -51.6351 H         1 UNK         0.0800 
    141 H141        0.9499  -20.2944  -47.8884 H         1 UNK         0.0800 
    142 H142        2.5410  -20.5159  -47.2461 H         1 UNK         0.0800 
    143 H143        2.1363  -23.0244  -47.1773 H         1 UNK         0.0600 
    144 H144        1.1622  -21.0845  -45.3604 H         1 UNK         0.3000 
    145 H145        0.2284  -23.3702  -42.7562 H         1 UNK         0.0600 
    146 H146        1.7615  -21.8426  -41.5545 H         1 UNK         0.0600 
    147 H147        2.6833  -22.9178  -42.5950 H         1 UNK         0.0600 
    148 H148        2.4165  -21.2464  -43.0773 H         1 UNK         0.0600 
    149 H149        0.0287  -20.5396  -42.9171 H         1 UNK         0.3000 
    150 H150       -3.2785  -20.4109  -44.3345 H         1 UNK         0.0600 
    151 H151       -3.4875  -20.7651  -41.8652 H         1 UNK         0.0600 
    152 H152       -3.6047  -19.0642  -42.2900 H         1 UNK         0.0600 
    153 H153       -2.1160  -19.6967  -41.5910 H         1 UNK         0.0600 
    154 H154       -1.5732  -18.2946  -43.5903 H         1 UNK         0.3000 
    155 H155        0.1126  -17.9394  -46.7639 H         1 UNK         0.0600 
    156 H156       -1.9716  -16.3358  -45.1885 H         1 UNK         0.0600 
    157 H157       -1.9794  -16.6793  -46.9109 H         1 UNK         0.0600 
    158 H158       -0.7561  -15.6161  -46.2348 H         1 UNK         0.0600 
    159 H159        0.5000  -16.5334  -44.3286 H         1 UNK         0.3000 
    160 H160        2.9772  -18.6809  -42.8930 H         1 UNK         0.0600 
    161 H161        4.1366  -16.4471  -42.8782 H         1 UNK         0.0600 
    162 H162        3.0967  -15.9107  -44.1983 H         1 UNK         0.0600 
    163 H163        4.2186  -17.2356  -44.4464 H         1 UNK         0.0600 
    164 H164        1.6659  -16.2304  -42.1025 H         1 UNK         0.3000 
    165 H165       -0.9273  -17.7899  -40.2013 H         1 UNK         0.0600 
    166 H166        0.0965  -16.4229  -38.4051 H         1 UNK         0.0600 
    167 H167        1.0851  -17.8398  -38.7202 H         1 UNK         0.0600 
    168 H168        1.5903  -16.2686  -39.3303 H         1 UNK         0.0600 
    169 H169       -0.1711  -15.0567  -40.5879 H         1 UNK         0.3000 
    170 H170       -1.9717  -14.4575  -43.5805 H         1 UNK         0.0600 
    171 H171       -3.7962  -14.4204  -41.8719 H         1 UNK         0.0600 
    172 H172       -2.7185  -13.6382  -40.7215 H         1 UNK         0.0600 
    173 H173       -3.1954  -12.8032  -42.2005 H         1 UNK         0.0600 
    174 H174       -0.7058  -12.6447  -41.8322 H         1 UNK         0.3000 
    175 H175        1.4057  -12.0416  -41.8279 H         1 UNK         0.0600 
    176 H176        3.4341  -13.7684  -43.3301 H         1 UNK         0.0600 
    177 H177        3.7849  -12.5210  -42.1421 H         1 UNK         0.0600 
    178 H178        2.9658  -13.9952  -41.6490 H         1 UNK         0.0600 
    179 H179        2.5497  -11.8957  -44.5205 H         1 UNK         0.3000 
    180 H180        0.5424   -9.0190  -45.3755 H         1 UNK         0.0600 
    181 H181        3.5269   -9.4171  -44.8045 H         1 UNK         0.0600 
    182 H182        2.4868   -8.2212  -44.0373 H         1 UNK         0.0600 
    183 H183        2.8184   -8.1163  -45.7597 H         1 UNK         0.0600 
    184 H184        2.3387  -11.2060  -46.3672 H         1 UNK         0.3000 
    185 H185        0.4758  -11.4980  -49.3123 H         1 UNK         0.0600 
    186 H186        1.8671   -9.5856  -50.1162 H         1 UNK         0.0600 
    187 H187        3.2680  -10.2284  -49.2674 H         1 UNK         0.0600 
    188 H188        2.5592  -11.1207  -50.6146 H         1 UNK         0.0600 
    189 H189        3.0320  -12.5484  -48.5011 H         1 UNK         0.3000 
    190 H190       -1.1538  -21.5757  -46.8211 H         1 UNK         0.3000 
    191 H191       -2.4263  -22.9011  -48.9275 H         1 UNK         0.0600 
    192 H192       -3.6496  -22.1293  -46.2213 H         1 UNK         0.0600 
    193 H193       -4.5081  -22.3486  -47.7408 H         1 UNK         0.0600 
    194 H194       -3.3879  -21.0107  -47.5472 H         1 UNK         0.0600 
    195 H195       -1.9487  -23.9980  -45.5435 H         1 UNK         0.3000 
    196 H196       -3.3543  -26.4658  -45.7811 H         1 UNK         0.0600 
    197 H197       -1.1073  -25.6341  -43.8688 H         1 UNK         0.0600 
    198 H198       -2.1542  -27.0339  -43.6653 H         1 UNK         0.0600 
    199 H199       -2.8341  -25.4144  -43.6000 H         1 UNK         0.0600 
    200 H200        0.0985  -25.6291  -46.2741 H         1 UNK         0.3000 
    201 H201        0.9958  -28.2984  -46.7771 H         1 UNK         0.0600 
    202 H202        2.2363  -25.5972  -47.5214 H         1 UNK         0.0600 
    203 H203        3.0660  -27.1482  -47.5651 H         1 UNK         0.0600 
    204 H204        2.5143  -26.4930  -46.0304 H         1 UNK         0.0600 
    205 H205        0.0925  -25.6049  -48.9845 H         1 UNK         0.3000 
    206 H206        0.6363  -27.0836  -51.3974 H         1 UNK         0.0600 
    207 H207        0.8311  -24.6012  -51.2224 H         1 UNK         0.0600 
    208 H208       -0.3090  -25.0535  -52.4819 H         1 UNK         0.0600 
    209 H209       -0.9042  -24.4738  -50.9335 H         1 UNK         0.0600 
    210 H210       -2.1317  -26.8576  -49.3314 H         1 UNK         0.3000 
    211 H211       -4.2069  -27.6097  -49.3054 H         1 UNK         0.0600 
    212 H212       -3.6429  -29.2471  -51.8355 H         1 UNK         0.0600 
    213 H213       -5.0130  -29.4209  -50.7529 H         1 UNK         0.0600 
    214 H214       -3.3962  -29.8032  -50.1809 H         1 UNK         0.0600 
    215 H215       -4.0643  -25.2574  -49.7846 H         1 UNK         0.3000 
    216 H216       -5.0472  -23.3960  -50.4568 H         1 UNK         0.0600 
    217 H217       -7.1581  -24.6974  -50.9904 H         1 UNK         0.0600 
    218 H218       -6.9332  -23.2901  -52.0101 H         1 UNK         0.0600 
    219 H219       -6.5913  -24.8808  -52.6513 H         1 UNK         0.0600 
    220 H220       -5.0912  -21.8092  -52.3810 H         1 UNK         0.3000 
    221 H221       -3.2752  -22.2969  -54.5687 H         1 UNK         0.0600 
    222 H222       -2.3103  -20.5224  -52.2556 H         1 UNK         0.0600 
    223 H223       -1.5648  -22.0364  -52.7585 H         1 UNK         0.0600 
    224 H224       -1.5467  -20.6454  -53.8316 H         1 UNK         0.0600 
    225 H225       -5.3323  -21.7159  -55.4912 H         1 UNK         0.3000 
    226 H226       -6.6825  -19.3056  -54.9401 H         1 UNK         0.0600 
    227 H227       -7.7618  -21.2455  -56.0365 H         1 UNK         0.0600 
    228 H228       -7.9054  -19.8395  -57.0788 H         1 UNK         0.0600 
    229 H229       -6.7129  -21.0784  -57.4452 H         1 UNK         0.0600 
    230 H230       -5.3045  -16.8149  -57.2116 H         1 UNK         0.3000 
    231 H231       -7.8202  -17.6377  -55.9602 H         1 UNK         0.0600 
    232 H232       -7.7634  -16.1102  -57.9167 H         1 UNK         0.0600 
    233 H233       -6.8113  -14.9458  -56.9958 H         1 UNK         0.0600 
    234 H234       -8.4609  -15.3218  -56.5138 H         1 UNK         0.0600 
    235 H235       -4.8328  -16.9944  -54.6122 H         1 UNK         0.3000 
    236 H236       -5.3919  -14.9519  -52.7105 H         1 UNK         0.0600 
    237 H237       -3.2473  -17.1405  -52.6395 H         1 UNK         0.0600 
    238 H238       -3.0875  -15.5705  -53.4280 H         1 UNK         0.0600 
    239 H239       -3.2562  -15.6692  -51.6824 H         1 UNK         0.0600 
    240 H240       -5.7246  -18.5112  -52.5284 H         1 UNK         0.3000 
    241 H241       -7.5317  -18.3032  -50.2850 H         1 UNK         0.0600 
    242 H242       -8.7434  -21.5233  -51.1226 H         1 UNK         0.3800 
    243 H243       -8.8117  -20.2434  -49.9470 H         1 UNK         0.3800 
    244 H244       -5.6194  -18.2743  -48.8811 H         1 UNK         0.0800 
    245 H245       -6.1652  -19.9164  -48.8232 H         1 UNK         0.0800 
    246 H246       -3.0258  -18.5687  -48.1891 H         1 UNK         0.0800 
    247 H247       -3.4425  -17.4893  -49.5053 H         1 UNK         0.0800 
@<TRIPOS>BOND
     1    1    2 1    
     2    1  127 1    
     3    1  128 1    
     4    1  129 1    
     5    2    3 2    
     6    2    4 am   BACKBONE|DICT|INTERRES
     7    4    5 1    
     8    4  130 1    
     9    5    6 1    
    10    5   65 1    
    11    5  131 1    
    12    6    7 1    
    13    6  132 1    
    14    6  133 1    
    15    7    8 1    
    16    8    9 1    
    17    8  134 1    
    18    8  135 1    
    19    9   10 ar   
    20    9   14 ar   
    21   10   11 ar   
    22   10  136 1    
    23   11   12 ar   
    24   11  126 1    
    25   12   13 ar   
    26   12  137 1    
    27   13   14 ar   
    28   13   15 1    
    29   14  138 1    
    30   15   16 1    
    31   15  139 1    
    32   15  140 1    
    33   16   17 1    
    34   17   18 1    
    35   17  141 1    
    36   17  142 1    
    37   18   19 1    
    38   18   67 1    
    39   18  143 1    
    40   19   20 am   BACKBONE|DICT|INTERRES
    41   19  144 1    
    42   20   21 2    
    43   20   22 1    
    44   22   23 1    
    45   22   24 1    
    46   22  145 1    
    47   23  146 1    
    48   23  147 1    
    49   23  148 1    
    50   24   25 am   BACKBONE|DICT|INTERRES
    51   24  149 1    
    52   25   26 2    
    53   25   27 1    
    54   27   28 1    
    55   27   29 1    
    56   27  150 1    
    57   28  151 1    
    58   28  152 1    
    59   28  153 1    
    60   29   30 am   BACKBONE|DICT|INTERRES
    61   29  154 1    
    62   30   31 2    
    63   30   32 1    
    64   32   33 1    
    65   32   34 1    
    66   32  155 1    
    67   33  156 1    
    68   33  157 1    
    69   33  158 1    
    70   34   35 am   BACKBONE|DICT|INTERRES
    71   34  159 1    
    72   35   36 2    
    73   35   37 1    
    74   37   38 1    
    75   37   39 1    
    76   37  160 1    
    77   38  161 1    
    78   38  162 1    
    79   38  163 1    
    80   39   40 am   BACKBONE|DICT|INTERRES
    81   39  164 1    
    82   40   41 2    
    83   40   42 1    
    84   42   43 1    
    85   42   44 1    
    86   42  165 1    
    87   43  166 1    
    88   43  167 1    
    89   43  168 1    
    90   44   45 am   BACKBONE|DICT|INTERRES
    91   44  169 1    
    92   45   46 2    
    93   45   47 1    
    94   47   48 1    
    95   47   49 1    
    96   47  170 1    
    97   48  171 1    
    98   48  172 1    
    99   48  173 1    
   100   49   50 am   BACKBONE|DICT|INTERRES
   101   49  174 1    
   102   50   51 2    
   103   50   52 1    
   104   52   53 1    
   105   52   54 1    
   106   52  175 1    
   107   53  176 1    
   108   53  177 1    
   109   53  178 1    
   110   54   55 am   BACKBONE|DICT|INTERRES
   111   54  179 1    
   112   55   56 2    
   113   55   57 1    
   114   57   58 1    
   115   57   59 1    
   116   57  180 1    
   117   58  181 1    
   118   58  182 1    
   119   58  183 1    
   120   59   60 am   BACKBONE|DICT|INTERRES
   121   59  184 1    
   122   60   61 2    
   123   60   62 1    
   124   62   63 1    
   125   62   64 1    
   126   62  185 1    
   127   63  186 1    
   128   63  187 1    
   129   63  188 1    
   130   64   65 am   BACKBONE|DICT|INTERRES
   131   64  189 1    
   132   65   66 2    
   133   67   68 2    
   134   67   69 am   BACKBONE|DICT|INTERRES
   135   69   70 1    
   136   69  190 1    
   137   70   71 1    
   138   70   72 1    
   139   70  191 1    
   140   71  192 1    
   141   71  193 1    
   142   71  194 1    
   143   72   73 2    
   144   72   74 am   BACKBONE|DICT|INTERRES
   145   74   75 1    
   146   74  195 1    
   147   75   76 1    
   148   75   77 1    
   149   75  196 1    
   150   76  197 1    
   151   76  198 1    
   152   76  199 1    
   153   77   78 2    
   154   77   79 am   BACKBONE|DICT|INTERRES
   155   79   80 1    
   156   79  200 1    
   157   80   81 1    
   158   80   82 1    
   159   80  201 1    
   160   81  202 1    
   161   81  203 1    
   162   81  204 1    
   163   82   83 2    
   164   82   84 am   BACKBONE|DICT|INTERRES
   165   84   85 1    
   166   84  205 1    
   167   85   86 1    
   168   85   87 1    
   169   85  206 1    
   170   86  207 1    
   171   86  208 1    
   172   86  209 1    
   173   87   88 2    
   174   87   89 am   BACKBONE|DICT|INTERRES
   175   89   90 1    
   176   89  210 1    
   177   90   91 1    
   178   90   92 1    
   179   90  211 1    
   180   91  212 1    
   181   91  213 1    
   182   91  214 1    
   183   92   93 2    
   184   92   94 am   BACKBONE|DICT|INTERRES
   185   94   95 1    
   186   94  215 1    
   187   95   96 1    
   188   95   97 1    
   189   95  216 1    
   190   96  217 1    
   191   96  218 1    
   192   96  219 1    
   193   97   98 2    
   194   97   99 am   BACKBONE|DICT|INTERRES
   195   99  100 1    
   196   99  220 1    
   197  100  101 1    
   198  100  102 1    
   199  100  221 1    
   200  101  222 1    
   201  101  223 1    
   202  101  224 1    
   203  102  103 2    
   204  102  104 am   BACKBONE|DICT|INTERRES
   205  104  105 1    
   206  104  225 1    
   207  105  106 1    
   208  105  107 1    
   209  105  226 1    
   210  106  227 1    
   211  106  228 1    
   212  106  229 1    
   213  107  108 2    
   214  107  109 am   BACKBONE|DICT|INTERRES
   215  109  110 1    
   216  109  230 1    
   217  110  111 1    
   218  110  112 1    
   219  110  231 1    
   220  111  232 1    
   221  111  233 1    
   222  111  234 1    
   223  112  113 2    
   224  112  114 am   BACKBONE|DICT|INTERRES
   225  114  115 1    
   226  114  235 1    
   227  115  116 1    
   228  115  117 1    
   229  115  236 1    
   230  116  237 1    
   231  116  238 1    
   232  116  239 1    
   233  117  118 2    
   234  117  119 am   BACKBONE|DICT|INTERRES
   235  119  120 1    
   236  119  240 1    
   237  120  121 1    
   238  120  124 1    
   239  120  241 1    
   240  121  122 am   BACKBONE|DICT|INTERRES
   241  121  123 2    
   242  122  242 1    
   243  122  243 1    
   244  124  125 1    
   245  124  244 1    
   246  124  245 1    
   247  125  126 1    
   248  126  246 1    
   249  126  247 1    
@<TRIPOS>SUBSTRUCTURE
     1 UNK         1 GROUP             0       ****    0 ROOT    
