@<TRIPOS>MOLECULE
3R540
247   249    1
SMALL
USER_CHARGES


@<TRIPOS>ATOM
      1 CA          4.7268  -18.6401  -45.4356 C.3       0 UNK        -0.1800 
      2 C           4.9971  -17.2547  -46.0037 C.2       0 UNK         0.5000 
      3 O           6.1546  -16.8465  -46.0881 O.2       0 UNK        -0.5000 
      4 N           3.9378  -16.5208  -46.3731 N.am      1 UNK        -0.5000 
      5 CA          3.9341  -15.1836  -46.9941 C.3       1 UNK         0.1400 
      6 C6          4.7369  -15.1324  -48.3244 C.3       23 UNK        -0.0398 
      7 S7          3.9948  -14.0087  -49.5589 S.3       23 UNK        -0.2404 
      8 C8          3.8423  -15.0833  -51.0231 C.3       23 UNK        -0.0205 
      9 C9          2.7017  -16.0807  -50.8876 C.ar      23 UNK        -0.0193 
     10 C10         1.3991  -15.7116  -51.2366 C.ar      23 UNK        -0.1150 
     11 C11         0.3474  -16.6248  -51.1191 C.ar      23 UNK        -0.0193 
     12 C12         0.6022  -17.9074  -50.6255 C.ar      23 UNK        -0.1150 
     13 C13         1.9004  -18.2885  -50.2794 C.ar      23 UNK        -0.0193 
     14 C14         2.9476  -17.3768  -50.4263 C.ar      23 UNK        -0.1150 
     15 C15         2.1716  -19.6721  -49.7169 C.3       23 UNK        -0.0205 
     16 S16         2.1821  -19.6047  -47.9046 S.3       23 UNK        -0.2404 
     17 C17         2.4062  -21.3506  -47.4498 C.3       23 UNK        -0.0398 
     18 CA          1.1116  -22.0978  -47.0465 C.3       11 UNK         0.1400 
     19 N           0.3506  -21.4659  -45.9612 N.am      11 UNK        -0.5000 
     20 C          -0.5376  -22.1414  -45.2148 C.2       10 UNK         0.5000 
     21 O          -0.7635  -23.3446  -45.3572 O.2       10 UNK        -0.5000 
     22 CA         -1.3393  -21.3505  -44.1656 C.3       10 UNK         0.1400 
     23 CB         -0.4791  -21.0253  -42.9355 C.3       10 UNK        -0.1800 
     24 N          -1.9342  -20.1279  -44.7046 N.am      10 UNK        -0.5000 
     25 C          -2.8752  -20.1039  -45.6597 C.2       9 UNK         0.5000 
     26 O          -3.3436  -21.1144  -46.1813 O.2       9 UNK        -0.5000 
     27 CA         -3.3559  -18.7231  -46.1393 C.3       9 UNK         0.1400 
     28 CB         -4.4596  -18.1793  -45.2205 C.3       9 UNK        -0.1800 
     29 N          -2.2709  -17.7505  -46.2331 N.am      9 UNK        -0.5000 
     30 C          -1.2359  -17.8509  -47.0777 C.2       8 UNK         0.5000 
     31 O          -1.1214  -18.7504  -47.9084 O.2       8 UNK        -0.5000 
     32 CA         -0.1171  -16.8052  -46.9197 C.3       8 UNK         0.1400 
     33 CB         -0.5032  -15.4679  -47.5689 C.3       8 UNK        -0.1800 
     34 N           0.2396  -16.5860  -45.5165 N.am      8 UNK        -0.5000 
     35 C           0.7463  -17.5205  -44.6989 C.2       7 UNK         0.5000 
     36 O           1.0142  -18.6685  -45.0449 O.2       7 UNK        -0.5000 
     37 CA          0.9757  -17.1036  -43.2386 C.3       7 UNK         0.1400 
     38 CB          2.3447  -16.4265  -43.0926 C.3       7 UNK        -0.1800 
     39 N          -0.0813  -16.2219  -42.7371 N.am      7 UNK        -0.5000 
     40 C          -1.3404  -16.6275  -42.5216 C.2       6 UNK         0.5000 
     41 O          -1.7302  -17.7782  -42.7245 O.2       6 UNK        -0.5000 
     42 CA         -2.3406  -15.5602  -42.0412 C.3       6 UNK         0.1400 
     43 CB         -2.0750  -15.1742  -40.5778 C.3       6 UNK        -0.1800 
     44 N          -2.3634  -14.3525  -42.8727 N.am      6 UNK        -0.5000 
     45 C          -2.6510  -14.3277  -44.1818 C.2       5 UNK         0.5000 
     46 O          -2.8356  -15.3388  -44.8550 O.2       5 UNK        -0.5000 
     47 CA         -2.7397  -12.9566  -44.8786 C.3       5 UNK         0.1400 
     48 CB         -4.2066  -12.6209  -45.1868 C.3       5 UNK        -0.1800 
     49 N          -2.1629  -11.8538  -44.1045 N.am      5 UNK        -0.5000 
     50 C          -0.8693  -11.5257  -43.9779 C.2       4 UNK         0.5000 
     51 O          -0.5288  -10.5416  -43.3198 O.2       4 UNK        -0.5000 
     52 CA          0.2206  -12.3666  -44.6890 C.3       4 UNK         0.1400 
     53 CB          0.4956  -11.8181  -46.0981 C.3       4 UNK        -0.1800 
     54 N           1.4732  -12.3784  -43.9336 N.am      4 UNK        -0.5000 
     55 C           1.6174  -12.8912  -42.7051 C.2       3 UNK         0.5000 
     56 O           0.7450  -13.5550  -42.1419 O.2       3 UNK        -0.5000 
     57 CA          2.9832  -12.6681  -42.0396 C.3       3 UNK         0.1400 
     58 CB          3.0918  -13.2901  -40.6352 C.3       3 UNK        -0.1800 
     59 N           4.0214  -13.2191  -42.9056 N.am      3 UNK        -0.5000 
     60 C           5.1146  -12.5671  -43.3141 C.2       2 UNK         0.5000 
     61 O           5.4172  -11.4322  -42.9424 O.2       2 UNK        -0.5000 
     62 CA          6.0235  -13.2989  -44.3208 C.3       2 UNK         0.1400 
     63 CB          7.1742  -14.0021  -43.5849 C.3       2 UNK        -0.1800 
     64 N           5.3471  -14.2795  -45.1776 N.am      2 UNK        -0.5000 
     65 C           4.3620  -14.0308  -46.0513 C.2       1 UNK         0.5000 
     66 O           3.7977  -12.9406  -46.1364 O.2       1 UNK        -0.5000 
     67 C           0.2235  -22.4570  -48.2553 C.2       11 UNK         0.5000 
     68 O           0.4670  -23.4876  -48.8809 O.2       11 UNK        -0.5000 
     69 N          -0.8168  -21.6571  -48.5380 N.am      12 UNK        -0.5000 
     70 CA         -1.8306  -21.9724  -49.5468 C.3       12 UNK         0.1400 
     71 CB         -2.7592  -20.7732  -49.7595 C.3       12 UNK        -0.1800 
     72 C          -2.6483  -23.2275  -49.1955 C.2       12 UNK         0.5000 
     73 O          -2.8964  -24.0527  -50.0738 O.2       12 UNK        -0.5000 
     74 N          -3.0282  -23.3746  -47.9193 N.am      13 UNK        -0.5000 
     75 CA         -3.6924  -24.5657  -47.3909 C.3       13 UNK         0.1400 
     76 CB         -4.1737  -24.3088  -45.9560 C.3       13 UNK        -0.1800 
     77 C          -2.8000  -25.8169  -47.4688 C.2       13 UNK         0.5000 
     78 O          -3.2778  -26.8684  -47.8944 O.2       13 UNK        -0.5000 
     79 N          -1.5119  -25.6699  -47.1247 N.am      14 UNK        -0.5000 
     80 CA         -0.4950  -26.7199  -47.2482 C.3       14 UNK         0.1400 
     81 CB          0.8085  -26.2545  -46.5829 C.3       14 UNK        -0.1800 
     82 C          -0.2407  -27.1497  -48.7083 C.2       14 UNK         0.5000 
     83 O          -0.0281  -28.3348  -48.9655 O.2       14 UNK        -0.5000 
     84 N          -0.3101  -26.1883  -49.6390 N.am      15 UNK        -0.5000 
     85 CA         -0.2220  -26.3937  -51.0871 C.3       15 UNK         0.1400 
     86 CB          0.1586  -25.0595  -51.7510 C.3       15 UNK        -0.1800 
     87 C          -1.5130  -26.9613  -51.7176 C.2       15 UNK         0.5000 
     88 O          -1.5143  -27.2437  -52.9163 O.2       15 UNK        -0.5000 
     89 N          -2.5824  -27.1043  -50.9193 N.am      16 UNK        -0.5000 
     90 CA         -3.9241  -27.5704  -51.2869 C.3       16 UNK         0.1400 
     91 CB         -3.8920  -29.0142  -51.8309 C.3       16 UNK        -0.1800 
     92 C          -4.6932  -26.5941  -52.2038 C.2       16 UNK         0.5000 
     93 O          -5.6274  -27.0073  -52.8925 O.2       16 UNK        -0.5000 
     94 N          -4.3222  -25.3072  -52.1636 N.am      17 UNK        -0.5000 
     95 CA         -5.0321  -24.2044  -52.8157 C.3       17 UNK         0.1400 
     96 CB         -4.0127  -23.1290  -53.2185 C.3       17 UNK        -0.1800 
     97 C          -6.1341  -23.6144  -51.9095 C.2       17 UNK         0.5000 
     98 O          -6.9368  -22.8055  -52.3767 O.2       17 UNK        -0.5000 
     99 N          -6.1507  -24.0240  -50.6292 N.am      18 UNK        -0.5000 
    100 CA        -7.1772  -23.7700  -49.6070 C.3       18 UNK         0.1400 
    101 CB        -8.4879  -24.4855  -49.9924 C.3       18 UNK        -0.1800 
    102 C         -7.4068  -22.2804  -49.2738 C.2       18 UNK         0.5000 
    103 O         -8.4634  -21.9300  -48.7474 O.2       18 UNK        -0.5000 
    104 N         -6.4234  -21.4327  -49.6088 N.am      19 UNK        -0.5000 
    105 CA        -6.4361  -19.9674  -49.5248 C.3       19 UNK         0.1400 
    106 CB        -6.6021  -19.4936  -48.0663 C.3       19 UNK        -0.1800 
    107 C         -7.4352  -19.2883  -50.4898 C.2       19 UNK         0.5000 
    108 O         -7.6387  -18.0775  -50.3901 O.2       19 UNK        -0.5000 
    109 N         -8.0082  -20.0511  -51.4344 N.am      20 UNK        -0.5000 
    110 CA        -8.8096  -19.5332  -52.5476 C.3       20 UNK         0.1400 
    111 CB        -9.6945  -20.6620  -53.0978 C.3       20 UNK        -0.1800 
    112 C         -7.9123  -18.9517  -53.6579 C.2       20 UNK         0.5000 
    113 O         -8.3321  -18.0533  -54.3877 O.2       20 UNK        -0.5000 
    114 N         -6.6812  -19.4624  -53.7293 N.am      21 UNK        -0.5000 
    115 CA        -5.5541  -18.9658  -54.5005 C.3       21 UNK         0.1400 
    116 CB        -5.4906  -19.7083  -55.8462 C.3       21 UNK        -0.1800 
    117 C         -4.2943  -19.2140  -53.6550 C.2       21 UNK         0.5000 
    118 O         -4.3705  -19.9033  -52.6331 O.2       21 UNK        -0.5000 
    119 N         -3.1600  -18.6568  -54.0861 N.am      22 UNK        -0.5000 
    120 CA        -1.8434  -18.9208  -53.4863 C.3       22 UNK         0.1400 
    121 C         -1.3022  -20.3356  -53.8400 C.2       22 UNK         0.5000 
    122 N         -0.4478  -20.9060  -53.0013 N.am      22 UNK        -0.7600 
    123 O         -1.6121  -20.9029  -54.8853 O.2       22 UNK        -0.5000 
    124 C124       -0.8102  -17.8313  -53.8653 C.3       23 UNK        -0.0398 
    125 S125       -1.2926  -16.1528  -53.3261 S.3       23 UNK        -0.2404 
    126 C126       -1.0659  -16.2258  -51.5168 C.3       23 UNK        -0.0205 
    127 H127        5.1297  -19.4024  -46.1022 H         1 UNK         0.0600 
    128 H128        3.6614  -18.8285  -45.3112 H         1 UNK         0.0600 
    129 H129        5.2047  -18.7477  -44.4621 H         1 UNK         0.0600 
    130 H130        3.0237  -16.9406  -46.2800 H         1 UNK         0.3000 
    131 H131        2.8821  -15.0095  -47.2270 H         1 UNK         0.0600 
    132 H132        5.7750  -14.8386  -48.1572 H         1 UNK         0.0800 
    133 H133        4.7999  -16.1286  -48.7575 H         1 UNK         0.0800 
    134 H134        3.6725  -14.4565  -51.8997 H         1 UNK         0.0800 
    135 H135        4.7868  -15.5998  -51.2016 H         1 UNK         0.0800 
    136 H136        1.2035  -14.7145  -51.6058 H         1 UNK         0.1150 
    137 H137       -0.2108  -18.6072  -50.4989 H         1 UNK         0.1150 
    138 H138        3.9512  -17.6775  -50.1627 H         1 UNK         0.1150 
    139 H139        1.4117  -20.3757  -50.0576 H         1 UNK         0.0800 
    140 H140        3.1315  -20.0443  -50.0777 H         1 UNK         0.0800 
    141 H141        3.0970  -21.3688  -46.6060 H         1 UNK         0.0800 
    142 H142        2.9220  -21.8767  -48.2551 H         1 UNK         0.0800 
    143 H143        1.4566  -23.0564  -46.6533 H         1 UNK         0.0600 
    144 H144        0.5044  -20.4738  -45.8002 H         1 UNK         0.3000 
    145 H145       -2.1599  -21.9898  -43.8334 H         1 UNK         0.0600 
    146 H146       -1.0609  -20.5077  -42.1727 H         1 UNK         0.0600 
    147 H147       -0.0888  -21.9378  -42.4834 H         1 UNK         0.0600 
    148 H148        0.3743  -20.3979  -43.1886 H         1 UNK         0.0600 
    149 H149       -1.6253  -19.2511  -44.3016 H         1 UNK         0.3000 
    150 H150       -3.7761  -18.8452  -47.1388 H         1 UNK         0.0600 
    151 H151       -5.2845  -18.8879  -45.1364 H         1 UNK         0.0600 
    152 H152       -4.8697  -17.2469  -45.6088 H         1 UNK         0.0600 
    153 H153       -4.0866  -17.9863  -44.2141 H         1 UNK         0.0600 
    154 H154       -2.3254  -16.9508  -45.6067 H         1 UNK         0.3000 
    155 H155        0.7662  -17.1782  -47.4385 H         1 UNK         0.0600 
    156 H156       -0.7526  -15.6075  -48.6201 H         1 UNK         0.0600 
    157 H157        0.3192  -14.7542  -47.5248 H         1 UNK         0.0600 
    158 H158       -1.3702  -15.0162  -47.0886 H         1 UNK         0.0600 
    159 H159        0.0009  -15.6913  -45.1203 H         1 UNK         0.3000 
    160 H160        0.9796  -18.0085  -42.6274 H         1 UNK         0.0600 
    161 H161        2.4263  -15.5445  -43.7271 H         1 UNK         0.0600 
    162 H162        3.1472  -17.1087  -43.3735 H         1 UNK         0.0600 
    163 H163        2.5250  -16.1291  -42.0609 H         1 UNK         0.0600 
    164 H164        0.1694  -15.2591  -42.5198 H         1 UNK         0.3000 
    165 H165       -3.3361  -16.0062  -42.0930 H         1 UNK         0.0600 
    166 H166       -2.8522  -14.5107  -40.1984 H         1 UNK         0.0600 
    167 H167       -2.0618  -16.0570  -39.9373 H         1 UNK         0.0600 
    168 H168       -1.1162  -14.6685  -40.4591 H         1 UNK         0.0600 
    169 H169       -2.1882  -13.4772  -42.4007 H         1 UNK         0.3000 
    170 H170       -2.2187  -13.0383  -45.8332 H         1 UNK         0.0600 
    171 H171       -4.6691  -13.4014  -45.7930 H         1 UNK         0.0600 
    172 H172       -4.7978  -12.5206  -44.2755 H         1 UNK         0.0600 
    173 H173       -4.2892  -11.6884  -45.7455 H         1 UNK         0.0600 
    174 H174       -2.8373  -11.2729  -43.6282 H         1 UNK         0.3000 
    175 H175       -0.0993  -13.4035  -44.7781 H         1 UNK         0.0600 
    176 H176        0.9146  -10.8117  -46.0614 H         1 UNK         0.0600 
    177 H177        1.1972  -12.4528  -46.6391 H         1 UNK         0.0600 
    178 H178       -0.4162  -11.7691  -46.6936 H         1 UNK         0.0600 
    179 H179        2.2538  -11.8909  -44.3512 H         1 UNK         0.3000 
    180 H180        3.0997  -11.5872  -41.9375 H         1 UNK         0.0600 
    181 H181        2.9785  -14.3730  -40.6567 H         1 UNK         0.0600 
    182 H182        2.3225  -12.8924  -39.9722 H         1 UNK         0.0600 
    183 H183        4.0576  -13.0656  -40.1824 H         1 UNK         0.0600 
    184 H184        3.8483  -14.1370  -43.2875 H         1 UNK         0.3000 
    185 H185        6.4526  -12.5387  -44.9764 H         1 UNK         0.0600 
    186 H186        7.7266  -13.3007  -42.9580 H         1 UNK         0.0600 
    187 H187        6.8080  -14.8020  -42.9402 H         1 UNK         0.0600 
    188 H188        7.8851  -14.4370  -44.2878 H         1 UNK         0.0600 
    189 H189        5.7702  -15.2022  -45.2273 H         1 UNK         0.3000 
    190 H190       -0.9320  -20.7870  -48.0274 H         1 UNK         0.3000 
    191 H191       -1.3168  -22.1702  -50.4891 H         1 UNK         0.0600 
    192 H192       -2.2136  -19.9061  -50.1285 H         1 UNK         0.0600 
    193 H193       -3.5252  -21.0113  -50.4951 H         1 UNK         0.0600 
    194 H194       -3.2657  -20.4859  -48.8391 H         1 UNK         0.0600 
    195 H195       -2.8572  -22.6190  -47.2607 H         1 UNK         0.3000 
    196 H196       -4.5717  -24.7557  -48.0078 H         1 UNK         0.0600 
    197 H197       -4.6815  -25.1849  -45.5511 H         1 UNK         0.0600 
    198 H198       -4.8797  -23.4788  -45.9221 H         1 UNK         0.0600 
    199 H199       -3.3466  -24.0698  -45.2878 H         1 UNK         0.0600 
    200 H200       -1.2095  -24.7797  -46.7418 H         1 UNK         0.3000 
    201 H201       -0.8581  -27.5946  -46.7049 H         1 UNK         0.0600 
    202 H202        0.6423  -25.9638  -45.5454 H         1 UNK         0.0600 
    203 H203        1.2450  -25.4036  -47.1047 H         1 UNK         0.0600 
    204 H204        1.5513  -27.0530  -46.5833 H         1 UNK         0.0600 
    205 H205       -0.4066  -25.2258  -49.3310 H         1 UNK         0.3000 
    206 H206        0.5767  -27.1110  -51.2856 H         1 UNK         0.0600 
    207 H207        1.0943  -24.6710  -51.3488 H         1 UNK         0.0600 
    208 H208        0.2943  -25.1788  -52.8265 H         1 UNK         0.0600 
    209 H209       -0.6111  -24.3024  -51.6003 H         1 UNK         0.0600 
    210 H210       -2.4783  -26.8328  -49.9493 H         1 UNK         0.3000 
    211 H211       -4.4874  -27.5946  -50.3532 H         1 UNK         0.0600 
    212 H212       -3.4288  -29.0686  -52.8162 H         1 UNK         0.0600 
    213 H213       -4.9005  -29.4185  -51.9244 H         1 UNK         0.0600 
    214 H214       -3.3404  -29.6752  -51.1623 H         1 UNK         0.0600 
    215 H215       -3.5689  -25.0365  -51.5357 H         1 UNK         0.3000 
    216 H216       -5.5148  -24.5680  -53.7249 H         1 UNK         0.0600 
    217 H217       -4.4928  -22.3392  -53.7962 H         1 UNK         0.0600 
    218 H218       -3.2210  -23.5457  -53.8411 H         1 UNK         0.0600 
    219 H219       -3.5439  -22.6640  -52.3514 H         1 UNK         0.0600 
    220 H220       -5.4034  -24.6429  -50.3503 H         1 UNK         0.3000 
    221 H221       -6.8140  -24.2269  -48.6864 H         1 UNK         0.0600 
    222 H222       -8.9490  -24.0353  -50.8719 H         1 UNK         0.0600 
    223 H223       -8.3128  -25.5393  -50.2085 H         1 UNK         0.0600 
    224 H224       -9.2161  -24.4402  -49.1818 H         1 UNK         0.0600 
    225 H225       -5.6165  -21.8328  -50.0644 H         1 UNK         0.3000 
    226 H226       -5.4503  -19.6432  -49.8587 H         1 UNK         0.0600 
    227 H227       -5.9260  -20.0287  -47.3996 H         1 UNK         0.0600 
    228 H228       -6.3792  -18.4302  -47.9735 H         1 UNK         0.0600 
    229 H229       -7.6186  -19.6447  -47.7028 H         1 UNK         0.0600 
    230 H230       -7.7723  -21.0363  -51.4730 H         1 UNK         0.3000 
    231 H231       -9.4583  -18.7346  -52.1815 H         1 UNK         0.0600 
    232 H232       -9.0987  -21.4844  -53.4957 H         1 UNK         0.0600 
    233 H233      -10.3323  -20.2985  -53.9044 H         1 UNK         0.0600 
    234 H234      -10.3466  -21.0651  -52.3227 H         1 UNK         0.0600 
    235 H235       -6.4141  -20.1620  -53.0472 H         1 UNK         0.3000 
    236 H236       -5.6574  -17.8914  -54.6662 H         1 UNK         0.0600 
    237 H237       -6.4044  -19.5587  -56.4216 H         1 UNK         0.0600 
    238 H238       -4.6609  -19.3496  -56.4563 H         1 UNK         0.0600 
    239 H239       -5.3556  -20.7817  -55.7058 H         1 UNK         0.0600 
    240 H240       -3.1626  -18.1133  -54.9364 H         1 UNK         0.3000 
    241 H241       -1.9685  -18.8976  -52.4028 H         1 UNK         0.0600 
    242 H242       -0.1402  -20.4474  -52.1611 H         1 UNK         0.3800 
    243 H243       -0.0741  -21.8105  -53.2406 H         1 UNK         0.3800 
    244 H244        0.1733  -18.0619  -53.4536 H         1 UNK         0.0800 
    245 H245       -0.6742  -17.8070  -54.9477 H         1 UNK         0.0800 
    246 H246       -1.2920  -15.2442  -51.0984 H         1 UNK         0.0800 
    247 H247       -1.7970  -16.9107  -51.0850 H         1 UNK         0.0800 
@<TRIPOS>BOND
     1    1    2 1    
     2    1  127 1    
     3    1  128 1    
     4    1  129 1    
     5    2    3 2    
     6    2    4 am   BACKBONE|DICT|INTERRES
     7    4    5 1    
     8    4  130 1    
     9    5    6 1    
    10    5   65 1    
    11    5  131 1    
    12    6    7 1    
    13    6  132 1    
    14    6  133 1    
    15    7    8 1    
    16    8    9 1    
    17    8  134 1    
    18    8  135 1    
    19    9   10 ar   
    20    9   14 ar   
    21   10   11 ar   
    22   10  136 1    
    23   11   12 ar   
    24   11  126 1    
    25   12   13 ar   
    26   12  137 1    
    27   13   14 ar   
    28   13   15 1    
    29   14  138 1    
    30   15   16 1    
    31   15  139 1    
    32   15  140 1    
    33   16   17 1    
    34   17   18 1    
    35   17  141 1    
    36   17  142 1    
    37   18   19 1    
    38   18   67 1    
    39   18  143 1    
    40   19   20 am   BACKBONE|DICT|INTERRES
    41   19  144 1    
    42   20   21 2    
    43   20   22 1    
    44   22   23 1    
    45   22   24 1    
    46   22  145 1    
    47   23  146 1    
    48   23  147 1    
    49   23  148 1    
    50   24   25 am   BACKBONE|DICT|INTERRES
    51   24  149 1    
    52   25   26 2    
    53   25   27 1    
    54   27   28 1    
    55   27   29 1    
    56   27  150 1    
    57   28  151 1    
    58   28  152 1    
    59   28  153 1    
    60   29   30 am   BACKBONE|DICT|INTERRES
    61   29  154 1    
    62   30   31 2    
    63   30   32 1    
    64   32   33 1    
    65   32   34 1    
    66   32  155 1    
    67   33  156 1    
    68   33  157 1    
    69   33  158 1    
    70   34   35 am   BACKBONE|DICT|INTERRES
    71   34  159 1    
    72   35   36 2    
    73   35   37 1    
    74   37   38 1    
    75   37   39 1    
    76   37  160 1    
    77   38  161 1    
    78   38  162 1    
    79   38  163 1    
    80   39   40 am   BACKBONE|DICT|INTERRES
    81   39  164 1    
    82   40   41 2    
    83   40   42 1    
    84   42   43 1    
    85   42   44 1    
    86   42  165 1    
    87   43  166 1    
    88   43  167 1    
    89   43  168 1    
    90   44   45 am   BACKBONE|DICT|INTERRES
    91   44  169 1    
    92   45   46 2    
    93   45   47 1    
    94   47   48 1    
    95   47   49 1    
    96   47  170 1    
    97   48  171 1    
    98   48  172 1    
    99   48  173 1    
   100   49   50 am   BACKBONE|DICT|INTERRES
   101   49  174 1    
   102   50   51 2    
   103   50   52 1    
   104   52   53 1    
   105   52   54 1    
   106   52  175 1    
   107   53  176 1    
   108   53  177 1    
   109   53  178 1    
   110   54   55 am   BACKBONE|DICT|INTERRES
   111   54  179 1    
   112   55   56 2    
   113   55   57 1    
   114   57   58 1    
   115   57   59 1    
   116   57  180 1    
   117   58  181 1    
   118   58  182 1    
   119   58  183 1    
   120   59   60 am   BACKBONE|DICT|INTERRES
   121   59  184 1    
   122   60   61 2    
   123   60   62 1    
   124   62   63 1    
   125   62   64 1    
   126   62  185 1    
   127   63  186 1    
   128   63  187 1    
   129   63  188 1    
   130   64   65 am   BACKBONE|DICT|INTERRES
   131   64  189 1    
   132   65   66 2    
   133   67   68 2    
   134   67   69 am   BACKBONE|DICT|INTERRES
   135   69   70 1    
   136   69  190 1    
   137   70   71 1    
   138   70   72 1    
   139   70  191 1    
   140   71  192 1    
   141   71  193 1    
   142   71  194 1    
   143   72   73 2    
   144   72   74 am   BACKBONE|DICT|INTERRES
   145   74   75 1    
   146   74  195 1    
   147   75   76 1    
   148   75   77 1    
   149   75  196 1    
   150   76  197 1    
   151   76  198 1    
   152   76  199 1    
   153   77   78 2    
   154   77   79 am   BACKBONE|DICT|INTERRES
   155   79   80 1    
   156   79  200 1    
   157   80   81 1    
   158   80   82 1    
   159   80  201 1    
   160   81  202 1    
   161   81  203 1    
   162   81  204 1    
   163   82   83 2    
   164   82   84 am   BACKBONE|DICT|INTERRES
   165   84   85 1    
   166   84  205 1    
   167   85   86 1    
   168   85   87 1    
   169   85  206 1    
   170   86  207 1    
   171   86  208 1    
   172   86  209 1    
   173   87   88 2    
   174   87   89 am   BACKBONE|DICT|INTERRES
   175   89   90 1    
   176   89  210 1    
   177   90   91 1    
   178   90   92 1    
   179   90  211 1    
   180   91  212 1    
   181   91  213 1    
   182   91  214 1    
   183   92   93 2    
   184   92   94 am   BACKBONE|DICT|INTERRES
   185   94   95 1    
   186   94  215 1    
   187   95   96 1    
   188   95   97 1    
   189   95  216 1    
   190   96  217 1    
   191   96  218 1    
   192   96  219 1    
   193   97   98 2    
   194   97   99 am   BACKBONE|DICT|INTERRES
   195   99  100 1    
   196   99  220 1    
   197  100  101 1    
   198  100  102 1    
   199  100  221 1    
   200  101  222 1    
   201  101  223 1    
   202  101  224 1    
   203  102  103 2    
   204  102  104 am   BACKBONE|DICT|INTERRES
   205  104  105 1    
   206  104  225 1    
   207  105  106 1    
   208  105  107 1    
   209  105  226 1    
   210  106  227 1    
   211  106  228 1    
   212  106  229 1    
   213  107  108 2    
   214  107  109 am   BACKBONE|DICT|INTERRES
   215  109  110 1    
   216  109  230 1    
   217  110  111 1    
   218  110  112 1    
   219  110  231 1    
   220  111  232 1    
   221  111  233 1    
   222  111  234 1    
   223  112  113 2    
   224  112  114 am   BACKBONE|DICT|INTERRES
   225  114  115 1    
   226  114  235 1    
   227  115  116 1    
   228  115  117 1    
   229  115  236 1    
   230  116  237 1    
   231  116  238 1    
   232  116  239 1    
   233  117  118 2    
   234  117  119 am   BACKBONE|DICT|INTERRES
   235  119  120 1    
   236  119  240 1    
   237  120  121 1    
   238  120  124 1    
   239  120  241 1    
   240  121  122 am   BACKBONE|DICT|INTERRES
   241  121  123 2    
   242  122  242 1    
   243  122  243 1    
   244  124  125 1    
   245  124  244 1    
   246  124  245 1    
   247  125  126 1    
   248  126  246 1    
   249  126  247 1    
@<TRIPOS>SUBSTRUCTURE
     1 UNK         1 GROUP             0       ****    0 ROOT    
