@<TRIPOS>MOLECULE
3R540
247   249    1
SMALL
USER_CHARGES


@<TRIPOS>ATOM
      1 CA          2.1127   -9.0511  -47.1725 C.3       0 UNK        -0.1800 
      2 C           1.2488  -10.1898  -46.6502 C.2       0 UNK         0.5000 
      3 O           0.3124   -9.9477  -45.8878 O.2       0 UNK        -0.5000 
      4 N           1.5635  -11.4282  -47.0546 N.am      1 UNK        -0.5000 
      5 CA          0.9165  -12.6904  -46.6713 C.3       1 UNK         0.1400 
      6 C6         -0.5987  -12.7340  -47.0016 C.3       23 UNK        -0.0398 
      7 S7         -1.2292  -14.4388  -47.1185 S.3       23 UNK        -0.2404 
      8 C8         -1.6559  -14.5571  -48.8822 C.3       23 UNK        -0.0205 
      9 C9         -2.1591  -15.9527  -49.2072 C.ar      23 UNK        -0.0193 
     10 C10        -3.5198  -16.2569  -49.1055 C.ar      23 UNK        -0.1150 
     11 C11        -3.9726  -17.5604  -49.3298 C.ar      23 UNK        -0.0193 
     12 C12        -3.0539  -18.5591  -49.6626 C.ar      23 UNK        -0.1150 
     13 C13        -1.6948  -18.2604  -49.7963 C.ar      23 UNK        -0.0193 
     14 C14        -1.2553  -16.9521  -49.5746 C.ar      23 UNK        -0.1150 
     15 C15        -0.7106  -19.3619  -50.1683 C.3       23 UNK        -0.0205 
     16 S16         0.7408  -19.4560  -49.0634 S.3       23 UNK        -0.2404 
     17 C17        -0.0332  -19.5718  -47.4134 C.3       23 UNK        -0.0398 
     18 CA         -0.0963  -21.0041  -46.8378 C.3       11 UNK         0.1400 
     19 N          -0.4715  -20.9675  -45.4245 N.am      11 UNK        -0.5000 
     20 C          -0.5299  -22.0174  -44.5964 C.2       10 UNK         0.5000 
     21 O          -0.2327  -23.1678  -44.9155 O.2       10 UNK        -0.5000 
     22 CA         -1.0679  -21.7336  -43.1839 C.3       10 UNK         0.1400 
     23 CB          0.0049  -21.0702  -42.3054 C.3       10 UNK        -0.1800 
     24 N          -2.2661  -20.8932  -43.2133 N.am      10 UNK        -0.5000 
     25 C          -3.4504  -21.2764  -43.7110 C.2       9 UNK         0.5000 
     26 O          -3.6656  -22.3887  -44.1891 O.2       9 UNK        -0.5000 
     27 CA         -4.5752  -20.2270  -43.7067 C.3       9 UNK         0.1400 
     28 CB         -5.2402  -20.1479  -42.3244 C.3       9 UNK        -0.1800 
     29 N          -4.1063  -18.8984  -44.0982 N.am      9 UNK        -0.5000 
     30 C          -3.6530  -18.5875  -45.3205 C.2       8 UNK         0.5000 
     31 O          -3.5852  -19.3884  -46.2521 O.2       8 UNK        -0.5000 
     32 CA         -3.1451  -17.1474  -45.5102 C.3       8 UNK         0.1400 
     33 CB         -4.3271  -16.1833  -45.6969 C.3       8 UNK        -0.1800 
     34 N          -2.3069  -16.6710  -44.4045 N.am      8 UNK        -0.5000 
     35 C          -1.1821  -17.2654  -43.9878 C.2       7 UNK         0.5000 
     36 O          -0.7507  -18.3202  -44.4580 O.2       7 UNK        -0.5000 
     37 CA         -0.4440  -16.6046  -42.8177 C.3       7 UNK         0.1400 
     38 CB         -1.1209  -16.9629  -41.4810 C.3       7 UNK        -0.1800 
     39 N           0.9333  -17.0787  -42.8343 N.am      7 UNK        -0.5000 
     40 C           1.9627  -16.5829  -42.1462 C.2       6 UNK         0.5000 
     41 O           1.8747  -15.6353  -41.3638 O.2       6 UNK        -0.5000 
     42 CA          3.3382  -17.2237  -42.4074 C.3       6 UNK         0.1400 
     43 CB          3.3554  -18.7357  -42.1023 C.3       6 UNK        -0.1800 
     44 N           3.8351  -16.9177  -43.7523 N.am      6 UNK        -0.5000 
     45 C           3.3436  -17.3137  -44.9378 C.2       5 UNK         0.5000 
     46 O           2.4627  -18.1643  -45.0622 O.2       5 UNK        -0.5000 
     47 CA          3.9135  -16.6102  -46.1852 C.3       5 UNK         0.1400 
     48 CB          2.8863  -16.5300  -47.3298 C.3       5 UNK        -0.1800 
     49 N           4.3395  -15.2559  -45.8339 N.am      5 UNK        -0.5000 
     50 C           5.5583  -14.7422  -46.0309 C.2       4 UNK         0.5000 
     51 O           6.4627  -15.3251  -46.6298 O.2       4 UNK        -0.5000 
     52 CA          5.8242  -13.3506  -45.4236 C.3       4 UNK         0.1400 
     53 CB          5.3381  -12.2473  -46.3755 C.3       4 UNK        -0.1800 
     54 N           5.2134  -13.1429  -44.1070 N.am      4 UNK        -0.5000 
     55 C           5.4254  -13.8720  -43.0031 C.2       3 UNK         0.5000 
     56 O           6.1402  -14.8735  -42.9750 O.2       3 UNK        -0.5000 
     57 CA          4.6810  -13.4485  -41.7204 C.3       3 UNK         0.1400 
     58 CB          5.3792  -12.2659  -41.0225 C.3       3 UNK        -0.1800 
     59 N           3.2490  -13.2028  -41.9290 N.am      3 UNK        -0.5000 
     60 C           2.6612  -12.2214  -42.6230 C.2       2 UNK         0.5000 
     61 O           3.2658  -11.2790  -43.1410 O.2       2 UNK        -0.5000 
     62 CA          1.1436  -12.3529  -42.8346 C.3       2 UNK         0.1400 
     63 CB          0.3809  -11.2779  -42.0473 C.3       2 UNK        -0.1800 
     64 N           0.8169  -12.2354  -44.2539 N.am      2 UNK        -0.5000 
     65 C           1.2220  -13.0823  -45.2085 C.2       1 UNK         0.5000 
     66 O           1.8527  -14.1142  -44.9746 O.2       1 UNK        -0.5000 
     67 C          -1.0398  -21.9096  -47.6559 C.2       11 UNK         0.5000 
     68 O          -0.5664  -22.7085  -48.4649 O.2       11 UNK        -0.5000 
     69 N          -2.3532  -21.7891  -47.4157 N.am      12 UNK        -0.5000 
     70 CA         -3.3779  -22.6288  -48.0270 C.3       12 UNK         0.1400 
     71 CB         -4.7693  -22.0543  -47.7191 C.3       12 UNK        -0.1800 
     72 C          -3.2699  -24.1015  -47.5917 C.2       12 UNK         0.5000 
     73 O          -3.2481  -24.9836  -48.4505 O.2       12 UNK        -0.5000 
     74 N          -3.1909  -24.3379  -46.2742 N.am      13 UNK        -0.5000 
     75 CA         -3.1313  -25.6708  -45.6704 C.3       13 UNK         0.1400 
     76 CB         -3.2819  -25.5527  -44.1463 C.3       13 UNK        -0.1800 
     77 C          -1.8564  -26.4581  -46.0190 C.2       13 UNK         0.5000 
     78 O          -1.9305  -27.6766  -46.1843 O.2       13 UNK        -0.5000 
     79 N          -0.7218  -25.7593  -46.1317 N.am      14 UNK        -0.5000 
     80 CA          0.5794  -26.3318  -46.4505 C.3       14 UNK         0.1400 
     81 CB          1.3958  -26.4556  -45.1501 C.3       14 UNK        -0.1800 
     82 C           1.2777  -25.4580  -47.5109 C.2       14 UNK         0.5000 
     83 O           2.1550  -24.6704  -47.1577 O.2       14 UNK        -0.5000 
     84 N           0.9217  -25.5496  -48.7993 N.am      15 UNK        -0.5000 
     85 CA         -0.1176  -26.3754  -49.4230 C.3       15 UNK         0.1400 
     86 CB          0.4257  -27.7958  -49.6908 C.3       15 UNK        -0.1800 
     87 C          -0.5982  -25.6983  -50.7247 C.2       15 UNK         0.5000 
     88 O          -0.9563  -26.3852  -51.6826 O.2       15 UNK        -0.5000 
     89 N          -0.5440  -24.3612  -50.7693 N.am      16 UNK        -0.5000 
     90 CA         -0.6569  -23.5539  -51.9844 C.3       16 UNK         0.1400 
     91 CB          0.4204  -22.4561  -51.9372 C.3       16 UNK        -0.1800 
     92 C          -2.0697  -22.9863  -52.2204 C.2       16 UNK         0.5000 
     93 O          -2.2077  -21.9974  -52.9419 O.2       16 UNK        -0.5000 
     94 N          -3.1049  -23.6231  -51.6516 N.am      17 UNK        -0.5000 
     95 CA         -4.5132  -23.2359  -51.8055 C.3       17 UNK         0.1400 
     96 CB         -5.4083  -24.1845  -50.9952 C.3       17 UNK        -0.1800 
     97 C          -4.9971  -23.2026  -53.2661 C.2       17 UNK         0.5000 
     98 O          -5.7669  -22.3126  -53.6272 O.2       17 UNK        -0.5000 
     99 N          -4.5285  -24.1589  -54.0780 N.am      18 UNK        -0.5000 
    100 CA        -4.8482  -24.2562  -55.5025 C.3       18 UNK         0.1400 
    101 CB        -4.4887  -25.6628  -56.0044 C.3       18 UNK        -0.1800 
    102 C         -4.1362  -23.1833  -56.3469 C.2       18 UNK         0.5000 
    103 O         -4.7066  -22.7095  -57.3294 O.2       18 UNK        -0.5000 
    104 N         -2.9114  -22.8153  -55.9463 N.am      19 UNK        -0.5000 
    105 CA        -2.0903  -21.8029  -56.6108 C.3       19 UNK         0.1400 
    106 CB        -0.6216  -21.9851  -56.1974 C.3       19 UNK        -0.1800 
    107 C         -2.5752  -20.3777  -56.2980 C.2       19 UNK         0.5000 
    108 O         -2.6417  -19.5425  -57.2004 O.2       19 UNK        -0.5000 
    109 N         -2.9256  -20.1362  -55.0282 N.am      20 UNK        -0.5000 
    110 CA        -3.4609  -18.8655  -54.5380 C.3       20 UNK         0.1400 
    111 CB        -3.2754  -18.8203  -53.0160 C.3       20 UNK        -0.1800 
    112 C         -4.9421  -18.6431  -54.9015 C.2       20 UNK         0.5000 
    113 O         -5.4170  -17.5106  -54.8125 O.2       20 UNK        -0.5000 
    114 N         -5.6395  -19.7245  -55.2825 N.am      21 UNK        -0.5000 
    115 CA        -7.0804  -19.8157  -55.5443 C.3       21 UNK         0.1400 
    116 CB        -7.4994  -18.9222  -56.7305 C.3       21 UNK        -0.1800 
    117 C         -7.9302  -19.5899  -54.2741 C.2       21 UNK         0.5000 
    118 O         -9.0557  -19.0943  -54.3570 O.2       21 UNK        -0.5000 
    119 N         -7.3727  -19.9828  -53.1233 N.am      22 UNK        -0.5000 
    120 CA        -8.0342  -19.9963  -51.8107 C.3       22 UNK         0.1400 
    121 C         -8.8054  -21.3195  -51.5369 C.2       22 UNK         0.5000 
    122 N         -8.5884  -22.3856  -52.2995 N.am      22 UNK        -0.7600 
    123 O         -9.6232  -21.3758  -50.6229 O.2       22 UNK        -0.5000 
    124 C124       -7.0365  -19.7021  -50.6610 C.3       23 UNK        -0.0398 
    125 S125       -6.2455  -18.0657  -50.8185 S.3       23 UNK        -0.2404 
    126 C126       -5.4476  -17.9010  -49.1909 C.3       23 UNK        -0.0205 
    127 H127        1.5011   -8.3408  -47.7289 H         1 UNK         0.0600 
    128 H128        2.9032   -9.4101  -47.8320 H         1 UNK         0.0600 
    129 H129        2.5786   -8.5236  -46.3401 H         1 UNK         0.0600 
    130 H130        2.3507  -11.5363  -47.6786 H         1 UNK         0.3000 
    131 H131        1.4054  -13.4403  -47.2961 H         1 UNK         0.0600 
    132 H132       -0.7841  -12.2273  -47.9495 H         1 UNK         0.0800 
    133 H133       -1.1872  -12.1925  -46.2594 H         1 UNK         0.0800 
    134 H134       -2.4172  -13.8148  -49.1270 H         1 UNK         0.0800 
    135 H135       -0.7799  -14.3221  -49.4889 H         1 UNK         0.0800 
    136 H136       -4.2216  -15.4839  -48.8260 H         1 UNK         0.1150 
    137 H137       -3.4035  -19.5687  -49.8258 H         1 UNK         0.1150 
    138 H138       -0.2030  -16.7189  -49.6562 H         1 UNK         0.1150 
    139 H139       -1.2133  -20.3297  -50.1743 H         1 UNK         0.0800 
    140 H140       -0.3613  -19.1926  -51.1872 H         1 UNK         0.0800 
    141 H141        0.5696  -18.9470  -46.7540 H         1 UNK         0.0800 
    142 H142       -1.0220  -19.1129  -47.4096 H         1 UNK         0.0800 
    143 H143        0.9038  -21.4395  -46.8895 H         1 UNK         0.0600 
    144 H144       -0.7029  -20.0477  -45.0536 H         1 UNK         0.3000 
    145 H145       -1.3355  -22.6903  -42.7302 H         1 UNK         0.0600 
    146 H146       -0.3498  -20.9357  -41.2836 H         1 UNK         0.0600 
    147 H147        0.9050  -21.6845  -42.2591 H         1 UNK         0.0600 
    148 H148        0.2962  -20.0925  -42.6893 H         1 UNK         0.0600 
    149 H149       -2.1619  -19.9422  -42.8943 H         1 UNK         0.3000 
    150 H150       -5.3291  -20.5456  -44.4298 H         1 UNK         0.0600 
    151 H151       -5.6117  -21.1255  -42.0144 H         1 UNK         0.0600 
    152 H152       -6.0913  -19.4668  -42.3351 H         1 UNK         0.0600 
    153 H153       -4.5436  -19.8034  -41.5590 H         1 UNK         0.0600 
    154 H154       -4.1179  -18.1799  -43.3898 H         1 UNK         0.3000 
    155 H155       -2.5382  -17.1346  -46.4176 H         1 UNK         0.0600 
    156 H156       -3.9844  -15.1875  -45.9772 H         1 UNK         0.0600 
    157 H157       -4.9211  -16.0902  -44.7872 H         1 UNK         0.0600 
    158 H158       -4.9940  -16.5292  -46.4863 H         1 UNK         0.0600 
    159 H159       -2.5998  -15.8123  -43.9621 H         1 UNK         0.3000 
    160 H160       -0.4483  -15.5229  -42.9656 H         1 UNK         0.0600 
    161 H161       -1.0949  -18.0373  -41.2949 H         1 UNK         0.0600 
    162 H162       -2.1662  -16.6520  -41.4721 H         1 UNK         0.0600 
    163 H163       -0.6341  -16.4678  -40.6409 H         1 UNK         0.0600 
    164 H164        1.1184  -17.7902  -43.5384 H         1 UNK         0.3000 
    165 H165        4.0401  -16.7518  -41.7182 H         1 UNK         0.0600 
    166 H166        2.6844  -19.3026  -42.7471 H         1 UNK         0.0600 
    167 H167        4.3574  -19.1470  -42.2233 H         1 UNK         0.0600 
    168 H168        3.0486  -18.9249  -41.0731 H         1 UNK         0.0600 
    169 H169        4.5810  -16.2334  -43.7781 H         1 UNK         0.3000 
    170 H170        4.7632  -17.2066  -46.5223 H         1 UNK         0.0600 
    171 H171        2.6189  -17.5261  -47.6821 H         1 UNK         0.0600 
    172 H172        1.9665  -16.0364  -47.0128 H         1 UNK         0.0600 
    173 H173        3.2855  -15.9818  -48.1829 H         1 UNK         0.0600 
    174 H174        3.6359  -14.7035  -45.3492 H         1 UNK         0.3000 
    175 H175        6.9041  -13.2468  -45.3016 H         1 UNK         0.0600 
    176 H176        4.2556  -12.2761  -46.4985 H         1 UNK         0.0600 
    177 H177        5.6065  -11.2582  -46.0039 H         1 UNK         0.0600 
    178 H178        5.7861  -12.3560  -47.3641 H         1 UNK         0.0600 
    179 H179        4.5886  -12.3469  -44.0131 H         1 UNK         0.3000 
    180 H180        4.7295  -14.2978  -41.0370 H         1 UNK         0.0600 
    181 H181        5.4229  -11.3795  -41.6555 H         1 UNK         0.0600 
    182 H182        6.4056  -12.5247  -40.7600 H         1 UNK         0.0600 
    183 H183        4.8664  -11.9946  -40.0998 H         1 UNK         0.0600 
    184 H184        2.6523  -13.9608  -41.6022 H         1 UNK         0.3000 
    185 H185        0.8125  -13.3346  -42.4906 H         1 UNK         0.0600 
    186 H186        0.6539  -10.2727  -42.3717 H         1 UNK         0.0600 
    187 H187       -0.6965  -11.3890  -42.1706 H         1 UNK         0.0600 
    188 H188        0.5962  -11.3500  -40.9805 H         1 UNK         0.0600 
    189 H189        0.4023  -11.3596  -44.5578 H         1 UNK         0.3000 
    190 H190       -2.6785  -21.0674  -46.7791 H         1 UNK         0.3000 
    191 H191       -3.2320  -22.5889  -49.1068 H         1 UNK         0.0600 
    192 H192       -5.5609  -22.6790  -48.1327 H         1 UNK         0.0600 
    193 H193       -4.8830  -21.0601  -48.1491 H         1 UNK         0.0600 
    194 H194       -4.9443  -21.9743  -46.6461 H         1 UNK         0.0600 
    195 H195       -3.2332  -23.5549  -45.6264 H         1 UNK         0.3000 
    196 H196       -3.9813  -26.2417  -46.0499 H         1 UNK         0.0600 
    197 H197       -3.2493  -26.5338  -43.6710 H         1 UNK         0.0600 
    198 H198       -4.2340  -25.0944  -43.8786 H         1 UNK         0.0600 
    199 H199       -2.4843  -24.9489  -43.7112 H         1 UNK         0.0600 
    200 H200       -0.7281  -24.7593  -45.9459 H         1 UNK         0.3000 
    201 H201        0.4705  -27.3366  -46.8545 H         1 UNK         0.0600 
    202 H202        0.9120  -27.1330  -44.4462 H         1 UNK         0.0600 
    203 H203        1.5149  -25.4910  -44.6547 H         1 UNK         0.0600 
    204 H204        2.3923  -26.8510  -45.3499 H         1 UNK         0.0600 
    205 H205        1.3964  -24.9408  -49.4504 H         1 UNK         0.3000 
    206 H206       -0.9863  -26.4419  -48.7700 H         1 UNK         0.0600 
    207 H207        0.8071  -28.2792  -48.7939 H         1 UNK         0.0600 
    208 H208       -0.3568  -28.4428  -50.0892 H         1 UNK         0.0600 
    209 H209        1.2369  -27.7778  -50.4197 H         1 UNK         0.0600 
    210 H210       -0.3780  -23.8435  -49.9065 H         1 UNK         0.3000 
    211 H211       -0.4391  -24.1736  -52.8566 H         1 UNK         0.0600 
    212 H212        0.3324  -21.8486  -51.0386 H         1 UNK         0.0600 
    213 H213        0.3636  -21.7888  -52.7976 H         1 UNK         0.0600 
    214 H214        1.4189  -22.8931  -51.9385 H         1 UNK         0.0600 
    215 H215       -2.9110  -24.4266  -51.0696 H         1 UNK         0.3000 
    216 H216       -4.6233  -22.2276  -51.4019 H         1 UNK         0.0600 
    217 H217       -6.4622  -23.9320  -51.1173 H         1 UNK         0.0600 
    218 H218       -5.1937  -24.1278  -49.9319 H         1 UNK         0.0600 
    219 H219       -5.2815  -25.2222  -51.3056 H         1 UNK         0.0600 
    220 H220       -3.9085  -24.8581  -53.6961 H         1 UNK         0.3000 
    221 H221       -5.9244  -24.1159  -55.6257 H         1 UNK         0.0600 
    222 H222       -3.4243  -25.8725  -55.8910 H         1 UNK         0.0600 
    223 H223       -5.0419  -26.4285  -55.4603 H         1 UNK         0.0600 
    224 H224       -4.7348  -25.7748  -57.0612 H         1 UNK         0.0600 
    225 H225       -2.5395  -23.2164  -55.0986 H         1 UNK         0.3000 
    226 H226       -2.1583  -21.9522  -57.6906 H         1 UNK         0.0600 
    227 H227       -0.2568  -22.9769  -56.4650 H         1 UNK         0.0600 
    228 H228        0.0171  -21.2575  -56.6997 H         1 UNK         0.0600 
    229 H229       -0.4837  -21.8555  -55.1239 H         1 UNK         0.0600 
    230 H230       -2.7844  -20.8651  -54.3324 H         1 UNK         0.3000 
    231 H231       -2.8847  -18.0489  -54.9777 H         1 UNK         0.0600 
    232 H232       -3.6145  -17.8680  -52.6060 H         1 UNK         0.0600 
    233 H233       -2.2261  -18.9341  -52.7471 H         1 UNK         0.0600 
    234 H234       -3.8368  -19.6120  -52.5179 H         1 UNK         0.0600 
    235 H235       -5.1468  -20.6069  -55.2899 H         1 UNK         0.3000 
    236 H236       -7.2598  -20.8505  -55.8399 H         1 UNK         0.0600 
    237 H237       -6.8698  -19.1036  -57.6017 H         1 UNK         0.0600 
    238 H238       -8.5288  -19.1266  -57.0268 H         1 UNK         0.0600 
    239 H239       -7.4373  -17.8620  -56.4848 H         1 UNK         0.0600 
    240 H240       -6.4780  -20.4537  -53.1770 H         1 UNK         0.3000 
    241 H241       -8.7857  -19.2046  -51.7966 H         1 UNK         0.0600 
    242 H242       -7.8887  -22.3573  -53.0283 H         1 UNK         0.3800 
    243 H243       -9.1034  -23.2339  -52.1256 H         1 UNK         0.3800 
    244 H244       -7.5505  -19.7353  -49.6984 H         1 UNK         0.0800 
    245 H245       -6.2567  -20.4642  -50.6228 H         1 UNK         0.0800 
    246 H246       -5.5484  -18.8195  -48.6122 H         1 UNK         0.0800 
    247 H247       -5.9698  -17.1287  -48.6251 H         1 UNK         0.0800 
@<TRIPOS>BOND
     1    1    2 1    
     2    1  127 1    
     3    1  128 1    
     4    1  129 1    
     5    2    3 2    
     6    2    4 am   BACKBONE|DICT|INTERRES
     7    4    5 1    
     8    4  130 1    
     9    5    6 1    
    10    5   65 1    
    11    5  131 1    
    12    6    7 1    
    13    6  132 1    
    14    6  133 1    
    15    7    8 1    
    16    8    9 1    
    17    8  134 1    
    18    8  135 1    
    19    9   10 ar   
    20    9   14 ar   
    21   10   11 ar   
    22   10  136 1    
    23   11   12 ar   
    24   11  126 1    
    25   12   13 ar   
    26   12  137 1    
    27   13   14 ar   
    28   13   15 1    
    29   14  138 1    
    30   15   16 1    
    31   15  139 1    
    32   15  140 1    
    33   16   17 1    
    34   17   18 1    
    35   17  141 1    
    36   17  142 1    
    37   18   19 1    
    38   18   67 1    
    39   18  143 1    
    40   19   20 am   BACKBONE|DICT|INTERRES
    41   19  144 1    
    42   20   21 2    
    43   20   22 1    
    44   22   23 1    
    45   22   24 1    
    46   22  145 1    
    47   23  146 1    
    48   23  147 1    
    49   23  148 1    
    50   24   25 am   BACKBONE|DICT|INTERRES
    51   24  149 1    
    52   25   26 2    
    53   25   27 1    
    54   27   28 1    
    55   27   29 1    
    56   27  150 1    
    57   28  151 1    
    58   28  152 1    
    59   28  153 1    
    60   29   30 am   BACKBONE|DICT|INTERRES
    61   29  154 1    
    62   30   31 2    
    63   30   32 1    
    64   32   33 1    
    65   32   34 1    
    66   32  155 1    
    67   33  156 1    
    68   33  157 1    
    69   33  158 1    
    70   34   35 am   BACKBONE|DICT|INTERRES
    71   34  159 1    
    72   35   36 2    
    73   35   37 1    
    74   37   38 1    
    75   37   39 1    
    76   37  160 1    
    77   38  161 1    
    78   38  162 1    
    79   38  163 1    
    80   39   40 am   BACKBONE|DICT|INTERRES
    81   39  164 1    
    82   40   41 2    
    83   40   42 1    
    84   42   43 1    
    85   42   44 1    
    86   42  165 1    
    87   43  166 1    
    88   43  167 1    
    89   43  168 1    
    90   44   45 am   BACKBONE|DICT|INTERRES
    91   44  169 1    
    92   45   46 2    
    93   45   47 1    
    94   47   48 1    
    95   47   49 1    
    96   47  170 1    
    97   48  171 1    
    98   48  172 1    
    99   48  173 1    
   100   49   50 am   BACKBONE|DICT|INTERRES
   101   49  174 1    
   102   50   51 2    
   103   50   52 1    
   104   52   53 1    
   105   52   54 1    
   106   52  175 1    
   107   53  176 1    
   108   53  177 1    
   109   53  178 1    
   110   54   55 am   BACKBONE|DICT|INTERRES
   111   54  179 1    
   112   55   56 2    
   113   55   57 1    
   114   57   58 1    
   115   57   59 1    
   116   57  180 1    
   117   58  181 1    
   118   58  182 1    
   119   58  183 1    
   120   59   60 am   BACKBONE|DICT|INTERRES
   121   59  184 1    
   122   60   61 2    
   123   60   62 1    
   124   62   63 1    
   125   62   64 1    
   126   62  185 1    
   127   63  186 1    
   128   63  187 1    
   129   63  188 1    
   130   64   65 am   BACKBONE|DICT|INTERRES
   131   64  189 1    
   132   65   66 2    
   133   67   68 2    
   134   67   69 am   BACKBONE|DICT|INTERRES
   135   69   70 1    
   136   69  190 1    
   137   70   71 1    
   138   70   72 1    
   139   70  191 1    
   140   71  192 1    
   141   71  193 1    
   142   71  194 1    
   143   72   73 2    
   144   72   74 am   BACKBONE|DICT|INTERRES
   145   74   75 1    
   146   74  195 1    
   147   75   76 1    
   148   75   77 1    
   149   75  196 1    
   150   76  197 1    
   151   76  198 1    
   152   76  199 1    
   153   77   78 2    
   154   77   79 am   BACKBONE|DICT|INTERRES
   155   79   80 1    
   156   79  200 1    
   157   80   81 1    
   158   80   82 1    
   159   80  201 1    
   160   81  202 1    
   161   81  203 1    
   162   81  204 1    
   163   82   83 2    
   164   82   84 am   BACKBONE|DICT|INTERRES
   165   84   85 1    
   166   84  205 1    
   167   85   86 1    
   168   85   87 1    
   169   85  206 1    
   170   86  207 1    
   171   86  208 1    
   172   86  209 1    
   173   87   88 2    
   174   87   89 am   BACKBONE|DICT|INTERRES
   175   89   90 1    
   176   89  210 1    
   177   90   91 1    
   178   90   92 1    
   179   90  211 1    
   180   91  212 1    
   181   91  213 1    
   182   91  214 1    
   183   92   93 2    
   184   92   94 am   BACKBONE|DICT|INTERRES
   185   94   95 1    
   186   94  215 1    
   187   95   96 1    
   188   95   97 1    
   189   95  216 1    
   190   96  217 1    
   191   96  218 1    
   192   96  219 1    
   193   97   98 2    
   194   97   99 am   BACKBONE|DICT|INTERRES
   195   99  100 1    
   196   99  220 1    
   197  100  101 1    
   198  100  102 1    
   199  100  221 1    
   200  101  222 1    
   201  101  223 1    
   202  101  224 1    
   203  102  103 2    
   204  102  104 am   BACKBONE|DICT|INTERRES
   205  104  105 1    
   206  104  225 1    
   207  105  106 1    
   208  105  107 1    
   209  105  226 1    
   210  106  227 1    
   211  106  228 1    
   212  106  229 1    
   213  107  108 2    
   214  107  109 am   BACKBONE|DICT|INTERRES
   215  109  110 1    
   216  109  230 1    
   217  110  111 1    
   218  110  112 1    
   219  110  231 1    
   220  111  232 1    
   221  111  233 1    
   222  111  234 1    
   223  112  113 2    
   224  112  114 am   BACKBONE|DICT|INTERRES
   225  114  115 1    
   226  114  235 1    
   227  115  116 1    
   228  115  117 1    
   229  115  236 1    
   230  116  237 1    
   231  116  238 1    
   232  116  239 1    
   233  117  118 2    
   234  117  119 am   BACKBONE|DICT|INTERRES
   235  119  120 1    
   236  119  240 1    
   237  120  121 1    
   238  120  124 1    
   239  120  241 1    
   240  121  122 am   BACKBONE|DICT|INTERRES
   241  121  123 2    
   242  122  242 1    
   243  122  243 1    
   244  124  125 1    
   245  124  244 1    
   246  124  245 1    
   247  125  126 1    
   248  126  246 1    
   249  126  247 1    
@<TRIPOS>SUBSTRUCTURE
     1 UNK         1 GROUP             0       ****    0 ROOT    
