@<TRIPOS>MOLECULE
3R540
247   249    1
SMALL
USER_CHARGES


@<TRIPOS>ATOM
      1 CA          4.9633  -13.3520  -42.2704 C.3       0 UNK        -0.1800 
      2 C           3.7538  -12.8338  -43.0358 C.2       0 UNK         0.5000 
      3 O           3.4030  -11.6626  -42.8856 O.2       0 UNK        -0.5000 
      4 N           3.1223  -13.6849  -43.8555 N.am      1 UNK        -0.5000 
      5 CA          2.0459  -13.2920  -44.7724 C.3       1 UNK         0.1400 
      6 C6          1.0219  -14.4349  -45.0323 C.3       23 UNK        -0.0398 
      7 S7         -0.6842  -13.8947  -44.6603 S.3       23 UNK        -0.2404 
      8 C8         -1.3947  -13.5669  -46.3061 C.3       23 UNK        -0.0205 
      9 C9         -2.0704  -14.7969  -46.8922 C.ar      23 UNK        -0.0193 
     10 C10        -3.4255  -15.0432  -46.6482 C.ar      23 UNK        -0.1150 
     11 C11        -4.0500  -16.1749  -47.1827 C.ar      23 UNK        -0.0193 
     12 C12        -3.3051  -17.0650  -47.9578 C.ar      23 UNK        -0.1150 
     13 C13        -1.9558  -16.8252  -48.2239 C.ar      23 UNK        -0.0193 
     14 C14        -1.3464  -15.6835  -47.6916 C.ar      23 UNK        -0.1150 
     15 C15        -1.1717  -17.8243  -49.0681 C.3       23 UNK        -0.0205 
     16 S16         0.4633  -18.2387  -48.3771 S.3       23 UNK        -0.2404 
     17 C17         0.0356  -18.7183  -46.6674 C.3       23 UNK        -0.0398 
     18 CA          0.1532  -20.2357  -46.4188 C.3       11 UNK         0.1400 
     19 N           0.2293  -20.5330  -44.9893 N.am      11 UNK        -0.5000 
     20 C           0.5089  -21.7340  -44.4667 C.2       10 UNK         0.5000 
     21 O           0.7925  -22.7264  -45.1372 O.2       10 UNK        -0.5000 
     22 CA          0.4039  -21.8495  -42.9365 C.3       10 UNK         0.1400 
     23 CB          1.6814  -21.3401  -42.2506 C.3       10 UNK        -0.1800 
     24 N          -0.7539  -21.1167  -42.4232 N.am      10 UNK        -0.5000 
     25 C          -2.0263  -21.5033  -42.5937 C.2       9 UNK         0.5000 
     26 O          -2.3548  -22.5526  -43.1482 O.2       9 UNK        -0.5000 
     27 CA         -3.1135  -20.5389  -42.0828 C.3       9 UNK         0.1400 
     28 CB         -3.3951  -20.7831  -40.5928 C.3       9 UNK        -0.1800 
     29 N          -2.7693  -19.1293  -42.2844 N.am      9 UNK        -0.5000 
     30 C          -2.6653  -18.5391  -43.4839 C.2       8 UNK         0.5000 
     31 O          -2.8485  -19.1220  -44.5484 O.2       8 UNK        -0.5000 
     32 CA         -2.2375  -17.0626  -43.5002 C.3       8 UNK         0.1400 
     33 CB         -3.4568  -16.1544  -43.2807 C.3       8 UNK        -0.1800 
     34 N          -1.2125  -16.7495  -42.5024 N.am      8 UNK        -0.5000 
     35 C           0.0001  -17.3132  -42.4431 C.2       7 UNK         0.5000 
     36 O           0.3977  -18.1864  -43.2205 O.2       7 UNK        -0.5000 
     37 CA          0.8921  -16.8589  -41.2837 C.3       7 UNK         0.1400 
     38 CB          0.4464  -17.5259  -39.9682 C.3       7 UNK        -0.1800 
     39 N           2.2744  -17.2161  -41.5756 N.am      7 UNK        -0.5000 
     40 C           3.3515  -16.6680  -41.0034 C.2       6 UNK         0.5000 
     41 O           3.2907  -15.7707  -40.1622 O.2       6 UNK        -0.5000 
     42 CA          4.7322  -17.2170  -41.4138 C.3       6 UNK         0.1400 
     43 CB          5.2903  -18.1277  -40.3087 C.3       6 UNK        -0.1800 
     44 N           4.7307  -17.9624  -42.6748 N.am      6 UNK        -0.5000 
     45 C           4.6313  -17.4114  -43.8909 C.2       5 UNK         0.5000 
     46 O           4.4962  -16.2015  -44.0761 O.2       5 UNK        -0.5000 
     47 CA          4.7225  -18.3992  -45.0719 C.3       5 UNK         0.1400 
     48 CB          3.5483  -19.3975  -45.0538 C.3       5 UNK        -0.1800 
     49 N           4.8437  -17.7693  -46.3926 N.am      5 UNK        -0.5000 
     50 C           3.9478  -17.0091  -47.0383 C.2       4 UNK         0.5000 
     51 O           2.8630  -16.6517  -46.5730 O.2       4 UNK        -0.5000 
     52 CA          4.3220  -16.6263  -48.4798 C.3       4 UNK         0.1400 
     53 CB          4.3494  -17.8828  -49.3793 C.3       4 UNK        -0.1800 
     54 N           3.3476  -15.6610  -48.9789 N.am      4 UNK        -0.5000 
     55 C           3.4035  -14.9958  -50.1383 C.2       3 UNK         0.5000 
     56 O           4.3366  -15.0792  -50.9380 O.2       3 UNK        -0.5000 
     57 CA          2.2166  -14.0689  -50.4523 C.3       3 UNK         0.1400 
     58 CB          0.9435  -14.8765  -50.7509 C.3       3 UNK        -0.1800 
     59 N           1.9660  -13.1235  -49.3638 N.am      3 UNK        -0.5000 
     60 C           2.6960  -12.0177  -49.1611 C.2       2 UNK         0.5000 
     61 O           3.6310  -11.6718  -49.8848 O.2       2 UNK        -0.5000 
     62 CA          2.3182  -11.1381  -47.9538 C.3       2 UNK         0.1400 
     63 CB          1.2183  -10.1380  -48.3426 C.3       2 UNK        -0.1800 
     64 N           1.8893  -11.8802  -46.7653 N.am      2 UNK        -0.5000 
     65 C           2.6523  -12.7422  -46.0799 C.2       1 UNK         0.5000 
     66 O           3.7818  -13.0882  -46.4359 O.2       1 UNK        -0.5000 
     67 C          -0.9914  -21.0123  -47.1012 C.2       11 UNK         0.5000 
     68 O          -0.7717  -21.6128  -48.1518 O.2       11 UNK        -0.5000 
     69 N          -2.1766  -21.0308  -46.4746 N.am      12 UNK        -0.5000 
     70 CA         -3.3824  -21.7031  -46.9617 C.3       12 UNK         0.1400 
     71 CB         -4.5607  -21.4030  -46.0240 C.3       12 UNK        -0.1800 
     72 C          -3.2279  -23.2189  -47.1636 C.2       12 UNK         0.5000 
     73 O          -3.8828  -23.7722  -48.0446 O.2       12 UNK        -0.5000 
     74 N          -2.3500  -23.8573  -46.3781 N.am      13 UNK        -0.5000 
     75 CA         -1.9954  -25.2689  -46.5226 C.3       13 UNK         0.1400 
     76 CB         -1.2312  -25.7296  -45.2726 C.3       13 UNK        -0.1800 
     77 C          -1.1782  -25.5524  -47.7993 C.2       13 UNK         0.5000 
     78 O          -1.3344  -26.6213  -48.3894 O.2       13 UNK        -0.5000 
     79 N          -0.3368  -24.5938  -48.2110 N.am      14 UNK        -0.5000 
     80 CA          0.4620  -24.6619  -49.4356 C.3       14 UNK         0.1400 
     81 CB          1.7318  -23.8138  -49.2605 C.3       14 UNK        -0.1800 
     82 C          -0.3417  -24.1946  -50.6621 C.2       14 UNK         0.5000 
     83 O          -0.2331  -24.7955  -51.7306 O.2       14 UNK        -0.5000 
     84 N          -1.1466  -23.1400  -50.4790 N.am      15 UNK        -0.5000 
     85 CA         -2.0069  -22.5339  -51.4957 C.3       15 UNK         0.1400 
     86 CB         -2.3700  -21.1089  -51.0453 C.3       15 UNK        -0.1800 
     87 C          -3.2803  -23.3426  -51.8080 C.2       15 UNK         0.5000 
     88 O          -4.0108  -22.9600  -52.7241 O.2       15 UNK        -0.5000 
     89 N          -3.5534  -24.4073  -51.0401 N.am      16 UNK        -0.5000 
     90 CA         -4.6972  -25.3115  -51.1763 C.3       16 UNK         0.1400 
     91 CB         -4.5589  -26.4590  -50.1631 C.3       16 UNK        -0.1800 
     92 C          -4.8279  -25.8609  -52.6080 C.2       16 UNK         0.5000 
     93 O          -3.9279  -26.5621  -53.0749 O.2       16 UNK        -0.5000 
     94 N          -5.9098  -25.4650  -53.2928 N.am      17 UNK        -0.5000 
     95 CA         -6.2374  -25.6857  -54.7093 C.3       17 UNK         0.1400 
     96 CB         -6.3505  -27.1857  -55.0411 C.3       17 UNK        -0.1800 
     97 C          -5.3023  -24.9624  -55.7029 C.2       17 UNK         0.5000 
     98 O          -5.7934  -24.3896  -56.6754 O.2       17 UNK        -0.5000 
     99 N          -3.9902  -24.9745  -55.4357 N.am      18 UNK        -0.5000 
    100 CA        -2.9243  -24.3791  -56.2455 C.3       18 UNK         0.1400 
    101 CB        -1.5698  -24.7204  -55.6055 C.3       18 UNK        -0.1800 
    102 C         -3.0540  -22.8565  -56.4413 C.2       18 UNK         0.5000 
    103 O         -2.7320  -22.3541  -57.5189 O.2       18 UNK        -0.5000 
    104 N         -3.5364  -22.1591  -55.4079 N.am      19 UNK        -0.5000 
    105 CA        -3.8159  -20.7250  -55.4065 C.3       19 UNK         0.1400 
    106 CB        -2.5917  -19.9537  -54.8803 C.3       19 UNK        -0.1800 
    107 C         -5.1101  -20.4406  -54.6224 C.2       19 UNK         0.5000 
    108 O         -5.2207  -19.4084  -53.9588 O.2       19 UNK        -0.5000 
    109 N         -6.0648  -21.3821  -54.7021 N.am      20 UNK        -0.5000 
    110 CA        -7.4174  -21.3422  -54.1300 C.3       20 UNK         0.1400 
    111 CB        -8.2794  -20.3225  -54.9027 C.3       20 UNK        -0.1800 
    112 C         -7.4686  -21.1115  -52.6019 C.2       20 UNK         0.5000 
    113 O         -8.4447  -20.5506  -52.1035 O.2       20 UNK        -0.5000 
    114 N         -6.4065  -21.5150  -51.8890 N.am      21 UNK        -0.5000 
    115 CA        -6.1586  -21.3699  -50.4465 C.3       21 UNK         0.1400 
    116 CB        -7.2261  -22.1105  -49.6186 C.3       21 UNK        -0.1800 
    117 C         -5.9619  -19.9233  -49.9395 C.2       21 UNK         0.5000 
    118 O         -5.4262  -19.7570  -48.8467 O.2       21 UNK        -0.5000 
    119 N         -6.3719  -18.9079  -50.7064 N.am      22 UNK        -0.5000 
    120 CA        -6.2748  -17.4784  -50.3711 C.3       22 UNK         0.1400 
    121 C         -6.4693  -16.5619  -51.6181 C.2       22 UNK         0.5000 
    122 N         -6.2386  -17.0304  -52.8392 N.am      22 UNK        -0.7600 
    123 O         -6.8392  -15.3978  -51.4958 O.2       22 UNK        -0.5000 
    124 C124       -7.1806  -17.0926  -49.1605 C.3       23 UNK        -0.0398 
    125 S125       -6.5720  -15.6629  -48.1943 S.3       23 UNK        -0.2404 
    126 C126       -5.5247  -16.4399  -46.9203 C.3       23 UNK        -0.0205 
    127 H127        5.4246  -14.2017  -42.7703 H         1 UNK         0.0600 
    128 H128        5.7187  -12.5707  -42.1853 H         1 UNK         0.0600 
    129 H129        4.6723  -13.6536  -41.2648 H         1 UNK         0.0600 
    130 H130        3.5157  -14.6135  -44.0009 H         1 UNK         0.3000 
    131 H131        1.5175  -12.4567  -44.3076 H         1 UNK         0.0600 
    132 H132        1.0695  -14.8212  -46.0508 H         1 UNK         0.0800 
    133 H133        1.2355  -15.2956  -44.3971 H         1 UNK         0.0800 
    134 H134       -0.6287  -13.1950  -46.9861 H         1 UNK         0.0800 
    135 H135       -2.1263  -12.7630  -46.2117 H         1 UNK         0.0800 
    136 H136       -3.9945  -14.3547  -46.0395 H         1 UNK         0.1150 
    137 H137       -3.7781  -17.9501  -48.3541 H         1 UNK         0.1150 
    138 H138       -0.3003  -15.4973  -47.8782 H         1 UNK         0.1150 
    139 H139       -1.7362  -18.7508  -49.1824 H         1 UNK         0.0800 
    140 H140       -1.0412  -17.4158  -50.0706 H         1 UNK         0.0800 
    141 H141       -0.9543  -18.3608  -46.3857 H         1 UNK         0.0800 
    142 H142        0.7216  -18.1763  -46.0175 H         1 UNK         0.0800 
    143 H143        1.0912  -20.5796  -46.8602 H         1 UNK         0.0600 
    144 H144        0.0537  -19.7588  -44.3564 H         1 UNK         0.3000 
    145 H145        0.2832  -22.9062  -42.6881 H         1 UNK         0.0600 
    146 H146        1.6305  -21.4804  -41.1708 H         1 UNK         0.0600 
    147 H147        2.5572  -21.8836  -42.6074 H         1 UNK         0.0600 
    148 H148        1.8520  -20.2809  -42.4410 H         1 UNK         0.0600 
    149 H149       -0.5732  -20.2203  -41.9971 H         1 UNK         0.3000 
    150 H150       -4.0288  -20.7461  -42.6412 H         1 UNK         0.0600 
    151 H151       -3.6725  -21.8227  -40.4135 H         1 UNK         0.0600 
    152 H152       -4.2197  -20.1630  -40.2406 H         1 UNK         0.0600 
    153 H153       -2.5226  -20.5648  -39.9756 H         1 UNK         0.0600 
    154 H154       -2.5994  -18.5761  -41.4578 H         1 UNK         0.3000 
    155 H155       -1.8213  -16.8488  -44.4871 H         1 UNK         0.0600 
    156 H156       -3.8848  -16.2845  -42.2862 H         1 UNK         0.0600 
    157 H157       -3.1943  -15.1034  -43.3987 H         1 UNK         0.0600 
    158 H158       -4.2409  -16.3743  -44.0058 H         1 UNK         0.0600 
    159 H159       -1.4556  -16.0420  -41.8244 H         1 UNK         0.3000 
    160 H160        0.8121  -15.7731  -41.1969 H         1 UNK         0.0600 
    161 H161        0.5299  -18.6122  -40.0218 H         1 UNK         0.0600 
    162 H162       -0.5911  -17.2860  -39.7331 H         1 UNK         0.0600 
    163 H163        1.0506  -17.1873  -39.1264 H         1 UNK         0.0600 
    164 H164        2.3860  -17.9099  -42.3030 H         1 UNK         0.3000 
    165 H165        5.4045  -16.3634  -41.5197 H         1 UNK         0.0600 
    166 H166        6.2994  -18.4650  -40.5464 H         1 UNK         0.0600 
    167 H167        5.3430  -17.5998  -39.3554 H         1 UNK         0.0600 
    168 H168        4.6658  -19.0097  -40.1608 H         1 UNK         0.0600 
    169 H169        4.8487  -18.9622  -42.5991 H         1 UNK         0.3000 
    170 H170        5.6450  -18.9660  -44.9372 H         1 UNK         0.0600 
    171 H171        3.6258  -20.0815  -44.2092 H         1 UNK         0.0600 
    172 H172        2.5928  -18.8830  -44.9670 H         1 UNK         0.0600 
    173 H173        3.5232  -20.0063  -45.9576 H         1 UNK         0.0600 
    174 H174        5.7132  -17.9639  -46.8680 H         1 UNK         0.3000 
    175 H175        5.3065  -16.1550  -48.4667 H         1 UNK         0.0600 
    176 H176        3.3673  -18.3534  -49.4356 H         1 UNK         0.0600 
    177 H177        4.6640  -17.6483  -50.3956 H         1 UNK         0.0600 
    178 H178        5.0476  -18.6302  -49.0016 H         1 UNK         0.0600 
    179 H179        2.5692  -15.5244  -48.3469 H         1 UNK         0.3000 
    180 H180        2.4619  -13.5040  -51.3546 H         1 UNK         0.0600 
    181 H181        0.6620  -15.5143  -49.9155 H         1 UNK         0.0600 
    182 H182        1.0914  -15.5251  -51.6151 H         1 UNK         0.0600 
    183 H183        0.1009  -14.2224  -50.9754 H         1 UNK         0.0600 
    184 H184        1.2147  -13.3344  -48.7264 H         1 UNK         0.3000 
    185 H185        3.2086  -10.5692  -47.6779 H         1 UNK         0.0600 
    186 H186        1.5133   -9.5514  -49.2138 H         1 UNK         0.0600 
    187 H187        0.2831  -10.6427  -48.5886 H         1 UNK         0.0600 
    188 H188        1.0188   -9.4352  -47.5335 H         1 UNK         0.0600 
    189 H189        0.9833  -11.6336  -46.3942 H         1 UNK         0.3000 
    190 H190       -2.2993  -20.4564  -45.6428 H         1 UNK         0.3000 
    191 H191       -3.6106  -21.2782  -47.9371 H         1 UNK         0.0600 
    192 H192       -4.3593  -21.7357  -45.0056 H         1 UNK         0.0600 
    193 H193       -5.4687  -21.9031  -46.3632 H         1 UNK         0.0600 
    194 H194       -4.7764  -20.3348  -45.9961 H         1 UNK         0.0600 
    195 H195       -1.8642  -23.3301  -45.6651 H         1 UNK         0.3000 
    196 H196       -2.9206  -25.8458  -46.5860 H         1 UNK         0.0600 
    197 H197       -1.0065  -26.7956  -45.3246 H         1 UNK         0.0600 
    198 H198       -1.8167  -25.5634  -44.3680 H         1 UNK         0.0600 
    199 H199       -0.2845  -25.2005  -45.1606 H         1 UNK         0.0600 
    200 H200       -0.3008  -23.7226  -47.6968 H         1 UNK         0.3000 
    201 H201        0.7702  -25.6954  -49.6081 H         1 UNK         0.0600 
    202 H202        2.3261  -24.1654  -48.4170 H         1 UNK         0.0600 
    203 H203        1.4990  -22.7623  -49.0890 H         1 UNK         0.0600 
    204 H204        2.3623  -23.8691  -50.1487 H         1 UNK         0.0600 
    205 H205       -1.1174  -22.6669  -49.5774 H         1 UNK         0.3000 
    206 H206       -1.4441  -22.4615  -52.4285 H         1 UNK         0.0600 
    207 H207       -3.0706  -20.6310  -51.7305 H         1 UNK         0.0600 
    208 H208       -2.8343  -21.1068  -50.0609 H         1 UNK         0.0600 
    209 H209       -1.4822  -20.4785  -50.9947 H         1 UNK         0.0600 
    210 H210       -2.9172  -24.6119  -50.2838 H         1 UNK         0.3000 
    211 H211       -5.5952  -24.7434  -50.9274 H         1 UNK         0.0600 
    212 H212       -3.6326  -27.0161  -50.3106 H         1 UNK         0.0600 
    213 H213       -5.3857  -27.1643  -50.2553 H         1 UNK         0.0600 
    214 H214       -4.5643  -26.0885  -49.1386 H         1 UNK         0.0600 
    215 H215       -6.5624  -24.8660  -52.8079 H         1 UNK         0.3000 
    216 H216       -7.2284  -25.2502  -54.8478 H         1 UNK         0.0600 
    217 H217       -6.7132  -27.3303  -56.0595 H         1 UNK         0.0600 
    218 H218       -7.0514  -27.6856  -54.3726 H         1 UNK         0.0600 
    219 H219       -5.3907  -27.6970  -54.9647 H         1 UNK         0.0600 
    220 H220       -3.7005  -25.4870  -54.6071 H         1 UNK         0.3000 
    221 H221       -2.9650  -24.8423  -57.2333 H         1 UNK         0.0600 
    222 H222       -1.4914  -24.3208  -54.5932 H         1 UNK         0.0600 
    223 H223       -1.4202  -25.7988  -55.5504 H         1 UNK         0.0600 
    224 H224       -0.7450  -24.3073  -56.1876 H         1 UNK         0.0600 
    225 H225       -3.7575  -22.6452  -54.5411 H         1 UNK         0.3000 
    226 H226       -4.0136  -20.3904  -56.4267 H         1 UNK         0.0600 
    227 H227       -1.7236  -20.1167  -55.5189 H         1 UNK         0.0600 
    228 H228       -2.7784  -18.8795  -54.8584 H         1 UNK         0.0600 
    229 H229       -2.3234  -20.2650  -53.8724 H         1 UNK         0.0600 
    230 H230       -5.8609  -22.1893  -55.2753 H         1 UNK         0.3000 
    231 H231       -7.8466  -22.3310  -54.2967 H         1 UNK         0.0600 
    232 H232       -9.3245  -20.3746  -54.5952 H         1 UNK         0.0600 
    233 H233       -8.2509  -20.5147  -55.9752 H         1 UNK         0.0600 
    234 H234       -7.9391  -19.2997  -54.7363 H         1 UNK         0.0600 
    235 H235       -5.6362  -21.9322  -52.4040 H         1 UNK         0.3000 
    236 H236       -5.2123  -21.8757  -50.2581 H         1 UNK         0.0600 
    237 H237       -7.3274  -23.1469  -49.9396 H         1 UNK         0.0600 
    238 H238       -6.9546  -22.1250  -48.5623 H         1 UNK         0.0600 
    239 H239       -8.2045  -21.6360  -49.6950 H         1 UNK         0.0600 
    240 H240       -6.8512  -19.1238  -51.5706 H         1 UNK         0.3000 
    241 H241       -5.2382  -17.3115  -50.0786 H         1 UNK         0.0600 
    242 H242       -6.3786  -16.4093  -53.6195 H         1 UNK         0.3800 
    243 H243       -5.8558  -17.9557  -53.0216 H         1 UNK         0.3800 
    244 H244       -8.1926  -16.8719  -49.5033 H         1 UNK         0.0800 
    245 H245       -7.2996  -17.9278  -48.4710 H         1 UNK         0.0800 
    246 H246       -5.8040  -16.0366  -45.9462 H         1 UNK         0.0800 
    247 H247       -5.7075  -17.5143  -46.8651 H         1 UNK         0.0800 
@<TRIPOS>BOND
     1    1    2 1    
     2    1  127 1    
     3    1  128 1    
     4    1  129 1    
     5    2    3 2    
     6    2    4 am   BACKBONE|DICT|INTERRES
     7    4    5 1    
     8    4  130 1    
     9    5    6 1    
    10    5   65 1    
    11    5  131 1    
    12    6    7 1    
    13    6  132 1    
    14    6  133 1    
    15    7    8 1    
    16    8    9 1    
    17    8  134 1    
    18    8  135 1    
    19    9   10 ar   
    20    9   14 ar   
    21   10   11 ar   
    22   10  136 1    
    23   11   12 ar   
    24   11  126 1    
    25   12   13 ar   
    26   12  137 1    
    27   13   14 ar   
    28   13   15 1    
    29   14  138 1    
    30   15   16 1    
    31   15  139 1    
    32   15  140 1    
    33   16   17 1    
    34   17   18 1    
    35   17  141 1    
    36   17  142 1    
    37   18   19 1    
    38   18   67 1    
    39   18  143 1    
    40   19   20 am   BACKBONE|DICT|INTERRES
    41   19  144 1    
    42   20   21 2    
    43   20   22 1    
    44   22   23 1    
    45   22   24 1    
    46   22  145 1    
    47   23  146 1    
    48   23  147 1    
    49   23  148 1    
    50   24   25 am   BACKBONE|DICT|INTERRES
    51   24  149 1    
    52   25   26 2    
    53   25   27 1    
    54   27   28 1    
    55   27   29 1    
    56   27  150 1    
    57   28  151 1    
    58   28  152 1    
    59   28  153 1    
    60   29   30 am   BACKBONE|DICT|INTERRES
    61   29  154 1    
    62   30   31 2    
    63   30   32 1    
    64   32   33 1    
    65   32   34 1    
    66   32  155 1    
    67   33  156 1    
    68   33  157 1    
    69   33  158 1    
    70   34   35 am   BACKBONE|DICT|INTERRES
    71   34  159 1    
    72   35   36 2    
    73   35   37 1    
    74   37   38 1    
    75   37   39 1    
    76   37  160 1    
    77   38  161 1    
    78   38  162 1    
    79   38  163 1    
    80   39   40 am   BACKBONE|DICT|INTERRES
    81   39  164 1    
    82   40   41 2    
    83   40   42 1    
    84   42   43 1    
    85   42   44 1    
    86   42  165 1    
    87   43  166 1    
    88   43  167 1    
    89   43  168 1    
    90   44   45 am   BACKBONE|DICT|INTERRES
    91   44  169 1    
    92   45   46 2    
    93   45   47 1    
    94   47   48 1    
    95   47   49 1    
    96   47  170 1    
    97   48  171 1    
    98   48  172 1    
    99   48  173 1    
   100   49   50 am   BACKBONE|DICT|INTERRES
   101   49  174 1    
   102   50   51 2    
   103   50   52 1    
   104   52   53 1    
   105   52   54 1    
   106   52  175 1    
   107   53  176 1    
   108   53  177 1    
   109   53  178 1    
   110   54   55 am   BACKBONE|DICT|INTERRES
   111   54  179 1    
   112   55   56 2    
   113   55   57 1    
   114   57   58 1    
   115   57   59 1    
   116   57  180 1    
   117   58  181 1    
   118   58  182 1    
   119   58  183 1    
   120   59   60 am   BACKBONE|DICT|INTERRES
   121   59  184 1    
   122   60   61 2    
   123   60   62 1    
   124   62   63 1    
   125   62   64 1    
   126   62  185 1    
   127   63  186 1    
   128   63  187 1    
   129   63  188 1    
   130   64   65 am   BACKBONE|DICT|INTERRES
   131   64  189 1    
   132   65   66 2    
   133   67   68 2    
   134   67   69 am   BACKBONE|DICT|INTERRES
   135   69   70 1    
   136   69  190 1    
   137   70   71 1    
   138   70   72 1    
   139   70  191 1    
   140   71  192 1    
   141   71  193 1    
   142   71  194 1    
   143   72   73 2    
   144   72   74 am   BACKBONE|DICT|INTERRES
   145   74   75 1    
   146   74  195 1    
   147   75   76 1    
   148   75   77 1    
   149   75  196 1    
   150   76  197 1    
   151   76  198 1    
   152   76  199 1    
   153   77   78 2    
   154   77   79 am   BACKBONE|DICT|INTERRES
   155   79   80 1    
   156   79  200 1    
   157   80   81 1    
   158   80   82 1    
   159   80  201 1    
   160   81  202 1    
   161   81  203 1    
   162   81  204 1    
   163   82   83 2    
   164   82   84 am   BACKBONE|DICT|INTERRES
   165   84   85 1    
   166   84  205 1    
   167   85   86 1    
   168   85   87 1    
   169   85  206 1    
   170   86  207 1    
   171   86  208 1    
   172   86  209 1    
   173   87   88 2    
   174   87   89 am   BACKBONE|DICT|INTERRES
   175   89   90 1    
   176   89  210 1    
   177   90   91 1    
   178   90   92 1    
   179   90  211 1    
   180   91  212 1    
   181   91  213 1    
   182   91  214 1    
   183   92   93 2    
   184   92   94 am   BACKBONE|DICT|INTERRES
   185   94   95 1    
   186   94  215 1    
   187   95   96 1    
   188   95   97 1    
   189   95  216 1    
   190   96  217 1    
   191   96  218 1    
   192   96  219 1    
   193   97   98 2    
   194   97   99 am   BACKBONE|DICT|INTERRES
   195   99  100 1    
   196   99  220 1    
   197  100  101 1    
   198  100  102 1    
   199  100  221 1    
   200  101  222 1    
   201  101  223 1    
   202  101  224 1    
   203  102  103 2    
   204  102  104 am   BACKBONE|DICT|INTERRES
   205  104  105 1    
   206  104  225 1    
   207  105  106 1    
   208  105  107 1    
   209  105  226 1    
   210  106  227 1    
   211  106  228 1    
   212  106  229 1    
   213  107  108 2    
   214  107  109 am   BACKBONE|DICT|INTERRES
   215  109  110 1    
   216  109  230 1    
   217  110  111 1    
   218  110  112 1    
   219  110  231 1    
   220  111  232 1    
   221  111  233 1    
   222  111  234 1    
   223  112  113 2    
   224  112  114 am   BACKBONE|DICT|INTERRES
   225  114  115 1    
   226  114  235 1    
   227  115  116 1    
   228  115  117 1    
   229  115  236 1    
   230  116  237 1    
   231  116  238 1    
   232  116  239 1    
   233  117  118 2    
   234  117  119 am   BACKBONE|DICT|INTERRES
   235  119  120 1    
   236  119  240 1    
   237  120  121 1    
   238  120  124 1    
   239  120  241 1    
   240  121  122 am   BACKBONE|DICT|INTERRES
   241  121  123 2    
   242  122  242 1    
   243  122  243 1    
   244  124  125 1    
   245  124  244 1    
   246  124  245 1    
   247  125  126 1    
   248  126  246 1    
   249  126  247 1    
@<TRIPOS>SUBSTRUCTURE
     1 UNK         1 GROUP             0       ****    0 ROOT    
