@<TRIPOS>MOLECULE
3R540
247   249    1
SMALL
USER_CHARGES


@<TRIPOS>ATOM
      1 CA         -0.1272  -11.9140  -45.1003 C.3       0 UNK        -0.1800 
      2 C           0.8666  -12.7627  -45.8793 C.2       0 UNK         0.5000 
      3 O           1.6775  -13.4610  -45.2740 O.2       0 UNK        -0.5000 
      4 N           0.8048  -12.6985  -47.2162 N.am      1 UNK        -0.5000 
      5 CA          1.6105  -13.4817  -48.1663 C.3       1 UNK         0.1400 
      6 C6          1.2964  -15.0018  -48.1390 C.3       23 UNK        -0.0398 
      7 S7         -0.4722  -15.3607  -48.4210 S.3       23 UNK        -0.2404 
      8 C8         -0.5715  -15.3550  -50.2446 C.3       23 UNK        -0.0205 
      9 C9          0.1410  -16.4955  -50.9743 C.ar      23 UNK        -0.0193 
     10 C10         0.2704  -16.4023  -52.3616 C.ar      23 UNK        -0.1150 
     11 C11         0.8749  -17.4229  -53.0980 C.ar      23 UNK        -0.0193 
     12 C12         1.3666  -18.5482  -52.4306 C.ar      23 UNK        -0.1150 
     13 C13         1.2644  -18.6623  -51.0403 C.ar      23 UNK        -0.0193 
     14 C14         0.6448  -17.6292  -50.3226 C.ar      23 UNK        -0.1150 
     15 C15         1.8458  -19.9148  -50.3749 C.3       23 UNK        -0.0205 
     16 S16         1.5924  -20.0753  -48.5698 S.3       23 UNK        -0.2404 
     17 C17        -0.2034  -20.3772  -48.4765 C.3       23 UNK        -0.0398 
     18 CA         -0.5403  -21.6845  -47.7265 C.3       11 UNK         0.1400 
     19 N          -0.1893  -21.6337  -46.3039 N.am      11 UNK        -0.5000 
     20 C          -0.2094  -22.6968  -45.4870 C.2       10 UNK         0.5000 
     21 O          -0.5038  -23.8349  -45.8516 O.2       10 UNK        -0.5000 
     22 CA          0.1001  -22.4390  -44.0033 C.3       10 UNK         0.1400 
     23 CB          1.6104  -22.2648  -43.7855 C.3       10 UNK        -0.1800 
     24 N          -0.6180  -21.2796  -43.4731 N.am      10 UNK        -0.5000 
     25 C          -1.9539  -21.1799  -43.4049 C.2       9 UNK         0.5000 
     26 O          -2.7233  -22.0770  -43.7448 O.2       9 UNK        -0.5000 
     27 CA         -2.5366  -19.8402  -42.9219 C.3       9 UNK         0.1400 
     28 CB         -2.5539  -19.7769  -41.3889 C.3       9 UNK        -0.1800 
     29 N          -1.8257  -18.6801  -43.4592 N.am      9 UNK        -0.5000 
     30 C          -1.7297  -18.3830  -44.7638 C.2       8 UNK         0.5000 
     31 O          -2.2291  -19.0605  -45.6631 O.2       8 UNK        -0.5000 
     32 CA         -0.9005  -17.1407  -45.1231 C.3       8 UNK         0.1400 
     33 CB         -1.7223  -15.8557  -44.9436 C.3       8 UNK        -0.1800 
     34 N           0.3193  -17.0557  -44.3247 N.am      8 UNK        -0.5000 
     35 C           1.3743  -17.8654  -44.4817 C.2       7 UNK         0.5000 
     36 O           1.4400  -18.7496  -45.3354 O.2       7 UNK        -0.5000 
     37 CA          2.5280  -17.6826  -43.4802 C.3       7 UNK         0.1400 
     38 CB          3.3678  -16.4506  -43.8389 C.3       7 UNK        -0.1800 
     39 N           2.0591  -17.5633  -42.0988 N.am      7 UNK        -0.5000 
     40 C           1.4304  -18.5420  -41.4322 C.2       6 UNK         0.5000 
     41 O           1.2009  -19.6532  -41.9061 O.2       6 UNK        -0.5000 
     42 CA          0.9419  -18.2256  -40.0081 C.3       6 UNK         0.1400 
     43 CB          2.0278  -18.5782  -38.9810 C.3       6 UNK        -0.1800 
     44 N           0.5266  -16.8386  -39.8055 N.am      6 UNK        -0.5000 
     45 C          -0.3891  -16.1636  -40.5147 C.2       5 UNK         0.5000 
     46 O          -0.9889  -16.6255  -41.4873 O.2       5 UNK        -0.5000 
     47 CA         -0.6789  -14.7204  -40.0570 C.3       5 UNK         0.1400 
     48 CB         -0.4238  -14.4997  -38.5499 C.3       5 UNK        -0.1800 
     49 N           0.0287  -13.6877  -40.8215 N.am      5 UNK        -0.5000 
     50 C           1.3262  -13.6337  -41.1583 C.2       4 UNK         0.5000 
     51 O           2.1341  -14.5591  -41.0315 O.2       4 UNK        -0.5000 
     52 CA          1.8065  -12.2707  -41.6733 C.3       4 UNK         0.1400 
     53 CB          1.9969  -11.2862  -40.5029 C.3       4 UNK        -0.1800 
     54 N           3.0612  -12.4288  -42.3993 N.am      4 UNK        -0.5000 
     55 C           3.5371  -11.5579  -43.2950 C.2       3 UNK         0.5000 
     56 O           2.9781  -10.4920  -43.5643 O.2       3 UNK        -0.5000 
     57 CA          4.8301  -11.9195  -44.0442 C.3       3 UNK         0.1400 
     58 CB          5.4219  -13.3014  -43.7066 C.3       3 UNK        -0.1800 
     59 N           4.5338  -11.8399  -45.4680 N.am      3 UNK        -0.5000 
     60 C           5.3701  -11.4390  -46.4296 C.2       2 UNK         0.5000 
     61 O           6.5523  -11.1572  -46.2254 O.2       2 UNK        -0.5000 
     62 CA          4.7799  -11.2801  -47.8492 C.3       2 UNK         0.1400 
     63 CB          5.7536  -11.7469  -48.9521 C.3       2 UNK        -0.1800 
     64 N           3.4448  -11.8746  -48.0191 N.am      2 UNK        -0.5000 
     65 C           3.1197  -13.1772  -48.0288 C.2       1 UNK         0.5000 
     66 O           3.9353  -14.0926  -47.9099 O.2       1 UNK        -0.5000 
     67 C          -2.0182  -22.0636  -47.9398 C.2       11 UNK         0.5000 
     68 O          -2.3053  -22.8622  -48.8318 O.2       11 UNK        -0.5000 
     69 N          -2.9182  -21.5175  -47.1098 N.am      12 UNK        -0.5000 
     70 CA         -4.3449  -21.8392  -47.1159 C.3       12 UNK         0.1400 
     71 CB         -5.1028  -20.8650  -46.2024 C.3       12 UNK        -0.1800 
     72 C          -4.6256  -23.3028  -46.7293 C.2       12 UNK         0.5000 
     73 O          -5.4009  -23.9703  -47.4136 O.2       12 UNK        -0.5000 
     74 N          -3.9655  -23.7860  -45.6669 N.am      13 UNK        -0.5000 
     75 CA         -4.0643  -25.1617  -45.1733 C.3       13 UNK         0.1400 
     76 CB         -3.3518  -25.2730  -43.8169 C.3       13 UNK        -0.1800 
     77 C          -3.5067  -26.2002  -46.1632 C.2       13 UNK         0.5000 
     78 O          -4.0995  -27.2680  -46.3218 O.2       13 UNK        -0.5000 
     79 N          -2.3947  -25.8607  -46.8289 N.am      14 UNK        -0.5000 
     80 CA         -1.7709  -26.6729  -47.8757 C.3       14 UNK         0.1400 
     81 CB         -0.3317  -26.1773  -48.0911 C.3       14 UNK        -0.1800 
     82 C          -2.5389  -26.6501  -49.2127 C.2       14 UNK         0.5000 
     83 O          -2.2661  -27.4888  -50.0720 O.2       14 UNK        -0.5000 
     84 N          -3.4455  -25.6743  -49.3772 N.am      15 UNK        -0.5000 
     85 CA         -4.1573  -25.3132  -50.6076 C.3       15 UNK         0.1400 
     86 CB         -5.1141  -26.4358  -51.0578 C.3       15 UNK        -0.1800 
     87 C          -3.2026  -24.8353  -51.7232 C.2       15 UNK         0.5000 
     88 O          -3.4842  -25.0161  -52.9076 O.2       15 UNK        -0.5000 
     89 N          -2.0897  -24.2147  -51.3118 N.am      16 UNK        -0.5000 
     90 CA         -1.1455  -23.5137  -52.1778 C.3       16 UNK         0.1400 
     91 CB          0.2218  -23.4580  -51.4815 C.3       16 UNK        -0.1800 
     92 C          -1.6469  -22.0969  -52.5091 C.2       16 UNK         0.5000 
     93 O          -1.2679  -21.5454  -53.5415 O.2       16 UNK        -0.5000 
     94 N          -2.5105  -21.5542  -51.6455 N.am      17 UNK        -0.5000 
     95 CA         -3.2826  -20.3414  -51.8570 C.3       17 UNK         0.1400 
     96 CB         -2.5786  -19.1555  -51.1781 C.3       17 UNK        -0.1800 
     97 C          -4.6916  -20.5568  -51.2881 C.2       17 UNK         0.5000 
     98 O          -4.9460  -21.5782  -50.6427 O.2       17 UNK        -0.5000 
     99 N          -5.5693  -19.5730  -51.5226 N.am      18 UNK        -0.5000 
    100 CA        -6.9427  -19.4294  -51.0247 C.3       18 UNK         0.1400 
    101 CB        -6.9662  -19.3126  -49.4865 C.3       18 UNK        -0.1800 
    102 C         -7.9226  -20.5083  -51.5246 C.2       18 UNK         0.5000 
    103 O         -8.8797  -20.1805  -52.2267 O.2       18 UNK        -0.5000 
    104 N         -7.6785  -21.7660  -51.1432 N.am      19 UNK        -0.5000 
    105 CA        -8.5108  -22.9221  -51.4708 C.3       19 UNK         0.1400 
    106 CB        -8.2162  -24.0456  -50.4652 C.3       19 UNK        -0.1800 
    107 C         -8.3078  -23.4189  -52.9134 C.2       19 UNK         0.5000 
    108 O         -9.2418  -23.9703  -53.4972 O.2       19 UNK        -0.5000 
    109 N         -7.1041  -23.2169  -53.4601 N.am      20 UNK        -0.5000 
    110 CA        -6.6899  -23.6099  -54.8034 C.3       20 UNK         0.1400 
    111 CB        -6.5318  -25.1441  -54.8907 C.3       20 UNK        -0.1800 
    112 C         -5.3840  -22.8764  -55.1550 C.2       20 UNK         0.5000 
    113 O         -4.9236  -22.0363  -54.3740 O.2       20 UNK        -0.5000 
    114 N         -4.8204  -23.2088  -56.3263 N.am      21 UNK        -0.5000 
    115 CA        -3.5337  -22.7539  -56.8630 C.3       21 UNK         0.1400 
    116 CB        -2.3742  -23.4334  -56.1066 C.3       21 UNK        -0.1800 
    117 C         -3.4325  -21.2171  -56.9363 C.2       21 UNK         0.5000 
    118 O         -4.0297  -20.6278  -57.8387 O.2       21 UNK        -0.5000 
    119 N         -2.7058  -20.5954  -55.9982 N.am      22 UNK        -0.5000 
    120 CA        -2.5937  -19.1344  -55.8624 C.3       22 UNK         0.1400 
    121 C         -3.8975  -18.4285  -55.3714 C.2       22 UNK         0.5000 
    122 N         -4.9057  -19.1446  -54.8837 N.am      22 UNK        -0.7600 
    123 O         -4.0115  -17.2095  -55.4567 O.2       22 UNK        -0.5000 
    124 C124       -1.3601  -18.7579  -54.9999 C.3       23 UNK        -0.0398 
    125 S125       -0.6030  -17.1637  -55.4527 S.3       23 UNK        -0.2404 
    126 C126        1.0092  -17.2993  -54.6112 C.3       23 UNK        -0.0205 
    127 H127        0.3864  -11.0807  -44.6215 H         1 UNK         0.0600 
    128 H128       -0.6069  -12.5135  -44.3266 H         1 UNK         0.0600 
    129 H129       -0.9067  -11.5096  -45.7462 H         1 UNK         0.0600 
    130 H130        0.1104  -12.0994  -47.6401 H         1 UNK         0.3000 
    131 H131        1.3368  -13.1175  -49.1574 H         1 UNK         0.0600 
    132 H132        1.8890  -15.5278  -48.8886 H         1 UNK         0.0800 
    133 H133        1.5776  -15.4338  -47.1769 H         1 UNK         0.0800 
    134 H134       -1.6265  -15.3900  -50.5193 H         1 UNK         0.0800 
    135 H135       -0.1933  -14.3994  -50.6100 H         1 UNK         0.0800 
    136 H136       -0.1141  -15.5336  -52.8782 H         1 UNK         0.1150 
    137 H137        1.8381  -19.3401  -52.9958 H         1 UNK         0.1150 
    138 H138        0.5502  -17.7062  -49.2520 H         1 UNK         0.1150 
    139 H139        1.4410  -20.7996  -50.8662 H         1 UNK         0.0800 
    140 H140        2.9205  -19.9279  -50.5607 H         1 UNK         0.0800 
    141 H141       -0.5948  -20.4159  -49.4938 H         1 UNK         0.0800 
    142 H142       -0.6791  -19.5202  -47.9963 H         1 UNK         0.0800 
    143 H143        0.0527  -22.4864  -48.1712 H         1 UNK         0.0600 
    144 H144        0.0726  -20.7300  -45.9313 H         1 UNK         0.3000 
    145 H145       -0.2244  -23.3168  -43.4408 H         1 UNK         0.0600 
    146 H146        1.8499  -22.2072  -42.7237 H         1 UNK         0.0600 
    147 H147        1.9847  -21.3579  -44.2623 H         1 UNK         0.0600 
    148 H148        2.1660  -23.1081  -44.1976 H         1 UNK         0.0600 
    149 H149       -0.0464  -20.5177  -43.1192 H         1 UNK         0.3000 
    150 H150       -3.5683  -19.7798  -43.2737 H         1 UNK         0.0600 
    151 H151       -3.1820  -20.5670  -40.9759 H         1 UNK         0.0600 
    152 H152       -2.9489  -18.8251  -41.0331 H         1 UNK         0.0600 
    153 H153       -1.5556  -19.9058  -40.9741 H         1 UNK         0.0600 
    154 H154       -1.4056  -18.0461  -42.7857 H         1 UNK         0.3000 
    155 H155       -0.6179  -17.2259  -46.1736 H         1 UNK         0.0600 
    156 H156       -2.6299  -15.8878  -45.5475 H         1 UNK         0.0600 
    157 H157       -1.1545  -14.9812  -45.2598 H         1 UNK         0.0600 
    158 H158       -2.0209  -15.7053  -43.9056 H         1 UNK         0.0600 
    159 H159        0.3179  -16.4001  -43.5564 H         1 UNK         0.3000 
    160 H160        3.1690  -18.5644  -43.5452 H         1 UNK         0.0600 
    161 H161        2.7881  -15.5310  -43.7484 H         1 UNK         0.0600 
    162 H162        3.7324  -16.5081  -44.8655 H         1 UNK         0.0600 
    163 H163        4.2372  -16.3661  -43.1868 H         1 UNK         0.0600 
    164 H164        2.1777  -16.6641  -41.6453 H         1 UNK         0.3000 
    165 H165        0.0744  -18.8542  -39.8071 H         1 UNK         0.0600 
    166 H166        1.6624  -18.4559  -37.9612 H         1 UNK         0.0600 
    167 H167        2.3453  -19.6164  -39.0884 H         1 UNK         0.0600 
    168 H168        2.9118  -17.9502  -39.0996 H         1 UNK         0.0600 
    169 H169        0.9886  -16.3451  -39.0560 H         1 UNK         0.3000 
    170 H170       -1.7436  -14.5603  -40.2334 H         1 UNK         0.0600 
    171 H171        0.6382  -14.5258  -38.3030 H         1 UNK         0.0600 
    172 H172       -0.8080  -13.5308  -38.2304 H         1 UNK         0.0600 
    173 H173       -0.9275  -15.2569  -37.9473 H         1 UNK         0.0600 
    174 H174       -0.5314  -12.8716  -41.0231 H         1 UNK         0.3000 
    175 H175        1.0474  -11.8827  -42.3548 H         1 UNK         0.0600 
    176 H176        2.7662  -11.6327  -39.8117 H         1 UNK         0.0600 
    177 H177        2.2869  -10.2967  -40.8563 H         1 UNK         0.0600 
    178 H178        1.0748  -11.1646  -39.9334 H         1 UNK         0.0600 
    179 H179        3.5252  -13.3153  -42.2469 H         1 UNK         0.3000 
    180 H180        5.5627  -11.1545  -43.7791 H         1 UNK         0.0600 
    181 H181        6.3686  -13.4554  -44.2246 H         1 UNK         0.0600 
    182 H182        4.7507  -14.1023  -44.0100 H         1 UNK         0.0600 
    183 H183        5.6212  -13.4048  -42.6393 H         1 UNK         0.0600 
    184 H184        3.5748  -12.0470  -45.7152 H         1 UNK         0.3000 
    185 H185        4.6379  -10.2069  -47.9835 H         1 UNK         0.0600 
    186 H186        5.3168  -11.6243  -49.9432 H         1 UNK         0.0600 
    187 H187        6.6748  -11.1635  -48.9316 H         1 UNK         0.0600 
    188 H188        6.0328  -12.7939  -48.8337 H         1 UNK         0.0600 
    189 H189        2.6890  -11.2081  -48.0990 H         1 UNK         0.3000 
    190 H190       -2.6088  -20.8276  -46.4311 H         1 UNK         0.3000 
    191 H191       -4.7129  -21.6932  -48.1306 H         1 UNK         0.0600 
    192 H192       -4.9587  -19.8332  -46.5234 H         1 UNK         0.0600 
    193 H193       -4.7732  -20.9422  -45.1665 H         1 UNK         0.0600 
    194 H194       -6.1746  -21.0657  -46.2231 H         1 UNK         0.0600 
    195 H195       -3.3770  -23.1556  -45.1267 H         1 UNK         0.3000 
    196 H196       -5.1220  -25.3854  -45.0204 H         1 UNK         0.0600 
    197 H197       -3.8035  -24.6092  -43.0796 H         1 UNK         0.0600 
    198 H198       -2.2951  -25.0146  -43.8959 H         1 UNK         0.0600 
    199 H199       -3.4149  -26.2880  -43.4226 H         1 UNK         0.0600 
    200 H200       -1.9244  -24.9923  -46.5889 H         1 UNK         0.3000 
    201 H201       -1.7302  -27.7095  -47.5352 H         1 UNK         0.0600 
    202 H202        0.2501  -26.2440  -47.1716 H         1 UNK         0.0600 
    203 H203       -0.3113  -25.1392  -48.4258 H         1 UNK         0.0600 
    204 H204        0.1826  -26.7754  -48.8443 H         1 UNK         0.0600 
    205 H205       -3.5839  -25.0367  -48.6037 H         1 UNK         0.3000 
    206 H206       -4.7658  -24.4455  -50.3495 H         1 UNK         0.0600 
    207 H207       -4.5737  -27.3101  -51.4209 H         1 UNK         0.0600 
    208 H208       -5.7599  -26.7537  -50.2393 H         1 UNK         0.0600 
    209 H209       -5.7618  -26.0937  -51.8653 H         1 UNK         0.0600 
    210 H210       -1.9931  -24.0467  -50.3149 H         1 UNK         0.3000 
    211 H211       -1.0351  -24.0645  -53.1139 H         1 UNK         0.0600 
    212 H212        0.1722  -22.9081  -50.5421 H         1 UNK         0.0600 
    213 H213        0.9610  -22.9660  -52.1148 H         1 UNK         0.0600 
    214 H214        0.5939  -24.4593  -51.2638 H         1 UNK         0.0600 
    215 H215       -2.8130  -22.1036  -50.8482 H         1 UNK         0.3000 
    216 H216       -3.3739  -20.1539  -52.9257 H         1 UNK         0.0600 
    217 H217       -3.0612  -18.2110  -51.4303 H         1 UNK         0.0600 
    218 H218       -1.5422  -19.0807  -51.5031 H         1 UNK         0.0600 
    219 H219       -2.5870  -19.2481  -50.0916 H         1 UNK         0.0600 
    220 H220       -5.2544  -18.8031  -52.0958 H         1 UNK         0.3000 
    221 H221       -7.3004  -18.4784  -51.4224 H         1 UNK         0.0600 
    222 H222       -6.6110  -20.2194  -48.9968 H         1 UNK         0.0600 
    223 H223       -6.3428  -18.4859  -49.1459 H         1 UNK         0.0600 
    224 H224       -7.9786  -19.1254  -49.1266 H         1 UNK         0.0600 
    225 H225       -6.8116  -21.9394  -50.6418 H         1 UNK         0.3000 
    226 H226       -9.5597  -22.6375  -51.3634 H         1 UNK         0.0600 
    227 H227       -8.4380  -23.7302  -49.4455 H         1 UNK         0.0600 
    228 H228       -8.8232  -24.9278  -50.6727 H         1 UNK         0.0600 
    229 H229       -7.1707  -24.3502  -50.4988 H         1 UNK         0.0600 
    230 H230       -6.3994  -22.7025  -52.9459 H         1 UNK         0.3000 
    231 H231       -7.4531  -23.2825  -55.5118 H         1 UNK         0.0600 
    232 H232       -6.2913  -25.4648  -55.9044 H         1 UNK         0.0600 
    233 H233       -7.4479  -25.6625  -54.6094 H         1 UNK         0.0600 
    234 H234       -5.7360  -25.5013  -54.2379 H         1 UNK         0.0600 
    235 H235       -5.3094  -23.8725  -56.9097 H         1 UNK         0.3000 
    236 H236       -3.4879  -23.1019  -57.8961 H         1 UNK         0.0600 
    237 H237       -2.4687  -23.3108  -55.0299 H         1 UNK         0.0600 
    238 H238       -2.3602  -24.5049  -56.3056 H         1 UNK         0.0600 
    239 H239       -1.4050  -23.0362  -56.4108 H         1 UNK         0.0600 
    240 H240       -2.2740  -21.1418  -55.2592 H         1 UNK         0.3000 
    241 H241       -2.4159  -18.7542  -56.8702 H         1 UNK         0.0600 
    242 H242       -5.7613  -18.6763  -54.6346 H         1 UNK         0.3800 
    243 H243       -4.8427  -20.1564  -54.8171 H         1 UNK         0.3800 
    244 H244       -0.5815  -19.5126  -55.1206 H         1 UNK         0.0800 
    245 H245       -1.6047  -18.7527  -53.9376 H         1 UNK         0.0800 
    246 H246        1.6011  -16.4123  -54.8405 H         1 UNK         0.0800 
    247 H247        1.5569  -18.1476  -55.0247 H         1 UNK         0.0800 
@<TRIPOS>BOND
     1    1    2 1    
     2    1  127 1    
     3    1  128 1    
     4    1  129 1    
     5    2    3 2    
     6    2    4 am   BACKBONE|DICT|INTERRES
     7    4    5 1    
     8    4  130 1    
     9    5    6 1    
    10    5   65 1    
    11    5  131 1    
    12    6    7 1    
    13    6  132 1    
    14    6  133 1    
    15    7    8 1    
    16    8    9 1    
    17    8  134 1    
    18    8  135 1    
    19    9   10 ar   
    20    9   14 ar   
    21   10   11 ar   
    22   10  136 1    
    23   11   12 ar   
    24   11  126 1    
    25   12   13 ar   
    26   12  137 1    
    27   13   14 ar   
    28   13   15 1    
    29   14  138 1    
    30   15   16 1    
    31   15  139 1    
    32   15  140 1    
    33   16   17 1    
    34   17   18 1    
    35   17  141 1    
    36   17  142 1    
    37   18   19 1    
    38   18   67 1    
    39   18  143 1    
    40   19   20 am   BACKBONE|DICT|INTERRES
    41   19  144 1    
    42   20   21 2    
    43   20   22 1    
    44   22   23 1    
    45   22   24 1    
    46   22  145 1    
    47   23  146 1    
    48   23  147 1    
    49   23  148 1    
    50   24   25 am   BACKBONE|DICT|INTERRES
    51   24  149 1    
    52   25   26 2    
    53   25   27 1    
    54   27   28 1    
    55   27   29 1    
    56   27  150 1    
    57   28  151 1    
    58   28  152 1    
    59   28  153 1    
    60   29   30 am   BACKBONE|DICT|INTERRES
    61   29  154 1    
    62   30   31 2    
    63   30   32 1    
    64   32   33 1    
    65   32   34 1    
    66   32  155 1    
    67   33  156 1    
    68   33  157 1    
    69   33  158 1    
    70   34   35 am   BACKBONE|DICT|INTERRES
    71   34  159 1    
    72   35   36 2    
    73   35   37 1    
    74   37   38 1    
    75   37   39 1    
    76   37  160 1    
    77   38  161 1    
    78   38  162 1    
    79   38  163 1    
    80   39   40 am   BACKBONE|DICT|INTERRES
    81   39  164 1    
    82   40   41 2    
    83   40   42 1    
    84   42   43 1    
    85   42   44 1    
    86   42  165 1    
    87   43  166 1    
    88   43  167 1    
    89   43  168 1    
    90   44   45 am   BACKBONE|DICT|INTERRES
    91   44  169 1    
    92   45   46 2    
    93   45   47 1    
    94   47   48 1    
    95   47   49 1    
    96   47  170 1    
    97   48  171 1    
    98   48  172 1    
    99   48  173 1    
   100   49   50 am   BACKBONE|DICT|INTERRES
   101   49  174 1    
   102   50   51 2    
   103   50   52 1    
   104   52   53 1    
   105   52   54 1    
   106   52  175 1    
   107   53  176 1    
   108   53  177 1    
   109   53  178 1    
   110   54   55 am   BACKBONE|DICT|INTERRES
   111   54  179 1    
   112   55   56 2    
   113   55   57 1    
   114   57   58 1    
   115   57   59 1    
   116   57  180 1    
   117   58  181 1    
   118   58  182 1    
   119   58  183 1    
   120   59   60 am   BACKBONE|DICT|INTERRES
   121   59  184 1    
   122   60   61 2    
   123   60   62 1    
   124   62   63 1    
   125   62   64 1    
   126   62  185 1    
   127   63  186 1    
   128   63  187 1    
   129   63  188 1    
   130   64   65 am   BACKBONE|DICT|INTERRES
   131   64  189 1    
   132   65   66 2    
   133   67   68 2    
   134   67   69 am   BACKBONE|DICT|INTERRES
   135   69   70 1    
   136   69  190 1    
   137   70   71 1    
   138   70   72 1    
   139   70  191 1    
   140   71  192 1    
   141   71  193 1    
   142   71  194 1    
   143   72   73 2    
   144   72   74 am   BACKBONE|DICT|INTERRES
   145   74   75 1    
   146   74  195 1    
   147   75   76 1    
   148   75   77 1    
   149   75  196 1    
   150   76  197 1    
   151   76  198 1    
   152   76  199 1    
   153   77   78 2    
   154   77   79 am   BACKBONE|DICT|INTERRES
   155   79   80 1    
   156   79  200 1    
   157   80   81 1    
   158   80   82 1    
   159   80  201 1    
   160   81  202 1    
   161   81  203 1    
   162   81  204 1    
   163   82   83 2    
   164   82   84 am   BACKBONE|DICT|INTERRES
   165   84   85 1    
   166   84  205 1    
   167   85   86 1    
   168   85   87 1    
   169   85  206 1    
   170   86  207 1    
   171   86  208 1    
   172   86  209 1    
   173   87   88 2    
   174   87   89 am   BACKBONE|DICT|INTERRES
   175   89   90 1    
   176   89  210 1    
   177   90   91 1    
   178   90   92 1    
   179   90  211 1    
   180   91  212 1    
   181   91  213 1    
   182   91  214 1    
   183   92   93 2    
   184   92   94 am   BACKBONE|DICT|INTERRES
   185   94   95 1    
   186   94  215 1    
   187   95   96 1    
   188   95   97 1    
   189   95  216 1    
   190   96  217 1    
   191   96  218 1    
   192   96  219 1    
   193   97   98 2    
   194   97   99 am   BACKBONE|DICT|INTERRES
   195   99  100 1    
   196   99  220 1    
   197  100  101 1    
   198  100  102 1    
   199  100  221 1    
   200  101  222 1    
   201  101  223 1    
   202  101  224 1    
   203  102  103 2    
   204  102  104 am   BACKBONE|DICT|INTERRES
   205  104  105 1    
   206  104  225 1    
   207  105  106 1    
   208  105  107 1    
   209  105  226 1    
   210  106  227 1    
   211  106  228 1    
   212  106  229 1    
   213  107  108 2    
   214  107  109 am   BACKBONE|DICT|INTERRES
   215  109  110 1    
   216  109  230 1    
   217  110  111 1    
   218  110  112 1    
   219  110  231 1    
   220  111  232 1    
   221  111  233 1    
   222  111  234 1    
   223  112  113 2    
   224  112  114 am   BACKBONE|DICT|INTERRES
   225  114  115 1    
   226  114  235 1    
   227  115  116 1    
   228  115  117 1    
   229  115  236 1    
   230  116  237 1    
   231  116  238 1    
   232  116  239 1    
   233  117  118 2    
   234  117  119 am   BACKBONE|DICT|INTERRES
   235  119  120 1    
   236  119  240 1    
   237  120  121 1    
   238  120  124 1    
   239  120  241 1    
   240  121  122 am   BACKBONE|DICT|INTERRES
   241  121  123 2    
   242  122  242 1    
   243  122  243 1    
   244  124  125 1    
   245  124  244 1    
   246  124  245 1    
   247  125  126 1    
   248  126  246 1    
   249  126  247 1    
@<TRIPOS>SUBSTRUCTURE
     1 UNK         1 GROUP             0       ****    0 ROOT    
