@<TRIPOS>MOLECULE
3R540
247   249    1
SMALL
USER_CHARGES


@<TRIPOS>ATOM
      1 CA          1.7486  -11.1437  -51.2055 C.3       0 UNK        -0.1800 
      2 C           1.7656  -12.2637  -50.1748 C.2       0 UNK         0.5000 
      3 O           0.7261  -12.8701  -49.9174 O.2       0 UNK        -0.5000 
      4 N           2.9404  -12.5294  -49.5855 N.am      1 UNK        -0.5000 
      5 CA          3.1988  -13.5734  -48.5784 C.3       1 UNK         0.1400 
      6 C6          2.9793  -15.0198  -49.1057 C.3       23 UNK        -0.0398 
      7 S7          3.9805  -15.3777  -50.5906 S.3       23 UNK        -0.2404 
      8 C8          4.8776  -16.8991  -50.1176 C.3       23 UNK        -0.0205 
      9 C9          4.1530  -18.2130  -50.4209 C.ar      23 UNK        -0.0193 
     10 C10         3.2274  -18.3345  -51.4666 C.ar      23 UNK        -0.1150 
     11 C11         2.6378  -19.5664  -51.7714 C.ar      23 UNK        -0.0193 
     12 C12         3.0047  -20.6938  -51.0289 C.ar      23 UNK        -0.1150 
     13 C13         3.9134  -20.5921  -49.9731 C.ar      23 UNK        -0.0193 
     14 C14         4.4822  -19.3507  -49.6770 C.ar      23 UNK        -0.1150 
     15 C15         4.3133  -21.8312  -49.1821 C.3       23 UNK        -0.0205 
     16 S16         3.4514  -21.9615  -47.5816 S.3       23 UNK        -0.2404 
     17 C17         1.7461  -22.3721  -48.0953 C.3       23 UNK        -0.0398 
     18 CA          0.6590  -21.6836  -47.2238 C.3       11 UNK         0.1400 
     19 N           0.8376  -20.2312  -47.1221 N.am      11 UNK        -0.5000 
     20 C           0.6930  -19.3312  -48.1058 C.2       10 UNK         0.5000 
     21 O           0.2893  -19.6110  -49.2330 O.2       10 UNK        -0.5000 
     22 CA          1.0370  -17.8645  -47.7860 C.3       10 UNK         0.1400 
     23 CB         -0.1803  -16.9563  -48.0256 C.3       10 UNK        -0.1800 
     24 N           1.5104  -17.6698  -46.4139 N.am      10 UNK        -0.5000 
     25 C           2.7804  -17.8030  -46.0103 C.2       9 UNK         0.5000 
     26 O           3.7190  -18.0436  -46.7680 O.2       9 UNK        -0.5000 
     27 CA          3.0503  -17.6844  -44.4976 C.3       9 UNK         0.1400 
     28 CB          3.2709  -16.2236  -44.0850 C.3       9 UNK        -0.1800 
     29 N           1.9973  -18.2679  -43.6641 N.am      9 UNK        -0.5000 
     30 C           1.6887  -19.5716  -43.6241 C.2       8 UNK         0.5000 
     31 O           2.2468  -20.4308  -44.3047 O.2       8 UNK        -0.5000 
     32 CA          0.5329  -19.9779  -42.6962 C.3       8 UNK         0.1400 
     33 CB          0.9975  -20.0593  -41.2337 C.3       8 UNK        -0.1800 
     34 N          -0.5876  -19.0472  -42.8114 N.am      8 UNK        -0.5000 
     35 C          -1.4405  -19.0343  -43.8444 C.2       7 UNK         0.5000 
     36 O          -1.3998  -19.8441  -44.7700 O.2       7 UNK        -0.5000 
     37 CA         -2.4982  -17.9148  -43.8645 C.3       7 UNK         0.1400 
     38 CB         -3.7545  -18.3453  -43.0938 C.3       7 UNK        -0.1800 
     39 N          -2.0039  -16.6475  -43.3216 N.am      7 UNK        -0.5000 
     40 C          -1.0310  -15.9188  -43.8864 C.2       6 UNK         0.5000 
     41 O          -0.4646  -16.2355  -44.9288 O.2       6 UNK        -0.5000 
     42 CA         -0.5809  -14.6502  -43.1406 C.3       6 UNK         0.1400 
     43 CB         -1.4718  -13.4623  -43.5349 C.3       6 UNK        -0.1800 
     44 N          -0.5582  -14.7858  -41.6796 N.am      6 UNK        -0.5000 
     45 C           0.1160  -15.7222  -40.9962 C.2       5 UNK         0.5000 
     46 O           0.7715  -16.6168  -41.5335 O.2       5 UNK        -0.5000 
     47 CA          0.0897  -15.5892  -39.4652 C.3       5 UNK         0.1400 
     48 CB          0.7382  -16.7885  -38.7506 C.3       5 UNK        -0.1800 
     49 N           0.8196  -14.3744  -39.1231 N.am      5 UNK        -0.5000 
     50 C           0.3215  -13.3034  -38.4929 C.2       4 UNK         0.5000 
     51 O          -0.7996  -13.2612  -37.9857 O.2       4 UNK        -0.5000 
     52 CA          1.2216  -12.0485  -38.4699 C.3       4 UNK         0.1400 
     53 CB          2.0714  -12.0164  -37.1905 C.3       4 UNK        -0.1800 
     54 N           2.1051  -11.9635  -39.6402 N.am      4 UNK        -0.5000 
     55 C           1.6724  -11.8157  -40.9000 C.2       3 UNK         0.5000 
     56 O           0.4909  -11.6098  -41.1931 O.2       3 UNK        -0.5000 
     57 CA          2.7168  -11.9832  -42.0158 C.3       3 UNK         0.1400 
     58 CB          3.3956  -13.3669  -41.9334 C.3       3 UNK        -0.1800 
     59 N           2.0315  -11.8355  -43.2957 N.am      3 UNK        -0.5000 
     60 C           2.5994  -11.6879  -44.4947 C.2       2 UNK         0.5000 
     61 O           3.8179  -11.6215  -44.6772 O.2       2 UNK        -0.5000 
     62 CA          1.6298  -11.5563  -45.6842 C.3       2 UNK         0.1400 
     63 CB          1.1838  -10.0967  -45.8618 C.3       2 UNK        -0.1800 
     64 N           2.2359  -12.0186  -46.9313 N.am      2 UNK        -0.5000 
     65 C           2.4624  -13.3025  -47.2432 C.2       1 UNK         0.5000 
     66 O           2.1207  -14.2398  -46.5229 O.2       1 UNK        -0.5000 
     67 C          -0.7702  -22.0616  -47.6764 C.2       11 UNK         0.5000 
     68 O          -0.9317  -22.9029  -48.5617 O.2       11 UNK        -0.5000 
     69 N          -1.7866  -21.4263  -47.0716 N.am      12 UNK        -0.5000 
     70 CA         -3.1965  -21.5051  -47.4693 C.3       12 UNK         0.1400 
     71 CB         -4.0470  -20.6250  -46.5422 C.3       12 UNK        -0.1800 
     72 C          -3.7653  -22.9340  -47.5239 C.2       12 UNK         0.5000 
     73 O          -4.5635  -23.2326  -48.4121 O.2       12 UNK        -0.5000 
     74 N          -3.3051  -23.8072  -46.6182 N.am      13 UNK        -0.5000 
     75 CA         -3.6577  -25.2287  -46.5667 C.3       13 UNK         0.1400 
     76 CB         -3.0680  -25.8433  -45.2888 C.3       13 UNK        -0.1800 
     77 C          -3.2069  -26.0286  -47.8072 C.2       13 UNK         0.5000 
     78 O          -3.8659  -27.0040  -48.1670 O.2       13 UNK        -0.5000 
     79 N          -2.1219  -25.5864  -48.4580 N.am      14 UNK        -0.5000 
     80 CA         -1.6065  -26.1462  -49.7097 C.3       14 UNK         0.1400 
     81 CB         -0.0744  -26.0076  -49.7229 C.3       14 UNK        -0.1800 
     82 C          -2.2236  -25.4693  -50.9506 C.2       14 UNK         0.5000 
     83 O          -1.8923  -25.8565  -52.0714 O.2       14 UNK        -0.5000 
     84 N          -3.0893  -24.4710  -50.7390 N.am      15 UNK        -0.5000 
     85 CA         -3.7435  -23.6624  -51.7646 C.3       15 UNK         0.1400 
     86 CB         -3.2764  -22.2083  -51.5900 C.3       15 UNK        -0.1800 
     87 C          -5.2771  -23.7884  -51.6799 C.2       15 UNK         0.5000 
     88 O          -5.9863  -22.8944  -52.1418 O.2       15 UNK        -0.5000 
     89 N          -5.7678  -24.8797  -51.0704 N.am      16 UNK        -0.5000 
     90 CA         -7.1823  -25.2207  -50.8694 C.3       16 UNK         0.1400 
     91 CB         -7.8599  -25.5250  -52.2231 C.3       16 UNK        -0.1800 
     92 C          -7.9403  -24.1566  -50.0469 C.2       16 UNK         0.5000 
     93 O          -9.0097  -23.7041  -50.4544 O.2       16 UNK        -0.5000 
     94 N          -7.3386  -23.7434  -48.9220 N.am      17 UNK        -0.5000 
     95 CA         -7.7612  -22.6425  -48.0449 C.3       17 UNK         0.1400 
     96 CB         -9.1384  -22.9200  -47.4060 C.3       17 UNK        -0.1800 
     97 C          -7.6762  -21.2742  -48.7551 C.2       17 UNK         0.5000 
     98 O          -8.5239  -20.4063  -48.5425 O.2       17 UNK        -0.5000 
     99 N          -6.6458  -21.1309  -49.6022 N.am      18 UNK        -0.5000 
    100 CA        -6.3397  -19.9901  -50.4732 C.3       18 UNK         0.1400 
    101 CB        -6.0106  -18.7346  -49.6392 C.3       18 UNK        -0.1800 
    102 C         -7.3939  -19.7255  -51.5727 C.2       18 UNK         0.5000 
    103 O         -7.4323  -18.6237  -52.1237 O.2       18 UNK        -0.5000 
    104 N         -8.2189  -20.7321  -51.8935 N.am      19 UNK        -0.5000 
    105 CA        -9.2060  -20.6797  -52.9732 C.3       19 UNK         0.1400 
    106 CB       -10.3523  -21.6513  -52.6556 C.3       19 UNK        -0.1800 
    107 C         -8.5952  -21.0115  -54.3482 C.2       19 UNK         0.5000 
    108 O         -9.1688  -20.6259  -55.3681 O.2       19 UNK        -0.5000 
    109 N         -7.4628  -21.7232  -54.3564 N.am      20 UNK        -0.5000 
    110 CA        -6.7177  -22.1376  -55.5408 C.3       20 UNK         0.1400 
    111 CB        -6.7276  -23.6770  -55.5951 C.3       20 UNK        -0.1800 
    112 C         -5.2811  -21.5888  -55.4742 C.2       20 UNK         0.5000 
    113 O         -4.9292  -20.8659  -54.5388 O.2       20 UNK        -0.5000 
    114 N         -4.4667  -21.9454  -56.4746 N.am      21 UNK        -0.5000 
    115 CA        -3.0194  -21.7320  -56.4687 C.3       21 UNK         0.1400 
    116 CB        -2.4899  -21.8735  -57.9043 C.3       21 UNK        -0.1800 
    117 C         -2.3260  -22.7418  -55.5336 C.2       21 UNK         0.5000 
    118 O         -2.8371  -23.8485  -55.3444 O.2       21 UNK        -0.5000 
    119 N         -1.1749  -22.3452  -54.9804 N.am      22 UNK        -0.5000 
    120 CA        -0.3543  -23.1546  -54.0658 C.3       22 UNK         0.1400 
    121 C          0.2052  -24.4342  -54.7486 C.2       22 UNK         0.5000 
    122 N         -0.0736  -25.6141  -54.2138 N.am      22 UNK        -0.7600 
    123 O          0.9219  -24.3567  -55.7441 O.2       22 UNK        -0.5000 
    124 C124        0.8030  -22.3296  -53.4425 C.3       23 UNK        -0.0398 
    125 S125        0.2373  -20.7886  -52.6362 S.3       23 UNK        -0.2404 
    126 C126        1.6407  -19.6524  -52.9278 C.3       23 UNK        -0.0205 
    127 H127        2.7334  -10.6935  -51.3329 H         1 UNK         0.0600 
    128 H128        1.0542  -10.3616  -50.8982 H         1 UNK         0.0600 
    129 H129        1.4239  -11.5291  -52.1720 H         1 UNK         0.0600 
    130 H130        3.7513  -11.9911  -49.8572 H         1 UNK         0.3000 
    131 H131        4.2580  -13.4844  -48.3324 H         1 UNK         0.0600 
    132 H132        1.9298  -15.1911  -49.3462 H         1 UNK         0.0800 
    133 H133        3.2366  -15.7400  -48.3290 H         1 UNK         0.0800 
    134 H134        5.1438  -16.8484  -49.0605 H         1 UNK         0.0800 
    135 H135        5.8211  -16.9122  -50.6644 H         1 UNK         0.0800 
    136 H136        2.9728  -17.4714  -52.0641 H         1 UNK         0.1150 
    137 H137        2.5787  -21.6562  -51.2647 H         1 UNK         0.1150 
    138 H138        5.1971  -19.2750  -48.8695 H         1 UNK         0.1150 
    139 H139        4.1309  -22.7356  -49.7647 H         1 UNK         0.0800 
    140 H140        5.3880  -21.8051  -48.9965 H         1 UNK         0.0800 
    141 H141        1.6412  -23.4570  -48.0440 H         1 UNK         0.0800 
    142 H142        1.6033  -22.1062  -49.1422 H         1 UNK         0.0800 
    143 H143        0.7618  -22.0670  -46.2078 H         1 UNK         0.0600 
    144 H144        1.1851  -19.9033  -46.2309 H         1 UNK         0.3000 
    145 H145        1.8223  -17.5736  -48.4843 H         1 UNK         0.0600 
    146 H146        0.0493  -15.9167  -47.7902 H         1 UNK         0.0600 
    147 H147       -1.0309  -17.2586  -47.4134 H         1 UNK         0.0600 
    148 H148       -0.4964  -16.9911  -49.0688 H         1 UNK         0.0600 
    149 H149        0.8105  -17.3702  -45.7395 H         1 UNK         0.3000 
    150 H150        3.9726  -18.2314  -44.2915 H         1 UNK         0.0600 
    151 H151        4.0387  -15.7515  -44.6992 H         1 UNK         0.0600 
    152 H152        3.5952  -16.1578  -43.0468 H         1 UNK         0.0600 
    153 H153        2.3594  -15.6363  -44.1920 H         1 UNK         0.0600 
    154 H154        1.4981  -17.6339  -43.0470 H         1 UNK         0.3000 
    155 H155        0.1934  -20.9723  -42.9948 H         1 UNK         0.0600 
    156 H156        1.7925  -20.7973  -41.1211 H         1 UNK         0.0600 
    157 H157        0.1810  -20.3581  -40.5762 H         1 UNK         0.0600 
    158 H158        1.3858  -19.1064  -40.8743 H         1 UNK         0.0600 
    159 H159       -0.6305  -18.3022  -42.1300 H         1 UNK         0.3000 
    160 H160       -2.7784  -17.7478  -44.9068 H         1 UNK         0.0600 
    161 H161       -3.5442  -18.5030  -42.0353 H         1 UNK         0.0600 
    162 H162       -4.1557  -19.2784  -43.4916 H         1 UNK         0.0600 
    163 H163       -4.5417  -17.5954  -43.1727 H         1 UNK         0.0600 
    164 H164       -2.4166  -16.3217  -42.4601 H         1 UNK         0.3000 
    165 H165        0.4385  -14.4285  -43.4614 H         1 UNK         0.0600 
    166 H166       -1.1130  -12.5302  -43.1010 H         1 UNK         0.0600 
    167 H167       -1.4873  -13.3289  -44.6176 H         1 UNK         0.0600 
    168 H168       -2.5020  -13.6072  -43.2078 H         1 UNK         0.0600 
    169 H169       -1.0359  -14.0639  -41.1586 H         1 UNK         0.3000 
    170 H170       -0.9551  -15.5242  -39.1550 H         1 UNK         0.0600 
    171 H171        1.7846  -16.9122  -39.0327 H         1 UNK         0.0600 
    172 H172        0.6969  -16.6681  -37.6680 H         1 UNK         0.0600 
    173 H173        0.2185  -17.7157  -38.9948 H         1 UNK         0.0600 
    174 H174        1.7450  -14.2979  -39.5190 H         1 UNK         0.3000 
    175 H175        0.5694  -11.1726  -38.4713 H         1 UNK         0.0600 
    176 H176        2.7584  -12.8621  -37.1412 H         1 UNK         0.0600 
    177 H177        2.6597  -11.1006  -37.1305 H         1 UNK         0.0600 
    178 H178        1.4399  -12.0543  -36.3019 H         1 UNK         0.0600 
    179 H179        3.0906  -12.1059  -39.4709 H         1 UNK         0.3000 
    180 H180        3.4623  -11.1923  -41.9143 H         1 UNK         0.0600 
    181 H181        2.6611  -14.1713  -41.9775 H         1 UNK         0.0600 
    182 H182        3.9576  -13.4836  -41.0067 H         1 UNK         0.0600 
    183 H183        4.1028  -13.5183  -42.7486 H         1 UNK         0.0600 
    184 H184        1.0240  -11.7957  -43.1981 H         1 UNK         0.3000 
    185 H185        0.7473  -12.1681  -45.4845 H         1 UNK         0.0600 
    186 H186        2.0295   -9.4398  -46.0691 H         1 UNK         0.0600 
    187 H187        0.4729   -9.9987  -46.6825 H         1 UNK         0.0600 
    188 H188        0.6921   -9.7248  -44.9619 H         1 UNK         0.0600 
    189 H189        2.5702  -11.3071  -47.5638 H         1 UNK         0.3000 
    190 H190       -1.5704  -20.7776  -46.3158 H         1 UNK         0.3000 
    191 H191       -3.2641  -21.0905  -48.4759 H         1 UNK         0.0600 
    192 H192       -3.7220  -19.5853  -46.5805 H         1 UNK         0.0600 
    193 H193       -3.9852  -20.9577  -45.5055 H         1 UNK         0.0600 
    194 H194       -5.0978  -20.6462  -46.8339 H         1 UNK         0.0600 
    195 H195       -2.6405  -23.4774  -45.9337 H         1 UNK         0.3000 
    196 H196       -4.7460  -25.2995  -46.5101 H         1 UNK         0.0600 
    197 H197       -3.4463  -25.3412  -44.3981 H         1 UNK         0.0600 
    198 H198       -1.9793  -25.7771  -45.2760 H         1 UNK         0.0600 
    199 H199       -3.3341  -26.8978  -45.2032 H         1 UNK         0.0600 
    200 H200       -1.6771  -24.7271  -48.1513 H         1 UNK         0.3000 
    201 H201       -1.8490  -27.2094  -49.7628 H         1 UNK         0.0600 
    202 H202        0.3719  -26.4672  -48.8410 H         1 UNK         0.0600 
    203 H203        0.2379  -24.9635  -49.7526 H         1 UNK         0.0600 
    204 H204        0.3548  -26.4997  -50.5965 H         1 UNK         0.0600 
    205 H205       -3.3112  -24.2173  -49.7838 H         1 UNK         0.3000 
    206 H206       -3.4566  -24.0015  -52.7604 H         1 UNK         0.0600 
    207 H207       -2.1895  -22.1428  -51.5692 H         1 UNK         0.0600 
    208 H208       -3.6465  -21.7792  -50.6608 H         1 UNK         0.0600 
    209 H209       -3.6231  -21.5790  -52.4082 H         1 UNK         0.0600 
    210 H210       -5.1007  -25.5442  -50.7047 H         1 UNK         0.3000 
    211 H211       -7.2002  -26.1367  -50.2774 H         1 UNK         0.0600 
    212 H212       -7.9328  -24.6362  -52.8508 H         1 UNK         0.0600 
    213 H213       -8.8724  -25.9024  -52.0759 H         1 UNK         0.0600 
    214 H214       -7.3087  -26.2831  -52.7793 H         1 UNK         0.0600 
    215 H215       -6.4126  -24.1045  -48.7224 H         1 UNK         0.3000 
    216 H216       -7.0322  -22.6050  -47.2343 H         1 UNK         0.0600 
    217 H217       -9.3658  -22.1802  -46.6378 H         1 UNK         0.0600 
    218 H218       -9.1614  -23.8997  -46.9291 H         1 UNK         0.0600 
    219 H219       -9.9446  -22.8833  -48.1389 H         1 UNK         0.0600 
    220 H220       -6.0279  -21.9257  -49.7011 H         1 UNK         0.3000 
    221 H221       -5.4330  -20.2626  -51.0128 H         1 UNK         0.0600 
    222 H222       -6.8882  -18.3523  -49.1176 H         1 UNK         0.0600 
    223 H223       -5.2421  -18.9454  -48.8958 H         1 UNK         0.0600 
    224 H224       -5.6326  -17.9312  -50.2724 H         1 UNK         0.0600 
    225 H225       -8.1155  -21.6169  -51.4139 H         1 UNK         0.3000 
    226 H226       -9.6246  -19.6725  -53.0262 H         1 UNK         0.0600 
    227 H227      -10.7746  -21.4593  -51.6689 H         1 UNK         0.0600 
    228 H228      -11.1596  -21.5508  -53.3819 H         1 UNK         0.0600 
    229 H229      -10.0180  -22.6890  -52.6828 H         1 UNK         0.0600 
    230 H230       -7.0159  -21.9545  -53.4721 H         1 UNK         0.3000 
    231 H231       -7.1806  -21.7454  -56.4482 H         1 UNK         0.0600 
    232 H232       -6.2689  -24.0487  -56.5116 H         1 UNK         0.0600 
    233 H233       -7.7459  -24.0651  -55.5667 H         1 UNK         0.0600 
    234 H234       -6.1825  -24.1112  -54.7558 H         1 UNK         0.0600 
    235 H235       -4.8194  -22.5618  -57.1916 H         1 UNK         0.3000 
    236 H236       -2.8102  -20.7195  -56.1163 H         1 UNK         0.0600 
    237 H237       -2.6710  -22.8722  -58.3038 H         1 UNK         0.0600 
    238 H238       -2.9625  -21.1531  -58.5722 H         1 UNK         0.0600 
    239 H239       -1.4145  -21.6953  -57.9436 H         1 UNK         0.0600 
    240 H240       -0.8151  -21.4265  -55.1922 H         1 UNK         0.3000 
    241 H241       -1.0074  -23.4662  -53.2494 H         1 UNK         0.0600 
    242 H242        0.2926  -26.4483  -54.6435 H         1 UNK         0.3800 
    243 H243       -0.7134  -25.6997  -53.4243 H         1 UNK         0.3800 
    244 H244        1.5416  -22.0849  -54.2074 H         1 UNK         0.0800 
    245 H245        1.3233  -22.9320  -52.6967 H         1 UNK         0.0800 
    246 H246        1.2152  -18.6644  -53.1099 H         1 UNK         0.0800 
    247 H247        2.1725  -19.9219  -53.8404 H         1 UNK         0.0800 
@<TRIPOS>BOND
     1    1    2 1    
     2    1  127 1    
     3    1  128 1    
     4    1  129 1    
     5    2    3 2    
     6    2    4 am   BACKBONE|DICT|INTERRES
     7    4    5 1    
     8    4  130 1    
     9    5    6 1    
    10    5   65 1    
    11    5  131 1    
    12    6    7 1    
    13    6  132 1    
    14    6  133 1    
    15    7    8 1    
    16    8    9 1    
    17    8  134 1    
    18    8  135 1    
    19    9   10 ar   
    20    9   14 ar   
    21   10   11 ar   
    22   10  136 1    
    23   11   12 ar   
    24   11  126 1    
    25   12   13 ar   
    26   12  137 1    
    27   13   14 ar   
    28   13   15 1    
    29   14  138 1    
    30   15   16 1    
    31   15  139 1    
    32   15  140 1    
    33   16   17 1    
    34   17   18 1    
    35   17  141 1    
    36   17  142 1    
    37   18   19 1    
    38   18   67 1    
    39   18  143 1    
    40   19   20 am   BACKBONE|DICT|INTERRES
    41   19  144 1    
    42   20   21 2    
    43   20   22 1    
    44   22   23 1    
    45   22   24 1    
    46   22  145 1    
    47   23  146 1    
    48   23  147 1    
    49   23  148 1    
    50   24   25 am   BACKBONE|DICT|INTERRES
    51   24  149 1    
    52   25   26 2    
    53   25   27 1    
    54   27   28 1    
    55   27   29 1    
    56   27  150 1    
    57   28  151 1    
    58   28  152 1    
    59   28  153 1    
    60   29   30 am   BACKBONE|DICT|INTERRES
    61   29  154 1    
    62   30   31 2    
    63   30   32 1    
    64   32   33 1    
    65   32   34 1    
    66   32  155 1    
    67   33  156 1    
    68   33  157 1    
    69   33  158 1    
    70   34   35 am   BACKBONE|DICT|INTERRES
    71   34  159 1    
    72   35   36 2    
    73   35   37 1    
    74   37   38 1    
    75   37   39 1    
    76   37  160 1    
    77   38  161 1    
    78   38  162 1    
    79   38  163 1    
    80   39   40 am   BACKBONE|DICT|INTERRES
    81   39  164 1    
    82   40   41 2    
    83   40   42 1    
    84   42   43 1    
    85   42   44 1    
    86   42  165 1    
    87   43  166 1    
    88   43  167 1    
    89   43  168 1    
    90   44   45 am   BACKBONE|DICT|INTERRES
    91   44  169 1    
    92   45   46 2    
    93   45   47 1    
    94   47   48 1    
    95   47   49 1    
    96   47  170 1    
    97   48  171 1    
    98   48  172 1    
    99   48  173 1    
   100   49   50 am   BACKBONE|DICT|INTERRES
   101   49  174 1    
   102   50   51 2    
   103   50   52 1    
   104   52   53 1    
   105   52   54 1    
   106   52  175 1    
   107   53  176 1    
   108   53  177 1    
   109   53  178 1    
   110   54   55 am   BACKBONE|DICT|INTERRES
   111   54  179 1    
   112   55   56 2    
   113   55   57 1    
   114   57   58 1    
   115   57   59 1    
   116   57  180 1    
   117   58  181 1    
   118   58  182 1    
   119   58  183 1    
   120   59   60 am   BACKBONE|DICT|INTERRES
   121   59  184 1    
   122   60   61 2    
   123   60   62 1    
   124   62   63 1    
   125   62   64 1    
   126   62  185 1    
   127   63  186 1    
   128   63  187 1    
   129   63  188 1    
   130   64   65 am   BACKBONE|DICT|INTERRES
   131   64  189 1    
   132   65   66 2    
   133   67   68 2    
   134   67   69 am   BACKBONE|DICT|INTERRES
   135   69   70 1    
   136   69  190 1    
   137   70   71 1    
   138   70   72 1    
   139   70  191 1    
   140   71  192 1    
   141   71  193 1    
   142   71  194 1    
   143   72   73 2    
   144   72   74 am   BACKBONE|DICT|INTERRES
   145   74   75 1    
   146   74  195 1    
   147   75   76 1    
   148   75   77 1    
   149   75  196 1    
   150   76  197 1    
   151   76  198 1    
   152   76  199 1    
   153   77   78 2    
   154   77   79 am   BACKBONE|DICT|INTERRES
   155   79   80 1    
   156   79  200 1    
   157   80   81 1    
   158   80   82 1    
   159   80  201 1    
   160   81  202 1    
   161   81  203 1    
   162   81  204 1    
   163   82   83 2    
   164   82   84 am   BACKBONE|DICT|INTERRES
   165   84   85 1    
   166   84  205 1    
   167   85   86 1    
   168   85   87 1    
   169   85  206 1    
   170   86  207 1    
   171   86  208 1    
   172   86  209 1    
   173   87   88 2    
   174   87   89 am   BACKBONE|DICT|INTERRES
   175   89   90 1    
   176   89  210 1    
   177   90   91 1    
   178   90   92 1    
   179   90  211 1    
   180   91  212 1    
   181   91  213 1    
   182   91  214 1    
   183   92   93 2    
   184   92   94 am   BACKBONE|DICT|INTERRES
   185   94   95 1    
   186   94  215 1    
   187   95   96 1    
   188   95   97 1    
   189   95  216 1    
   190   96  217 1    
   191   96  218 1    
   192   96  219 1    
   193   97   98 2    
   194   97   99 am   BACKBONE|DICT|INTERRES
   195   99  100 1    
   196   99  220 1    
   197  100  101 1    
   198  100  102 1    
   199  100  221 1    
   200  101  222 1    
   201  101  223 1    
   202  101  224 1    
   203  102  103 2    
   204  102  104 am   BACKBONE|DICT|INTERRES
   205  104  105 1    
   206  104  225 1    
   207  105  106 1    
   208  105  107 1    
   209  105  226 1    
   210  106  227 1    
   211  106  228 1    
   212  106  229 1    
   213  107  108 2    
   214  107  109 am   BACKBONE|DICT|INTERRES
   215  109  110 1    
   216  109  230 1    
   217  110  111 1    
   218  110  112 1    
   219  110  231 1    
   220  111  232 1    
   221  111  233 1    
   222  111  234 1    
   223  112  113 2    
   224  112  114 am   BACKBONE|DICT|INTERRES
   225  114  115 1    
   226  114  235 1    
   227  115  116 1    
   228  115  117 1    
   229  115  236 1    
   230  116  237 1    
   231  116  238 1    
   232  116  239 1    
   233  117  118 2    
   234  117  119 am   BACKBONE|DICT|INTERRES
   235  119  120 1    
   236  119  240 1    
   237  120  121 1    
   238  120  124 1    
   239  120  241 1    
   240  121  122 am   BACKBONE|DICT|INTERRES
   241  121  123 2    
   242  122  242 1    
   243  122  243 1    
   244  124  125 1    
   245  124  244 1    
   246  124  245 1    
   247  125  126 1    
   248  126  246 1    
   249  126  247 1    
@<TRIPOS>SUBSTRUCTURE
     1 UNK         1 GROUP             0       ****    0 ROOT    
