@<TRIPOS>MOLECULE
3R540
247   249    1
SMALL
USER_CHARGES


@<TRIPOS>ATOM
      1 CA         -5.2044  -15.2583  -50.3939 C.3       0 UNK        -0.1800 
      2 C          -3.8573  -14.5840  -50.1716 C.2       0 UNK         0.5000 
      3 O          -3.7937  -13.3588  -50.0674 O.2       0 UNK        -0.5000 
      4 N          -2.7862  -15.3828  -50.1012 N.am      1 UNK        -0.5000 
      5 CA         -1.4255  -14.9504  -49.7676 C.3       1 UNK         0.1400 
      6 C6         -0.3708  -15.8722  -50.4357 C.3       23 UNK        -0.0398 
      7 S7          1.1342  -14.9630  -50.9149 S.3       23 UNK        -0.2404 
      8 C8          2.0161  -16.2332  -51.8856 C.3       23 UNK        -0.0205 
      9 C9          2.4222  -17.4618  -51.0755 C.ar      23 UNK        -0.0193 
     10 C10         2.3340  -18.7327  -51.6508 C.ar      23 UNK        -0.1150 
     11 C11         2.7222  -19.8773  -50.9392 C.ar      23 UNK        -0.0193 
     12 C12         3.1804  -19.7300  -49.6256 C.ar      23 UNK        -0.1150 
     13 C13         3.2700  -18.4671  -49.0352 C.ar      23 UNK        -0.0193 
     14 C14         2.9091  -17.3384  -49.7718 C.ar      23 UNK        -0.1150 
     15 C15         3.7498  -18.3077  -47.5998 C.3       23 UNK        -0.0205 
     16 S16         2.6049  -19.0299  -46.3780 S.3       23 UNK        -0.2404 
     17 C17         0.9807  -18.3408  -46.8551 C.3       23 UNK        -0.0398 
     18 CA         -0.0311  -19.4674  -47.1691 C.3       11 UNK         0.1400 
     19 N          -0.3275  -20.2841  -45.9867 N.am      11 UNK        -0.5000 
     20 C          -1.0688  -21.4002  -45.9810 C.2       10 UNK         0.5000 
     21 O          -1.5518  -21.9086  -46.9905 O.2       10 UNK        -0.5000 
     22 CA         -1.3747  -22.0175  -44.6073 C.3       10 UNK         0.1400 
     23 CB         -0.2212  -22.9137  -44.1311 C.3       10 UNK        -0.1800 
     24 N          -1.6531  -20.9834  -43.6112 N.am      10 UNK        -0.5000 
     25 C          -2.7783  -20.2557  -43.5795 C.2       9 UNK         0.5000 
     26 O          -3.7196  -20.4240  -44.3556 O.2       9 UNK        -0.5000 
     27 CA         -2.8469  -19.1273  -42.5321 C.3       9 UNK         0.1400 
     28 CB         -3.3020  -19.6778  -41.1726 C.3       9 UNK        -0.1800 
     29 N          -1.5739  -18.4230  -42.3654 N.am      9 UNK        -0.5000 
     30 C          -1.0006  -17.6638  -43.3099 C.2       8 UNK         0.5000 
     31 O          -1.5038  -17.4494  -44.4108 O.2       8 UNK        -0.5000 
     32 CA          0.3897  -17.0786  -42.9957 C.3       8 UNK         0.1400 
     33 CB          0.2343  -15.7336  -42.2739 C.3       8 UNK        -0.1800 
     34 N           1.2615  -17.9514  -42.2048 N.am      8 UNK        -0.5000 
     35 C           1.5324  -19.2430  -42.4543 C.2       7 UNK         0.5000 
     36 O           1.0690  -19.8558  -43.4148 O.2       7 UNK        -0.5000 
     37 CA          2.4474  -19.9988  -41.4671 C.3       7 UNK         0.1400 
     38 CB          3.7972  -20.3086  -42.1324 C.3       7 UNK        -0.1800 
     39 N           2.6983  -19.2906  -40.2109 N.am      7 UNK        -0.5000 
     40 C           1.7846  -18.9419  -39.2934 C.2       6 UNK         0.5000 
     41 O           0.6031  -19.2859  -39.3450 O.2       6 UNK        -0.5000 
     42 CA          2.2594  -18.0082  -38.1567 C.3       6 UNK         0.1400 
     43 CB          2.3575  -18.7819  -36.8329 C.3       6 UNK        -0.1800 
     44 N           3.5438  -17.3382  -38.4104 N.am      6 UNK        -0.5000 
     45 C           3.8052  -16.4970  -39.4216 C.2       5 UNK         0.5000 
     46 O           2.9729  -16.1808  -40.2752 O.2       5 UNK        -0.5000 
     47 CA          5.2617  -16.0094  -39.5315 C.3       5 UNK         0.1400 
     48 CB          6.1854  -17.1722  -39.9351 C.3       5 UNK        -0.1800 
     49 N           5.4002  -14.9563  -40.5339 N.am      5 UNK        -0.5000 
     50 C           5.2213  -13.6469  -40.3200 C.2       4 UNK         0.5000 
     51 O           4.9678  -13.1595  -39.2175 O.2       4 UNK        -0.5000 
     52 CA          5.3622  -12.7255  -41.5496 C.3       4 UNK         0.1400 
     53 CB          6.7899  -12.1644  -41.6398 C.3       4 UNK        -0.1800 
     54 N           5.0386  -13.4144  -42.8035 N.am      4 UNK        -0.5000 
     55 C           3.7886  -13.6641  -43.2108 C.2       3 UNK         0.5000 
     56 O           2.7835  -13.2410  -42.6326 O.2       3 UNK        -0.5000 
     57 CA          3.6366  -14.5518  -44.4558 C.3       3 UNK         0.1400 
     58 CB          3.9904  -16.0148  -44.1321 C.3       3 UNK        -0.1800 
     59 N           2.2516  -14.4711  -44.9036 N.am      3 UNK        -0.5000 
     60 C           1.8194  -14.5704  -46.1629 C.2       2 UNK         0.5000 
     61 O           2.5475  -14.8177  -47.1268 O.2       2 UNK        -0.5000 
     62 CA          0.3149  -14.3406  -46.3714 C.3       2 UNK         0.1400 
     63 CB         -0.1135  -12.9311  -45.9144 C.3       2 UNK        -0.1800 
     64 N          -0.0272  -14.5278  -47.7796 N.am      2 UNK        -0.5000 
     65 C          -1.2473  -14.8310  -48.2328 C.2       1 UNK         0.5000 
     66 O          -2.2093  -15.0009  -47.4811 O.2       1 UNK        -0.5000 
     67 C          -1.3137  -18.9018  -47.8134 C.2       11 UNK         0.5000 
     68 O          -1.4273  -18.9142  -49.0382 O.2       11 UNK        -0.5000 
     69 N          -2.2701  -18.4569  -46.9854 N.am      12 UNK        -0.5000 
     70 CA         -3.5986  -18.0190  -47.4106 C.3       12 UNK         0.1400 
     71 CB         -4.3447  -17.3766  -46.2311 C.3       12 UNK        -0.1800 
     72 C          -4.4209  -19.1628  -48.0237 C.2       12 UNK         0.5000 
     73 O          -4.9608  -18.9976  -49.1167 O.2       12 UNK        -0.5000 
     74 N          -4.4707  -20.3067  -47.3262 N.am      13 UNK        -0.5000 
     75 CA         -5.1696  -21.5202  -47.7514 C.3       13 UNK         0.1400 
     76 CB         -5.0686  -22.5782  -46.6408 C.3       13 UNK        -0.1800 
     77 C          -4.6529  -22.0806  -49.0886 C.2       13 UNK         0.5000 
     78 O          -5.4567  -22.3410  -49.9864 O.2       13 UNK        -0.5000 
     79 N          -3.3241  -22.2226  -49.1921 N.am      14 UNK        -0.5000 
     80 CA         -2.6078  -22.7693  -50.3459 C.3       14 UNK         0.1400 
     81 CB         -1.1690  -23.1104  -49.9268 C.3       14 UNK        -0.1800 
     82 C          -2.5848  -21.8470  -51.5773 C.2       14 UNK         0.5000 
     83 O          -2.2033  -22.3010  -52.6564 O.2       14 UNK        -0.5000 
     84 N          -2.9632  -20.5707  -51.4197 N.am      15 UNK        -0.5000 
     85 CA         -2.9829  -19.5883  -52.5046 C.3       15 UNK         0.1400 
     86 CB         -3.2993  -18.1999  -51.9394 C.3       15 UNK        -0.1800 
     87 C          -3.9723  -19.9397  -53.6303 C.2       15 UNK         0.5000 
     88 O          -3.7013  -19.5976  -54.7812 O.2       15 UNK        -0.5000 
     89 N          -5.0609  -20.6245  -53.2536 N.am      16 UNK        -0.5000 
     90 CA         -6.1843  -21.1472  -54.0434 C.3       16 UNK         0.1400 
     91 CB         -6.5067  -20.3002  -55.2959 C.3       16 UNK        -0.1800 
     92 C          -7.4513  -21.2273  -53.1702 C.2       16 UNK         0.5000 
     93 O          -8.3969  -21.9204  -53.5468 O.2       16 UNK        -0.5000 
     94 N          -7.4694  -20.4886  -52.0478 N.am      17 UNK        -0.5000 
     95 CA         -8.6312  -20.2708  -51.1830 C.3       17 UNK         0.1400 
     96 CB         -8.2523  -19.2775  -50.0742 C.3       17 UNK        -0.1800 
     97 C          -9.2340  -21.5469  -50.5693 C.2       17 UNK         0.5000 
     98 O         -10.4552  -21.6148  -50.4191 O.2       17 UNK        -0.5000 
     99 N          -8.3841  -22.5230  -50.2286 N.am      18 UNK        -0.5000 
    100 CA        -8.8010  -23.8062  -49.6615 C.3       18 UNK         0.1400 
    101 CB        -8.6007  -23.7801  -48.1388 C.3       18 UNK        -0.1800 
    102 C         -8.0735  -25.0029  -50.2944 C.2       18 UNK         0.5000 
    103 O         -8.6251  -26.1046  -50.2791 O.2       18 UNK        -0.5000 
    104 N         -6.8704  -24.7937  -50.8411 N.am      19 UNK        -0.5000 
    105 CA        -6.0598  -25.8248  -51.4795 C.3       19 UNK         0.1400 
    106 CB        -5.2252  -26.5491  -50.4065 C.3       19 UNK        -0.1800 
    107 C         -5.1496  -25.1875  -52.5363 C.2       19 UNK         0.5000 
    108 O         -4.9313  -23.9762  -52.4990 O.2       19 UNK        -0.5000 
    109 N         -4.6114  -26.0346  -53.4251 N.am      20 UNK        -0.5000 
    110 CA        -3.5834  -25.7401  -54.4303 C.3       20 UNK         0.1400 
    111 CB        -2.1998  -25.6742  -53.7449 C.3       20 UNK        -0.1800 
    112 C         -3.9081  -24.5237  -55.3305 C.2       20 UNK         0.5000 
    113 O         -5.0717  -24.3307  -55.6906 O.2       20 UNK        -0.5000 
    114 N         -2.8785  -23.7575  -55.7080 N.am      21 UNK        -0.5000 
    115 CA        -2.9530  -22.5576  -56.5391 C.3       21 UNK         0.1400 
    116 CB        -3.3275  -22.9157  -57.9946 C.3       21 UNK        -0.1800 
    117 C         -1.6212  -21.7898  -56.4405 C.2       21 UNK         0.5000 
    118 O         -1.0505  -21.4092  -57.4645 O.2       21 UNK        -0.5000 
    119 N         -1.1153  -21.6171  -55.2114 N.am      22 UNK        -0.5000 
    120 CA         0.1622  -20.9434  -54.9178 C.3       22 UNK         0.1400 
    121 C          0.1736  -19.4023  -55.1665 C.2       22 UNK         0.5000 
    122 N         -0.9622  -18.7406  -55.3559 N.am      22 UNK        -0.7600 
    123 O          1.2374  -18.7923  -55.2105 O.2       22 UNK        -0.5000 
    124 C124        0.6631  -21.3125  -53.4945 C.3       23 UNK        -0.0398 
    125 S125        2.4778  -21.3951  -53.3455 S.3       23 UNK        -0.2404 
    126 C126        2.6704  -21.2888  -51.5306 C.3       23 UNK        -0.0205 
    127 H127       -5.9587  -14.8163  -49.7430 H         1 UNK         0.0600 
    128 H128       -5.1627  -16.3258  -50.1772 H         1 UNK         0.0600 
    129 H129       -5.5248  -15.1286  -51.4275 H         1 UNK         0.0600 
    130 H130       -2.9174  -16.3809  -50.1658 H         1 UNK         0.3000 
    131 H131       -1.2997  -13.9429  -50.1704 H         1 UNK         0.0600 
    132 H132       -0.1065  -16.7179  -49.7996 H         1 UNK         0.0800 
    133 H133       -0.7742  -16.3051  -51.3524 H         1 UNK         0.0800 
    134 H134        2.9172  -15.7863  -52.3072 H         1 UNK         0.0800 
    135 H135        1.3905  -16.5223  -52.7320 H         1 UNK         0.0800 
    136 H136        1.9714  -18.8156  -52.6636 H         1 UNK         0.1150 
    137 H137        3.4683  -20.6022  -49.0551 H         1 UNK         0.1150 
    138 H138        2.9931  -16.3601  -49.3197 H         1 UNK         0.1150 
    139 H139        4.7257  -18.7829  -47.4931 H         1 UNK         0.0800 
    140 H140        3.8970  -17.2537  -47.3596 H         1 UNK         0.0800 
    141 H141        1.0950  -17.6706  -47.7067 H         1 UNK         0.0800 
    142 H142        0.6160  -17.7152  -46.0431 H         1 UNK         0.0800 
    143 H143        0.4222  -20.1287  -47.9113 H         1 UNK         0.0600 
    144 H144        0.0824  -19.9774  -45.1092 H         1 UNK         0.3000 
    145 H145       -2.2631  -22.6439  -44.7085 H         1 UNK         0.0600 
    146 H146       -0.4427  -23.3601  -43.1617 H         1 UNK         0.0600 
    147 H147       -0.0519  -23.7301  -44.8342 H         1 UNK         0.0600 
    148 H148        0.7156  -22.3639  -44.0415 H         1 UNK         0.0600 
    149 H149       -0.8833  -20.7193  -43.0108 H         1 UNK         0.3000 
    150 H150       -3.5908  -18.4043  -42.8738 H         1 UNK         0.0600 
    151 H151       -4.2560  -20.1992  -41.2620 H         1 UNK         0.0600 
    152 H152       -3.4380  -18.8748  -40.4480 H         1 UNK         0.0600 
    153 H153       -2.5787  -20.3826  -40.7603 H         1 UNK         0.0600 
    154 H154       -1.0838  -18.5594  -41.4921 H         1 UNK         0.3000 
    155 H155        0.8987  -16.8994  -43.9426 H         1 UNK         0.0600 
    156 H156       -0.2525  -15.8521  -41.3051 H         1 UNK         0.0600 
    157 H157       -0.3645  -15.0368  -42.8619 H         1 UNK         0.0600 
    158 H158        1.2019  -15.2664  -42.1000 H         1 UNK         0.0600 
    159 H159        1.7192  -17.5147  -41.4129 H         1 UNK         0.3000 
    160 H160        1.9537  -20.9425  -41.2274 H         1 UNK         0.0600 
    161 H161        4.3396  -19.3960  -42.3837 H         1 UNK         0.0600 
    162 H162        3.6583  -20.8709  -43.0571 H         1 UNK         0.0600 
    163 H163        4.4315  -20.9100  -41.4809 H         1 UNK         0.0600 
    164 H164        3.6404  -18.9588  -40.0715 H         1 UNK         0.3000 
    165 H165        1.5000  -17.2318  -38.0445 H         1 UNK         0.0600 
    166 H166        2.6000  -18.1172  -36.0035 H         1 UNK         0.0600 
    167 H167        1.4107  -19.2668  -36.5909 H         1 UNK         0.0600 
    168 H168        3.1220  -19.5585  -36.8772 H         1 UNK         0.0600 
    169 H169        4.2874  -17.5577  -37.7629 H         1 UNK         0.3000 
    170 H170        5.5750  -15.6304  -38.5564 H         1 UNK         0.0600 
    171 H171        6.1730  -17.9694  -39.1910 H         1 UNK         0.0600 
    172 H172        5.8909  -17.6091  -40.8905 H         1 UNK         0.0600 
    173 H173        7.2192  -16.8382  -40.0264 H         1 UNK         0.0600 
    174 H174        5.5549  -15.2628  -41.4815 H         1 UNK         0.3000 
    175 H175        4.6764  -11.8858  -41.4166 H         1 UNK         0.0600 
    176 H176        7.5273  -12.9563  -41.7769 H         1 UNK         0.0600 
    177 H177        6.8873  -11.4661  -42.4713 H         1 UNK         0.0600 
    178 H178        7.0545  -11.6236  -40.7301 H         1 UNK         0.0600 
    179 H179        5.8171  -13.7669  -43.3418 H         1 UNK         0.3000 
    180 H180        4.2995  -14.1715  -45.2360 H         1 UNK         0.0600 
    181 H181        3.4063  -16.3942  -43.2931 H         1 UNK         0.0600 
    182 H182        5.0437  -16.1183  -43.8710 H         1 UNK         0.0600 
    183 H183        3.8064  -16.6641  -44.9861 H         1 UNK         0.0600 
    184 H184        1.6176  -14.1713  -44.1733 H         1 UNK         0.3000 
    185 H185       -0.2110  -15.0894  -45.7744 H         1 UNK         0.0600 
    186 H186       -1.1835  -12.7764  -46.0534 H         1 UNK         0.0600 
    187 H187        0.0929  -12.7720  -44.8556 H         1 UNK         0.0600 
    188 H188        0.4103  -12.1545  -46.4730 H         1 UNK         0.0600 
    189 H189        0.7561  -14.4557  -48.4193 H         1 UNK         0.3000 
    190 H190       -2.0693  -18.3896  -45.9919 H         1 UNK         0.3000 
    191 H191       -3.4704  -17.2593  -48.1809 H         1 UNK         0.0600 
    192 H192       -5.3253  -17.0144  -46.5420 H         1 UNK         0.0600 
    193 H193       -3.7942  -16.5228  -45.8359 H         1 UNK         0.0600 
    194 H194       -4.4973  -18.0800  -45.4130 H         1 UNK         0.0600 
    195 H195       -4.0134  -20.3440  -46.4215 H         1 UNK         0.3000 
    196 H196       -6.2232  -21.2682  -47.8865 H         1 UNK         0.0600 
    197 H197       -4.0332  -22.7764  -46.3671 H         1 UNK         0.0600 
    198 H198       -5.5933  -22.2547  -45.7417 H         1 UNK         0.0600 
    199 H199       -5.5022  -23.5288  -46.9500 H         1 UNK         0.0600 
    200 H200       -2.7464  -21.9857  -48.3874 H         1 UNK         0.3000 
    201 H201       -3.1013  -23.6965  -50.6394 H         1 UNK         0.0600 
    202 H202       -1.1566  -23.8139  -49.0942 H         1 UNK         0.0600 
    203 H203       -0.6199  -22.2184  -49.6214 H         1 UNK         0.0600 
    204 H204       -0.6181  -23.5705  -50.7482 H         1 UNK         0.0600 
    205 H205       -3.2301  -20.2500  -50.4984 H         1 UNK         0.3000 
    206 H206       -1.9803  -19.5571  -52.9311 H         1 UNK         0.0600 
    207 H207       -2.6055  -17.9417  -51.1430 H         1 UNK         0.0600 
    208 H208       -3.2123  -17.4342  -52.7115 H         1 UNK         0.0600 
    209 H209       -4.3122  -18.1511  -51.5403 H         1 UNK         0.0600 
    210 H210       -5.0701  -20.9313  -52.2891 H         1 UNK         0.3000 
    211 H211       -5.9324  -22.1619  -54.3521 H         1 UNK         0.0600 
    212 H212       -7.4418  -20.6173  -55.7597 H         1 UNK         0.0600 
    213 H213       -5.7387  -20.4060  -56.0611 H         1 UNK         0.0600 
    214 H214       -6.6051  -19.2417  -55.0531 H         1 UNK         0.0600 
    215 H215       -6.6565  -19.9307  -51.8345 H         1 UNK         0.3000 
    216 H216       -9.4056  -19.8097  -51.7994 H         1 UNK         0.0600 
    217 H217       -7.4956  -19.6932  -49.4092 H         1 UNK         0.0600 
    218 H218       -9.1198  -19.0252  -49.4631 H         1 UNK         0.0600 
    219 H219       -7.8632  -18.3462  -50.4863 H         1 UNK         0.0600 
    220 H220       -7.3884  -22.3748  -50.3582 H         1 UNK         0.3000 
    221 H221       -9.8627  -23.9713  -49.8567 H         1 UNK         0.0600 
    222 H222       -9.1935  -22.9910  -47.6761 H         1 UNK         0.0600 
    223 H223       -7.5576  -23.6106  -47.8814 H         1 UNK         0.0600 
    224 H224       -8.9040  -24.7247  -47.6856 H         1 UNK         0.0600 
    225 H225       -6.4389  -23.8743  -50.8329 H         1 UNK         0.3000 
    226 H226       -6.7094  -26.5418  -51.9862 H         1 UNK         0.0600 
    227 H227       -4.5700  -25.8560  -49.8768 H         1 UNK         0.0600 
    228 H228       -5.8640  -27.0345  -49.6685 H         1 UNK         0.0600 
    229 H229       -4.5972  -27.3234  -50.8483 H         1 UNK         0.0600 
    230 H230       -4.8992  -27.0019  -53.3862 H         1 UNK         0.3000 
    231 H231       -3.5696  -26.5991  -55.1024 H         1 UNK         0.0600 
    232 H232       -2.1276  -24.8308  -53.0599 H         1 UNK         0.0600 
    233 H233       -1.3889  -25.5933  -54.4693 H         1 UNK         0.0600 
    234 H234       -2.0114  -26.5785  -53.1660 H         1 UNK         0.0600 
    235 H235       -1.9575  -23.9832  -55.3583 H         1 UNK         0.3000 
    236 H236       -3.7290  -21.9072  -56.1335 H         1 UNK         0.0600 
    237 H237       -4.3061  -23.3907  -58.0561 H         1 UNK         0.0600 
    238 H238       -3.3723  -22.0223  -58.6185 H         1 UNK         0.0600 
    239 H239       -2.5980  -23.5935  -58.4392 H         1 UNK         0.0600 
    240 H240       -1.6424  -21.9362  -54.4007 H         1 UNK         0.3000 
    241 H241        0.8795  -21.3553  -55.6305 H         1 UNK         0.0600 
    242 H242       -0.9242  -17.7507  -55.5374 H         1 UNK         0.3800 
    243 H243       -1.8626  -19.2076  -55.3320 H         1 UNK         0.3800 
    244 H244        0.3123  -22.3085  -53.2225 H         1 UNK         0.0800 
    245 H245        0.2505  -20.6378  -52.7425 H         1 UNK         0.0800 
    246 H246        1.8686  -21.8487  -51.0468 H         1 UNK         0.0800 
    247 H247        3.5977  -21.8037  -51.2746 H         1 UNK         0.0800 
@<TRIPOS>BOND
     1    1    2 1    
     2    1  127 1    
     3    1  128 1    
     4    1  129 1    
     5    2    3 2    
     6    2    4 am   BACKBONE|DICT|INTERRES
     7    4    5 1    
     8    4  130 1    
     9    5    6 1    
    10    5   65 1    
    11    5  131 1    
    12    6    7 1    
    13    6  132 1    
    14    6  133 1    
    15    7    8 1    
    16    8    9 1    
    17    8  134 1    
    18    8  135 1    
    19    9   10 ar   
    20    9   14 ar   
    21   10   11 ar   
    22   10  136 1    
    23   11   12 ar   
    24   11  126 1    
    25   12   13 ar   
    26   12  137 1    
    27   13   14 ar   
    28   13   15 1    
    29   14  138 1    
    30   15   16 1    
    31   15  139 1    
    32   15  140 1    
    33   16   17 1    
    34   17   18 1    
    35   17  141 1    
    36   17  142 1    
    37   18   19 1    
    38   18   67 1    
    39   18  143 1    
    40   19   20 am   BACKBONE|DICT|INTERRES
    41   19  144 1    
    42   20   21 2    
    43   20   22 1    
    44   22   23 1    
    45   22   24 1    
    46   22  145 1    
    47   23  146 1    
    48   23  147 1    
    49   23  148 1    
    50   24   25 am   BACKBONE|DICT|INTERRES
    51   24  149 1    
    52   25   26 2    
    53   25   27 1    
    54   27   28 1    
    55   27   29 1    
    56   27  150 1    
    57   28  151 1    
    58   28  152 1    
    59   28  153 1    
    60   29   30 am   BACKBONE|DICT|INTERRES
    61   29  154 1    
    62   30   31 2    
    63   30   32 1    
    64   32   33 1    
    65   32   34 1    
    66   32  155 1    
    67   33  156 1    
    68   33  157 1    
    69   33  158 1    
    70   34   35 am   BACKBONE|DICT|INTERRES
    71   34  159 1    
    72   35   36 2    
    73   35   37 1    
    74   37   38 1    
    75   37   39 1    
    76   37  160 1    
    77   38  161 1    
    78   38  162 1    
    79   38  163 1    
    80   39   40 am   BACKBONE|DICT|INTERRES
    81   39  164 1    
    82   40   41 2    
    83   40   42 1    
    84   42   43 1    
    85   42   44 1    
    86   42  165 1    
    87   43  166 1    
    88   43  167 1    
    89   43  168 1    
    90   44   45 am   BACKBONE|DICT|INTERRES
    91   44  169 1    
    92   45   46 2    
    93   45   47 1    
    94   47   48 1    
    95   47   49 1    
    96   47  170 1    
    97   48  171 1    
    98   48  172 1    
    99   48  173 1    
   100   49   50 am   BACKBONE|DICT|INTERRES
   101   49  174 1    
   102   50   51 2    
   103   50   52 1    
   104   52   53 1    
   105   52   54 1    
   106   52  175 1    
   107   53  176 1    
   108   53  177 1    
   109   53  178 1    
   110   54   55 am   BACKBONE|DICT|INTERRES
   111   54  179 1    
   112   55   56 2    
   113   55   57 1    
   114   57   58 1    
   115   57   59 1    
   116   57  180 1    
   117   58  181 1    
   118   58  182 1    
   119   58  183 1    
   120   59   60 am   BACKBONE|DICT|INTERRES
   121   59  184 1    
   122   60   61 2    
   123   60   62 1    
   124   62   63 1    
   125   62   64 1    
   126   62  185 1    
   127   63  186 1    
   128   63  187 1    
   129   63  188 1    
   130   64   65 am   BACKBONE|DICT|INTERRES
   131   64  189 1    
   132   65   66 2    
   133   67   68 2    
   134   67   69 am   BACKBONE|DICT|INTERRES
   135   69   70 1    
   136   69  190 1    
   137   70   71 1    
   138   70   72 1    
   139   70  191 1    
   140   71  192 1    
   141   71  193 1    
   142   71  194 1    
   143   72   73 2    
   144   72   74 am   BACKBONE|DICT|INTERRES
   145   74   75 1    
   146   74  195 1    
   147   75   76 1    
   148   75   77 1    
   149   75  196 1    
   150   76  197 1    
   151   76  198 1    
   152   76  199 1    
   153   77   78 2    
   154   77   79 am   BACKBONE|DICT|INTERRES
   155   79   80 1    
   156   79  200 1    
   157   80   81 1    
   158   80   82 1    
   159   80  201 1    
   160   81  202 1    
   161   81  203 1    
   162   81  204 1    
   163   82   83 2    
   164   82   84 am   BACKBONE|DICT|INTERRES
   165   84   85 1    
   166   84  205 1    
   167   85   86 1    
   168   85   87 1    
   169   85  206 1    
   170   86  207 1    
   171   86  208 1    
   172   86  209 1    
   173   87   88 2    
   174   87   89 am   BACKBONE|DICT|INTERRES
   175   89   90 1    
   176   89  210 1    
   177   90   91 1    
   178   90   92 1    
   179   90  211 1    
   180   91  212 1    
   181   91  213 1    
   182   91  214 1    
   183   92   93 2    
   184   92   94 am   BACKBONE|DICT|INTERRES
   185   94   95 1    
   186   94  215 1    
   187   95   96 1    
   188   95   97 1    
   189   95  216 1    
   190   96  217 1    
   191   96  218 1    
   192   96  219 1    
   193   97   98 2    
   194   97   99 am   BACKBONE|DICT|INTERRES
   195   99  100 1    
   196   99  220 1    
   197  100  101 1    
   198  100  102 1    
   199  100  221 1    
   200  101  222 1    
   201  101  223 1    
   202  101  224 1    
   203  102  103 2    
   204  102  104 am   BACKBONE|DICT|INTERRES
   205  104  105 1    
   206  104  225 1    
   207  105  106 1    
   208  105  107 1    
   209  105  226 1    
   210  106  227 1    
   211  106  228 1    
   212  106  229 1    
   213  107  108 2    
   214  107  109 am   BACKBONE|DICT|INTERRES
   215  109  110 1    
   216  109  230 1    
   217  110  111 1    
   218  110  112 1    
   219  110  231 1    
   220  111  232 1    
   221  111  233 1    
   222  111  234 1    
   223  112  113 2    
   224  112  114 am   BACKBONE|DICT|INTERRES
   225  114  115 1    
   226  114  235 1    
   227  115  116 1    
   228  115  117 1    
   229  115  236 1    
   230  116  237 1    
   231  116  238 1    
   232  116  239 1    
   233  117  118 2    
   234  117  119 am   BACKBONE|DICT|INTERRES
   235  119  120 1    
   236  119  240 1    
   237  120  121 1    
   238  120  124 1    
   239  120  241 1    
   240  121  122 am   BACKBONE|DICT|INTERRES
   241  121  123 2    
   242  122  242 1    
   243  122  243 1    
   244  124  125 1    
   245  124  244 1    
   246  124  245 1    
   247  125  126 1    
   248  126  246 1    
   249  126  247 1    
@<TRIPOS>SUBSTRUCTURE
     1 UNK         1 GROUP             0       ****    0 ROOT    
