@<TRIPOS>MOLECULE
3R540
247   249    1
SMALL
USER_CHARGES


@<TRIPOS>ATOM
      1 CA          4.2154  -16.8571  -46.6624 C.3       0 UNK        -0.1800 
      2 C           3.6832  -15.4652  -46.3565 C.2       0 UNK         0.5000 
      3 O           3.7806  -15.0070  -45.2203 O.2       0 UNK        -0.5000 
      4 N           3.1376  -14.7807  -47.3704 N.am      1 UNK        -0.5000 
      5 CA          2.4494  -13.4809  -47.2731 C.3       1 UNK         0.1400 
      6 C6          1.6298  -13.1594  -48.5462 C.3       23 UNK        -0.0398 
      7 S7          0.3632  -14.4359  -48.8566 S.3       23 UNK        -0.2404 
      8 C8          0.9910  -15.2296  -50.3699 C.3       23 UNK        -0.0205 
      9 C9          0.5143  -16.6702  -50.4652 C.ar      23 UNK        -0.0193 
     10 C10        -0.8366  -16.9519  -50.6872 C.ar      23 UNK        -0.1150 
     11 C11        -1.2957  -18.2707  -50.7480 C.ar      23 UNK        -0.0193 
     12 C12        -0.3758  -19.3137  -50.5743 C.ar      23 UNK        -0.1150 
     13 C13         0.9832  -19.0491  -50.3835 C.ar      23 UNK        -0.0193 
     14 C14         1.4222  -17.7236  -50.3295 C.ar      23 UNK        -0.1150 
     15 C15         1.9723  -20.2025  -50.2659 C.3       23 UNK        -0.0205 
     16 S16         3.0107  -20.1385  -48.7678 S.3       23 UNK        -0.2404 
     17 C17         1.7890  -20.0069  -47.4210 C.3       23 UNK        -0.0398 
     18 CA          1.2338  -21.3773  -46.9541 C.3       11 UNK         0.1400 
     19 N           1.0182  -21.4229  -45.5052 N.am      11 UNK        -0.5000 
     20 C           0.6543  -22.5117  -44.8132 C.2       10 UNK         0.5000 
     21 O           0.5170  -23.6260  -45.3171 O.2       10 UNK        -0.5000 
     22 CA          0.3352  -22.3125  -43.3199 C.3       10 UNK         0.1400 
     23 CB          1.6166  -22.3489  -42.4743 C.3       10 UNK        -0.1800 
     24 N          -0.3950  -21.0693  -43.0643 N.am      10 UNK        -0.5000 
     25 C          -1.6310  -20.8127  -43.5177 C.2       9 UNK         0.5000 
     26 O          -2.3093  -21.6272  -44.1420 O.2       9 UNK        -0.5000 
     27 CA         -2.1819  -19.3934  -43.2865 C.3       9 UNK         0.1400 
     28 CB         -2.7198  -19.2361  -41.8570 C.3       9 UNK        -0.1800 
     29 N          -1.1885  -18.3543  -43.5599 N.am      9 UNK        -0.5000 
     30 C          -0.6292  -18.1358  -44.7589 C.2       8 UNK         0.5000 
     31 O          -0.9307  -18.7554  -45.7785 O.2       8 UNK        -0.5000 
     32 CA          0.4978  -17.0912  -44.8179 C.3       8 UNK         0.1400 
     33 CB         -0.0711  -15.6733  -44.9321 C.3       8 UNK        -0.1800 
     34 N           1.3876  -17.1655  -43.6599 N.am      8 UNK        -0.5000 
     35 C           2.1793  -18.2091  -43.3808 C.2       7 UNK         0.5000 
     36 O           2.2700  -19.2082  -44.0922 O.2       7 UNK        -0.5000 
     37 CA          2.9586  -18.1484  -42.0576 C.3       7 UNK         0.1400 
     38 CB          4.1875  -17.2411  -42.1938 C.3       7 UNK        -0.1800 
     39 N           2.1183  -17.6965  -40.9460 N.am      7 UNK        -0.5000 
     40 C           1.1014  -18.4144  -40.4470 C.2       6 UNK         0.5000 
     41 O           0.7836  -19.5267  -40.8673 O.2       6 UNK        -0.5000 
     42 CA          0.2809  -17.7829  -39.3068 C.3       6 UNK         0.1400 
     43 CB          0.9292  -18.0865  -37.9479 C.3       6 UNK        -0.1800 
     44 N           0.0763  -16.3374  -39.4312 N.am      6 UNK        -0.5000 
     45 C          -0.5329  -15.7231  -40.4545 C.2       5 UNK         0.5000 
     46 O          -0.9178  -16.3113  -41.4670 O.2       5 UNK        -0.5000 
     47 CA         -0.7400  -14.2023  -40.3494 C.3       5 UNK         0.1400 
     48 CB         -0.2142  -13.5641  -39.0460 C.3       5 UNK        -0.1800 
     49 N          -0.0844  -13.5934  -41.4950 N.am      5 UNK        -0.5000 
     50 C          -0.4395  -12.4785  -42.1328 C.2       4 UNK         0.5000 
     51 O          -1.3863  -11.7688  -41.7879 O.2       4 UNK        -0.5000 
     52 CA          0.4200  -12.1046  -43.3639 C.3       4 UNK         0.1400 
     53 CB         -0.0662  -10.8205  -44.0592 C.3       4 UNK        -0.1800 
     54 N           1.8535  -11.9652  -43.0819 N.am      4 UNK        -0.5000 
     55 C           2.7128  -12.9283  -42.7200 C.2       3 UNK         0.5000 
     56 O           2.3938  -14.1063  -42.5385 O.2       3 UNK        -0.5000 
     57 CA          4.1813  -12.4928  -42.6134 C.3       3 UNK         0.1400 
     58 CB          5.0308  -13.4215  -41.7297 C.3       3 UNK        -0.1800 
     59 N           4.7147  -12.4920  -43.9680 N.am      3 UNK        -0.5000 
     60 C           5.3301  -11.4669  -44.5714 C.2       2 UNK         0.5000 
     61 O           5.6455  -10.4239  -43.9975 O.2       2 UNK        -0.5000 
     62 CA          5.6119  -11.6157  -46.0836 C.3       2 UNK         0.1400 
     63 CB          7.0410  -12.1279  -46.3179 C.3       2 UNK        -0.1800 
     64 N           4.6672  -12.5172  -46.7484 N.am      2 UNK        -0.5000 
     65 C           3.3502  -12.2932  -46.8633 C.2       1 UNK         0.5000 
     66 O           2.8290  -11.2070  -46.6078 O.2       1 UNK        -0.5000 
     67 C          -0.0444  -21.7597  -47.7286 C.2       11 UNK         0.5000 
     68 O           0.0104  -22.6237  -48.6019 O.2       11 UNK        -0.5000 
     69 N          -1.1777  -21.1478  -47.3593 N.am      12 UNK        -0.5000 
     70 CA         -2.4947  -21.4123  -47.9402 C.3       12 UNK         0.1400 
     71 CB         -3.4769  -20.3290  -47.4717 C.3       12 UNK        -0.1800 
     72 C          -3.0401  -22.8195  -47.6285 C.2       12 UNK         0.5000 
     73 O          -3.8215  -23.3503  -48.4160 O.2       12 UNK        -0.5000 
     74 N          -2.6264  -23.4071  -46.4978 N.am      13 UNK        -0.5000 
     75 CA         -2.9234  -24.7937  -46.1424 C.3       13 UNK         0.1400 
     76 CB         -2.6933  -25.0073  -44.6386 C.3       13 UNK        -0.1800 
     77 C          -2.0949  -25.7883  -46.9764 C.2       13 UNK         0.5000 
     78 O          -2.6349  -26.8046  -47.4138 O.2       13 UNK        -0.5000 
     79 N          -0.8071  -25.4775  -47.1867 N.am      14 UNK        -0.5000 
     80 CA          0.1203  -26.2627  -48.0018 C.3       14 UNK         0.1400 
     81 CB          1.5584  -25.7756  -47.7624 C.3       14 UNK        -0.1800 
     82 C          -0.2434  -26.2176  -49.4963 C.2       14 UNK         0.5000 
     83 O          -0.4179  -27.2671  -50.1175 O.2       14 UNK        -0.5000 
     84 N          -0.4009  -25.0035  -50.0369 N.am      15 UNK        -0.5000 
     85 CA         -0.8977  -24.7387  -51.3848 C.3       15 UNK         0.1400 
     86 CB         -0.2684  -23.4337  -51.9028 C.3       15 UNK        -0.1800 
     87 C          -2.4353  -24.6868  -51.3457 C.2       15 UNK         0.5000 
     88 O          -3.0239  -23.6198  -51.5097 O.2       15 UNK        -0.5000 
     89 N          -3.0438  -25.8527  -51.0870 N.am      16 UNK        -0.5000 
     90 CA         -4.4486  -26.0609  -50.7167 C.3       16 UNK         0.1400 
     91 CB         -4.6647  -27.5627  -50.4726 C.3       16 UNK        -0.1800 
     92 C          -5.5182  -25.5200  -51.6889 C.2       16 UNK         0.5000 
     93 O          -6.6775  -25.3954  -51.2905 O.2       16 UNK        -0.5000 
     94 N          -5.1368  -25.1914  -52.9297 N.am      17 UNK        -0.5000 
     95 CA         -5.9798  -24.5934  -53.9690 C.3       17 UNK         0.1400 
     96 CB         -5.2972  -24.8059  -55.3323 C.3       17 UNK        -0.1800 
     97 C          -6.3128  -23.1043  -53.7088 C.2       17 UNK         0.5000 
     98 O          -6.2307  -22.2822  -54.6233 O.2       17 UNK        -0.5000 
     99 N          -6.7010  -22.7667  -52.4728 N.am      18 UNK        -0.5000 
    100 CA        -7.0175  -21.4109  -52.0135 C.3       18 UNK         0.1400 
    101 CB        -7.2453  -21.4341  -50.4955 C.3       18 UNK        -0.1800 
    102 C         -8.2159  -20.7739  -52.7443 C.2       18 UNK         0.5000 
    103 O         -8.2556  -19.5529  -52.8959 O.2       18 UNK        -0.5000 
    104 N         -9.1344  -21.6126  -53.2456 N.am      19 UNK        -0.5000 
    105 CA       -10.2497  -21.2254  -54.1148 C.3       19 UNK         0.1400 
    106 CB       -11.1932  -22.4270  -54.2758 C.3       19 UNK        -0.1800 
    107 C         -9.8008  -20.7038  -55.4975 C.2       19 UNK         0.5000 
    108 O        -10.5445  -19.9535  -56.1295 O.2       19 UNK        -0.5000 
    109 N         -8.5898  -21.0848  -55.9258 N.am      20 UNK        -0.5000 
    110 CA        -7.9133  -20.6099  -57.1327 C.3       20 UNK         0.1400 
    111 CB        -7.4043  -21.8291  -57.9225 C.3       20 UNK        -0.1800 
    112 C         -6.7681  -19.6405  -56.7693 C.2       20 UNK         0.5000 
    113 O         -5.7968  -19.5299  -57.5203 O.2       20 UNK        -0.5000 
    114 N         -6.8806  -18.9803  -55.6045 N.am      21 UNK        -0.5000 
    115 CA        -5.9339  -18.0212  -55.0227 C.3       21 UNK         0.1400 
    116 CB        -5.8964  -16.7257  -55.8599 C.3       21 UNK        -0.1800 
    117 C         -4.5299  -18.6126  -54.7707 C.2       21 UNK         0.5000 
    118 O         -3.5394  -17.8819  -54.8232 O.2       21 UNK        -0.5000 
    119 N         -4.4761  -19.9265  -54.5136 N.am      22 UNK        -0.5000 
    120 CA        -3.2606  -20.7384  -54.3407 C.3       22 UNK         0.1400 
    121 C         -2.4660  -20.9829  -55.6600 C.2       22 UNK         0.5000 
    122 N         -3.0152  -20.6949  -56.8357 N.am      22 UNK        -0.7600 
    123 O         -1.3414  -21.4749  -55.6261 O.2       22 UNK        -0.5000 
    124 C124       -2.3535  -20.2704  -53.1689 C.3       23 UNK        -0.0398 
    125 S125       -3.2404  -20.1808  -51.5737 S.3       23 UNK        -0.2404 
    126 C126       -2.7882  -18.5104  -50.9924 C.3       23 UNK        -0.0205 
    127 H127        3.8068  -17.5776  -45.9546 H         1 UNK         0.0600 
    128 H128        5.3014  -16.8716  -46.5741 H         1 UNK         0.0600 
    129 H129        3.9473  -17.1821  -47.6681 H         1 UNK         0.0600 
    130 H130        3.1048  -15.2115  -48.2823 H         1 UNK         0.3000 
    131 H131        1.7351  -13.5706  -46.4542 H         1 UNK         0.0600 
    132 H132        2.2831  -13.0472  -49.4128 H         1 UNK         0.0800 
    133 H133        1.1057  -12.2080  -48.4370 H         1 UNK         0.0800 
    134 H134        0.6491  -14.6693  -51.2413 H         1 UNK         0.0800 
    135 H135        2.0810  -15.1941  -50.3873 H         1 UNK         0.0800 
    136 H136       -1.5358  -16.1350  -50.8011 H         1 UNK         0.1150 
    137 H137       -0.7080  -20.3402  -50.5999 H         1 UNK         0.1150 
    138 H138        2.4718  -17.5167  -50.1750 H         1 UNK         0.1150 
    139 H139        1.4572  -21.1629  -50.2973 H         1 UNK         0.0800 
    140 H140        2.6253  -20.1866  -51.1392 H         1 UNK         0.0800 
    141 H141        0.9988  -19.3003  -47.6801 H         1 UNK         0.0800 
    142 H142        2.3299  -19.5311  -46.6050 H         1 UNK         0.0800 
    143 H143        1.9816  -22.1447  -47.1657 H         1 UNK         0.0600 
    144 H144        1.1706  -20.5578  -44.9957 H         1 UNK         0.3000 
    145 H145       -0.3000  -23.1425  -43.0040 H         1 UNK         0.0600 
    146 H146        1.3872  -22.2872  -41.4104 H         1 UNK         0.0600 
    147 H147        2.1645  -23.2780  -42.6360 H         1 UNK         0.0600 
    148 H148        2.2870  -21.5250  -42.7189 H         1 UNK         0.0600 
    149 H149        0.0829  -20.3664  -42.5083 H         1 UNK         0.3000 
    150 H150       -3.0132  -19.2442  -43.9787 H         1 UNK         0.0600 
    151 H151       -3.5040  -19.9664  -41.6540 H         1 UNK         0.0600 
    152 H152       -3.1484  -18.2456  -41.7031 H         1 UNK         0.0600 
    153 H153       -1.9371  -19.3812  -41.1131 H         1 UNK         0.0600 
    154 H154       -0.9165  -17.7619  -42.7805 H         1 UNK         0.3000 
    155 H155        1.0923  -17.2903  -45.7119 H         1 UNK         0.0600 
    156 H156       -0.7015  -15.4170  -44.0800 H         1 UNK         0.0600 
    157 H157       -0.6703  -15.5626  -45.8367 H         1 UNK         0.0600 
    158 H158        0.7379  -14.9482  -44.9822 H         1 UNK         0.0600 
    159 H159        1.3831  -16.3778  -43.0274 H         1 UNK         0.3000 
    160 H160        3.3087  -19.1572  -41.8278 H         1 UNK         0.0600 
    161 H161        3.9012  -16.2328  -42.4867 H         1 UNK         0.0600 
    162 H162        4.8662  -17.6186  -42.9595 H         1 UNK         0.0600 
    163 H163        4.7467  -17.1797  -41.2602 H         1 UNK         0.0600 
    164 H164        2.3080  -16.7821  -40.5631 H         1 UNK         0.3000 
    165 H165       -0.7052  -18.2508  -39.3202 H         1 UNK         0.0600 
    166 H166        0.3025  -17.7416  -37.1253 H         1 UNK         0.0600 
    167 H167        1.0746  -19.1595  -37.8153 H         1 UNK         0.0600 
    168 H168        1.9049  -17.6085  -37.8513 H         1 UNK         0.0600 
    169 H169        0.3746  -15.7751  -38.6476 H         1 UNK         0.3000 
    170 H170       -1.8159  -14.0290  -40.4153 H         1 UNK         0.0600 
    171 H171       -0.6957  -13.9974  -38.1684 H         1 UNK         0.0600 
    172 H172        0.8644  -13.6867  -38.9390 H         1 UNK         0.0600 
    173 H173       -0.4246  -12.4946  -39.0254 H         1 UNK         0.0600 
    174 H174        0.7372  -14.0816  -41.8470 H         1 UNK         0.3000 
    175 H175        0.3034  -12.9163  -44.0809 H         1 UNK         0.0600 
    176 H176        0.0357   -9.9491  -43.4113 H         1 UNK         0.0600 
    177 H177        0.4983  -10.6285  -44.9721 H         1 UNK         0.0600 
    178 H178       -1.1165  -10.9002  -44.3427 H         1 UNK         0.0600 
    179 H179        2.2256  -11.0360  -43.2142 H         1 UNK         0.3000 
    180 H180        4.2018  -11.4918  -42.1775 H         1 UNK         0.0600 
    181 H181        5.1724  -14.3982  -42.1897 H         1 UNK         0.0600 
    182 H182        4.5662  -13.5736  -40.7548 H         1 UNK         0.0600 
    183 H183        6.0190  -12.9949  -41.5581 H         1 UNK         0.0600 
    184 H184        4.4648  -13.3109  -44.5181 H         1 UNK         0.3000 
    185 H185        5.5193  -10.6275  -46.5388 H         1 UNK         0.0600 
    186 H186        7.7737  -11.4648  -45.8562 H         1 UNK         0.0600 
    187 H187        7.1860  -13.1229  -45.8950 H         1 UNK         0.0600 
    188 H188        7.2734  -12.1770  -47.3819 H         1 UNK         0.0600 
    189 H189        5.0065  -13.4408  -46.9738 H         1 UNK         0.3000 
    190 H190       -1.1325  -20.4168  -46.6529 H         1 UNK         0.3000 
    191 H191       -2.3967  -21.3408  -49.0242 H         1 UNK         0.0600 
    192 H192       -3.1233  -19.3342  -47.7432 H         1 UNK         0.0600 
    193 H193       -4.4560  -20.4648  -47.9328 H         1 UNK         0.0600 
    194 H194       -3.6124  -20.3524  -46.3898 H         1 UNK         0.0600 
    195 H195       -2.0603  -22.8734  -45.8489 H         1 UNK         0.3000 
    196 H196       -3.9792  -24.9837  -46.3474 H         1 UNK         0.0600 
    197 H197       -2.9544  -26.0251  -44.3465 H         1 UNK         0.0600 
    198 H198       -3.3087  -24.3302  -44.0459 H         1 UNK         0.0600 
    199 H199       -1.6529  -24.8441  -44.3590 H         1 UNK         0.0600 
    200 H200       -0.4286  -24.6453  -46.7451 H         1 UNK         0.3000 
    201 H201        0.0592  -27.3028  -47.6750 H         1 UNK         0.0600 
    202 H202        1.8406  -25.8863  -46.7153 H         1 UNK         0.0600 
    203 H203        1.6823  -24.7258  -48.0296 H         1 UNK         0.0600 
    204 H204        2.2700  -26.3522  -48.3546 H         1 UNK         0.0600 
    205 H205       -0.2695  -24.1829  -49.4460 H         1 UNK         0.3000 
    206 H206       -0.5994  -25.5444  -52.0588 H         1 UNK         0.0600 
    207 H207        0.8199  -23.4935  -51.9053 H         1 UNK         0.0600 
    208 H208       -0.5870  -23.2284  -52.9254 H         1 UNK         0.0600 
    209 H209       -0.5539  -22.5792  -51.2894 H         1 UNK         0.0600 
    210 H210       -2.4411  -26.6554  -50.9560 H         1 UNK         0.3000 
    211 H211       -4.6027  -25.5429  -49.7688 H         1 UNK         0.0600 
    212 H212       -4.4846  -28.1454  -51.3768 H         1 UNK         0.0600 
    213 H213       -5.6857  -27.7668  -50.1471 H         1 UNK         0.0600 
    214 H214       -3.9990  -27.9355  -49.6936 H         1 UNK         0.0600 
    215 H215       -4.1546  -25.2734  -53.1456 H         1 UNK         0.3000 
    216 H216       -6.9305  -25.1297  -53.9871 H         1 UNK         0.0600 
    217 H217       -5.9318  -24.4578  -56.1481 H         1 UNK         0.0600 
    218 H218       -5.0938  -25.8615  -55.5129 H         1 UNK         0.0600 
    219 H219       -4.3521  -24.2647  -55.3966 H         1 UNK         0.0600 
    220 H220       -6.7623  -23.5117  -51.7861 H         1 UNK         0.3000 
    221 H221       -6.1475  -20.7839  -52.2152 H         1 UNK         0.0600 
    222 H222       -8.0824  -22.0782  -50.2239 H         1 UNK         0.0600 
    223 H223       -6.3589  -21.7948  -49.9720 H         1 UNK         0.0600 
    224 H224       -7.4603  -20.4340  -50.1168 H         1 UNK         0.0600 
    225 H225       -9.0208  -22.5998  -53.0683 H         1 UNK         0.3000 
    226 H226      -10.7985  -20.4201  -53.6221 H         1 UNK         0.0600 
    227 H227      -11.5766  -22.7602  -53.3112 H         1 UNK         0.0600 
    228 H228      -12.0539  -22.1683  -54.8940 H         1 UNK         0.0600 
    229 H229      -10.6913  -23.2720  -54.7491 H         1 UNK         0.0600 
    230 H230       -8.0191  -21.6682  -55.3234 H         1 UNK         0.3000 
    231 H231       -8.6085  -20.0593  -57.7690 H         1 UNK         0.0600 
    232 H232       -8.2159  -22.5221  -58.1444 H         1 UNK         0.0600 
    233 H233       -6.6390  -22.3744  -57.3694 H         1 UNK         0.0600 
    234 H234       -6.9683  -21.5266  -58.8753 H         1 UNK         0.0600 
    235 H235       -7.6912  -19.1749  -55.0303 H         1 UNK         0.3000 
    236 H236       -6.3293  -17.7650  -54.0388 H         1 UNK         0.0600 
    237 H237       -5.3107  -15.9528  -55.3610 H         1 UNK         0.0600 
    238 H238       -5.4507  -16.8913  -56.8412 H         1 UNK         0.0600 
    239 H239       -6.8985  -16.3240  -56.0097 H         1 UNK         0.0600 
    240 H240       -5.3342  -20.4649  -54.5450 H         1 UNK         0.3000 
    241 H241       -3.6214  -21.7299  -54.0672 H         1 UNK         0.0600 
    242 H242       -2.4925  -20.8701  -57.6789 H         1 UNK         0.3800 
    243 H243       -3.9430  -20.2920  -56.8988 H         1 UNK         0.3800 
    244 H244       -1.5245  -20.9648  -53.0328 H         1 UNK         0.0800 
    245 H245       -1.8966  -19.3073  -53.3980 H         1 UNK         0.0800 
    246 H246       -3.3244  -18.3143  -50.0635 H         1 UNK         0.0800 
    247 H247       -3.1587  -17.7883  -51.7220 H         1 UNK         0.0800 
@<TRIPOS>BOND
     1    1    2 1    
     2    1  127 1    
     3    1  128 1    
     4    1  129 1    
     5    2    3 2    
     6    2    4 am   BACKBONE|DICT|INTERRES
     7    4    5 1    
     8    4  130 1    
     9    5    6 1    
    10    5   65 1    
    11    5  131 1    
    12    6    7 1    
    13    6  132 1    
    14    6  133 1    
    15    7    8 1    
    16    8    9 1    
    17    8  134 1    
    18    8  135 1    
    19    9   10 ar   
    20    9   14 ar   
    21   10   11 ar   
    22   10  136 1    
    23   11   12 ar   
    24   11  126 1    
    25   12   13 ar   
    26   12  137 1    
    27   13   14 ar   
    28   13   15 1    
    29   14  138 1    
    30   15   16 1    
    31   15  139 1    
    32   15  140 1    
    33   16   17 1    
    34   17   18 1    
    35   17  141 1    
    36   17  142 1    
    37   18   19 1    
    38   18   67 1    
    39   18  143 1    
    40   19   20 am   BACKBONE|DICT|INTERRES
    41   19  144 1    
    42   20   21 2    
    43   20   22 1    
    44   22   23 1    
    45   22   24 1    
    46   22  145 1    
    47   23  146 1    
    48   23  147 1    
    49   23  148 1    
    50   24   25 am   BACKBONE|DICT|INTERRES
    51   24  149 1    
    52   25   26 2    
    53   25   27 1    
    54   27   28 1    
    55   27   29 1    
    56   27  150 1    
    57   28  151 1    
    58   28  152 1    
    59   28  153 1    
    60   29   30 am   BACKBONE|DICT|INTERRES
    61   29  154 1    
    62   30   31 2    
    63   30   32 1    
    64   32   33 1    
    65   32   34 1    
    66   32  155 1    
    67   33  156 1    
    68   33  157 1    
    69   33  158 1    
    70   34   35 am   BACKBONE|DICT|INTERRES
    71   34  159 1    
    72   35   36 2    
    73   35   37 1    
    74   37   38 1    
    75   37   39 1    
    76   37  160 1    
    77   38  161 1    
    78   38  162 1    
    79   38  163 1    
    80   39   40 am   BACKBONE|DICT|INTERRES
    81   39  164 1    
    82   40   41 2    
    83   40   42 1    
    84   42   43 1    
    85   42   44 1    
    86   42  165 1    
    87   43  166 1    
    88   43  167 1    
    89   43  168 1    
    90   44   45 am   BACKBONE|DICT|INTERRES
    91   44  169 1    
    92   45   46 2    
    93   45   47 1    
    94   47   48 1    
    95   47   49 1    
    96   47  170 1    
    97   48  171 1    
    98   48  172 1    
    99   48  173 1    
   100   49   50 am   BACKBONE|DICT|INTERRES
   101   49  174 1    
   102   50   51 2    
   103   50   52 1    
   104   52   53 1    
   105   52   54 1    
   106   52  175 1    
   107   53  176 1    
   108   53  177 1    
   109   53  178 1    
   110   54   55 am   BACKBONE|DICT|INTERRES
   111   54  179 1    
   112   55   56 2    
   113   55   57 1    
   114   57   58 1    
   115   57   59 1    
   116   57  180 1    
   117   58  181 1    
   118   58  182 1    
   119   58  183 1    
   120   59   60 am   BACKBONE|DICT|INTERRES
   121   59  184 1    
   122   60   61 2    
   123   60   62 1    
   124   62   63 1    
   125   62   64 1    
   126   62  185 1    
   127   63  186 1    
   128   63  187 1    
   129   63  188 1    
   130   64   65 am   BACKBONE|DICT|INTERRES
   131   64  189 1    
   132   65   66 2    
   133   67   68 2    
   134   67   69 am   BACKBONE|DICT|INTERRES
   135   69   70 1    
   136   69  190 1    
   137   70   71 1    
   138   70   72 1    
   139   70  191 1    
   140   71  192 1    
   141   71  193 1    
   142   71  194 1    
   143   72   73 2    
   144   72   74 am   BACKBONE|DICT|INTERRES
   145   74   75 1    
   146   74  195 1    
   147   75   76 1    
   148   75   77 1    
   149   75  196 1    
   150   76  197 1    
   151   76  198 1    
   152   76  199 1    
   153   77   78 2    
   154   77   79 am   BACKBONE|DICT|INTERRES
   155   79   80 1    
   156   79  200 1    
   157   80   81 1    
   158   80   82 1    
   159   80  201 1    
   160   81  202 1    
   161   81  203 1    
   162   81  204 1    
   163   82   83 2    
   164   82   84 am   BACKBONE|DICT|INTERRES
   165   84   85 1    
   166   84  205 1    
   167   85   86 1    
   168   85   87 1    
   169   85  206 1    
   170   86  207 1    
   171   86  208 1    
   172   86  209 1    
   173   87   88 2    
   174   87   89 am   BACKBONE|DICT|INTERRES
   175   89   90 1    
   176   89  210 1    
   177   90   91 1    
   178   90   92 1    
   179   90  211 1    
   180   91  212 1    
   181   91  213 1    
   182   91  214 1    
   183   92   93 2    
   184   92   94 am   BACKBONE|DICT|INTERRES
   185   94   95 1    
   186   94  215 1    
   187   95   96 1    
   188   95   97 1    
   189   95  216 1    
   190   96  217 1    
   191   96  218 1    
   192   96  219 1    
   193   97   98 2    
   194   97   99 am   BACKBONE|DICT|INTERRES
   195   99  100 1    
   196   99  220 1    
   197  100  101 1    
   198  100  102 1    
   199  100  221 1    
   200  101  222 1    
   201  101  223 1    
   202  101  224 1    
   203  102  103 2    
   204  102  104 am   BACKBONE|DICT|INTERRES
   205  104  105 1    
   206  104  225 1    
   207  105  106 1    
   208  105  107 1    
   209  105  226 1    
   210  106  227 1    
   211  106  228 1    
   212  106  229 1    
   213  107  108 2    
   214  107  109 am   BACKBONE|DICT|INTERRES
   215  109  110 1    
   216  109  230 1    
   217  110  111 1    
   218  110  112 1    
   219  110  231 1    
   220  111  232 1    
   221  111  233 1    
   222  111  234 1    
   223  112  113 2    
   224  112  114 am   BACKBONE|DICT|INTERRES
   225  114  115 1    
   226  114  235 1    
   227  115  116 1    
   228  115  117 1    
   229  115  236 1    
   230  116  237 1    
   231  116  238 1    
   232  116  239 1    
   233  117  118 2    
   234  117  119 am   BACKBONE|DICT|INTERRES
   235  119  120 1    
   236  119  240 1    
   237  120  121 1    
   238  120  124 1    
   239  120  241 1    
   240  121  122 am   BACKBONE|DICT|INTERRES
   241  121  123 2    
   242  122  242 1    
   243  122  243 1    
   244  124  125 1    
   245  124  244 1    
   246  124  245 1    
   247  125  126 1    
   248  126  246 1    
   249  126  247 1    
@<TRIPOS>SUBSTRUCTURE
     1 UNK         1 GROUP             0       ****    0 ROOT    
