@<TRIPOS>MOLECULE
3R540
247   249    1
SMALL
USER_CHARGES


@<TRIPOS>ATOM
      1 CA          3.3560  -11.5634  -45.2057 C.3       0 UNK        -0.1800 
      2 C           2.8803  -12.9284  -44.7169 C.2       0 UNK         0.5000 
      3 O           2.3411  -13.0242  -43.6168 O.2       0 UNK        -0.5000 
      4 N           3.0357  -14.0127  -45.4912 N.am      1 UNK        -0.5000 
      5 CA          3.6626  -14.0867  -46.8205 C.3       1 UNK         0.1400 
      6 C6          3.2600  -15.3814  -47.5700 C.3       23 UNK        -0.0398 
      7 S7          1.4543  -15.5919  -47.7359 S.3       23 UNK        -0.2404 
      8 C8          1.2299  -15.4049  -49.5365 C.3       23 UNK        -0.0205 
      9 C9         -0.1881  -15.6970  -50.0256 C.ar      23 UNK        -0.0193 
     10 C10        -0.3695  -16.2263  -51.3076 C.ar      23 UNK        -0.1150 
     11 C11        -1.6506  -16.4643  -51.8165 C.ar      23 UNK        -0.0193 
     12 C12        -2.7629  -16.1737  -51.0200 C.ar      23 UNK        -0.1150 
     13 C13        -2.6003  -15.6579  -49.7320 C.ar      23 UNK        -0.0193 
     14 C14        -1.3146  -15.4085  -49.2461 C.ar      23 UNK        -0.1150 
     15 C15        -3.8165  -15.3648  -48.8688 C.3       23 UNK        -0.0205 
     16 S16        -4.5225  -16.8888  -48.1683 S.3       23 UNK        -0.2404 
     17 C17        -3.2106  -17.4239  -47.0143 C.3       23 UNK        -0.0398 
     18 CA         -2.3190  -18.5690  -47.5582 C.3       11 UNK         0.1400 
     19 N          -1.1231  -18.7832  -46.7317 N.am      11 UNK        -0.5000 
     20 C          -0.0730  -19.5207  -47.1263 C.2       10 UNK         0.5000 
     21 O           0.0036  -20.0412  -48.2380 O.2       10 UNK        -0.5000 
     22 CA          1.0593  -19.7850  -46.1162 C.3       10 UNK         0.1400 
     23 CB          2.1889  -18.7554  -46.2413 C.3       10 UNK        -0.1800 
     24 N           0.6268  -19.8725  -44.7223 N.am      10 UNK        -0.5000 
     25 C          -0.1194  -20.8711  -44.2303 C.2       9 UNK         0.5000 
     26 O          -0.6384  -21.7372  -44.9340 O.2       9 UNK        -0.5000 
     27 CA         -0.3122  -20.9148  -42.7062 C.3       9 UNK         0.1400 
     28 CB          0.9620  -21.4288  -42.0182 C.3       9 UNK        -0.1800 
     29 N          -0.6353  -19.5887  -42.1878 N.am      9 UNK        -0.5000 
     30 C          -1.8501  -19.2059  -41.7714 C.2       8 UNK         0.5000 
     31 O          -2.8122  -19.9675  -41.6662 O.2       8 UNK        -0.5000 
     32 CA         -2.0367  -17.7084  -41.4443 C.3       8 UNK         0.1400 
     33 CB         -1.8382  -17.4583  -39.9421 C.3       8 UNK        -0.1800 
     34 N          -1.1471  -16.8223  -42.2015 N.am      8 UNK        -0.5000 
     35 C          -1.1089  -16.7472  -43.5410 C.2       7 UNK         0.5000 
     36 O          -1.8552  -17.3892  -44.2767 O.2       7 UNK        -0.5000 
     37 CA         -0.0181  -15.8739  -44.1863 C.3       7 UNK         0.1400 
     38 CB         -0.5922  -14.5000  -44.5615 C.3       7 UNK        -0.1800 
     39 N           1.1858  -15.7011  -43.3688 N.am      7 UNK        -0.5000 
     40 C           1.9346  -16.6814  -42.8395 C.2       6 UNK         0.5000 
     41 O           1.7346  -17.8795  -43.0454 O.2       6 UNK        -0.5000 
     42 CA          3.0559  -16.2580  -41.8708 C.3       6 UNK         0.1400 
     43 CB          4.4040  -16.1990  -42.6030 C.3       6 UNK        -0.1800 
     44 N           2.8173  -14.9781  -41.1931 N.am      6 UNK        -0.5000 
     45 C           1.7577  -14.6928  -40.4174 C.2       5 UNK         0.5000 
     46 O           0.8381  -15.4863  -40.2090 O.2       5 UNK        -0.5000 
     47 CA          1.7307  -13.2978  -39.7686 C.3       5 UNK         0.1400 
     48 CB          0.8023  -13.2178  -38.5423 C.3       5 UNK        -0.1800 
     49 N           3.0856  -12.9140  -39.3865 N.am      5 UNK        -0.5000 
     50 C           3.6249  -11.7027  -39.5474 C.2       4 UNK         0.5000 
     51 O           2.9973  -10.7145  -39.9328 O.2       4 UNK        -0.5000 
     52 CA          5.1366  -11.5702  -39.2654 C.3       4 UNK         0.1400 
     53 CB          5.7576  -12.7820  -38.5324 C.3       4 UNK        -0.1800 
     54 N           5.8824  -11.2854  -40.4953 N.am      4 UNK        -0.5000 
     55 C           5.8936  -12.0128  -41.6231 C.2       3 UNK         0.5000 
     56 O           5.2560  -13.0605  -41.7706 O.2       3 UNK        -0.5000 
     57 CA          6.7299  -11.4351  -42.7874 C.3       3 UNK         0.1400 
     58 CB          8.1309  -10.9592  -42.3423 C.3       3 UNK        -0.1800 
     59 N           6.8253  -12.3491  -43.9309 N.am      3 UNK        -0.5000 
     60 C           7.4337  -13.5435  -43.9843 C.2       2 UNK         0.5000 
     61 O           8.1116  -14.0221  -43.0734 O.2       2 UNK        -0.5000 
     62 CA          7.1992  -14.3379  -45.2811 C.3       2 UNK         0.1400 
     63 CB          7.6949  -15.7936  -45.1980 C.3       2 UNK        -0.1800 
     64 N           5.7691  -14.3384  -45.5834 N.am      2 UNK        -0.5000 
     65 C           5.2039  -14.0012  -46.7485 C.2       1 UNK         0.5000 
     66 O           5.8379  -13.6301  -47.7359 O.2       1 UNK        -0.5000 
     67 C          -3.1092  -19.8836  -47.7194 C.2       11 UNK         0.5000 
     68 O          -3.5268  -20.2136  -48.8289 O.2       11 UNK        -0.5000 
     69 N          -3.2492  -20.6397  -46.6198 N.am      12 UNK        -0.5000 
     70 CA         -3.8935  -21.9526  -46.6034 C.3       12 UNK         0.1400 
     71 CB         -4.0875  -22.4209  -45.1536 C.3       12 UNK        -0.1800 
     72 C          -3.1157  -22.9936  -47.4269 C.2       12 UNK         0.5000 
     73 O          -3.7354  -23.7732  -48.1494 O.2       12 UNK        -0.5000 
     74 N          -1.7786  -22.9566  -47.3426 N.am      13 UNK        -0.5000 
     75 CA         -0.8731  -23.7894  -48.1340 C.3       13 UNK         0.1400 
     76 CB          0.5573  -23.6533  -47.5917 C.3       13 UNK        -0.1800 
     77 C          -0.9206  -23.4651  -49.6396 C.2       13 UNK         0.5000 
     78 O          -0.9313  -24.3899  -50.4518 O.2       13 UNK        -0.5000 
     79 N          -0.9649  -22.1696  -49.9854 N.am      14 UNK        -0.5000 
     80 CA         -1.0782  -21.6839  -51.3629 C.3       14 UNK         0.1400 
     81 CB         -0.7768  -20.1788  -51.4075 C.3       14 UNK        -0.1800 
     82 C          -2.4520  -21.9849  -51.9890 C.2       14 UNK         0.5000 
     83 O          -2.5230  -22.3093  -53.1757 O.2       14 UNK        -0.5000 
     84 N          -3.5183  -21.8930  -51.1830 N.am      15 UNK        -0.5000 
     85 CA         -4.8704  -22.2782  -51.5746 C.3       15 UNK         0.1400 
     86 CB         -5.8860  -21.7204  -50.5676 C.3       15 UNK        -0.1800 
     87 C          -5.0251  -23.8021  -51.7098 C.2       15 UNK         0.5000 
     88 O          -5.6787  -24.2585  -52.6493 O.2       15 UNK        -0.5000 
     89 N          -4.4380  -24.5513  -50.7657 N.am      16 UNK        -0.5000 
     90 CA         -4.4813  -26.0099  -50.6222 C.3       16 UNK         0.1400 
     91 CB         -3.6997  -26.6943  -51.7611 C.3       16 UNK        -0.1800 
     92 C          -5.9285  -26.5225  -50.4920 C.2       16 UNK         0.5000 
     93 O          -6.3447  -27.4033  -51.2435 O.2       16 UNK        -0.5000 
     94 N          -6.6975  -25.8920  -49.5901 N.am      17 UNK        -0.5000 
     95 CA         -8.1429  -26.0852  -49.3888 C.3       17 UNK         0.1400 
     96 CB         -8.4348  -27.4856  -48.8100 C.3       17 UNK        -0.1800 
     97 C          -8.9701  -25.7721  -50.6588 C.2       17 UNK         0.5000 
     98 O          -9.9839  -26.4207  -50.9204 O.2       17 UNK        -0.5000 
     99 N          -8.4870  -24.7857  -51.4285 N.am      18 UNK        -0.5000 
    100 CA        -8.9732  -24.3112  -52.7279 C.3       18 UNK         0.1400 
    101 CB       -10.4322  -23.8174  -52.6410 C.3       18 UNK        -0.1800 
    102 C         -8.7456  -25.2972  -53.8950 C.2       18 UNK         0.5000 
    103 O         -9.2887  -25.0715  -54.9775 O.2       18 UNK        -0.5000 
    104 N         -7.9350  -26.3481  -53.6927 N.am      19 UNK        -0.5000 
    105 CA        -7.5542  -27.2910  -54.7471 C.3       19 UNK         0.1400 
    106 CB        -7.0720  -28.6094  -54.1240 C.3       19 UNK        -0.1800 
    107 C         -6.4766  -26.7136  -55.6828 C.2       19 UNK         0.5000 
    108 O         -6.4987  -27.0085  -56.8785 O.2       19 UNK        -0.5000 
    109 N         -5.5633  -25.9030  -55.1303 N.am      20 UNK        -0.5000 
    110 CA        -4.5242  -25.1978  -55.8816 C.3       20 UNK         0.1400 
    111 CB        -3.2141  -25.1947  -55.0794 C.3       20 UNK        -0.1800 
    112 C         -4.9640  -23.7627  -56.2055 C.2       20 UNK         0.5000 
    113 O         -4.6915  -23.2818  -57.3060 O.2       20 UNK        -0.5000 
    114 N         -5.6390  -23.1118  -55.2443 N.am      21 UNK        -0.5000 
    115 CA        -6.2376  -21.7737  -55.3228 C.3       21 UNK         0.1400 
    116 CB        -7.4998  -21.8199  -56.2078 C.3       21 UNK        -0.1800 
    117 C         -5.2438  -20.6699  -55.7523 C.2       21 UNK         0.5000 
    118 O         -5.6209  -19.7655  -56.4995 O.2       21 UNK        -0.5000 
    119 N         -3.9866  -20.7843  -55.2978 N.am      22 UNK        -0.5000 
    120 CA        -2.8400  -19.9420  -55.6861 C.3       22 UNK         0.1400 
    121 C         -2.3738  -20.1169  -57.1671 C.2       22 UNK         0.5000 
    122 N         -2.8332  -21.1180  -57.9091 N.am      22 UNK        -0.7600 
    123 O         -1.5451  -19.3504  -57.6511 O.2       22 UNK        -0.5000 
    124 C124       -3.0114  -18.4464  -55.2907 C.3       23 UNK        -0.0398 
    125 S125       -3.1335  -18.1958  -53.4853 S.3       23 UNK        -0.2404 
    126 C126       -1.8063  -16.9644  -53.2498 C.3       23 UNK        -0.0205 
    127 H127        2.8112  -11.2664  -46.1016 H         1 UNK         0.0600 
    128 H128        4.4213  -11.5661  -45.4272 H         1 UNK         0.0600 
    129 H129        3.1793  -10.8058  -44.4419 H         1 UNK         0.0600 
    130 H130        2.6484  -14.8857  -45.1666 H         1 UNK         0.3000 
    131 H131        3.3153  -13.2386  -47.4135 H         1 UNK         0.0600 
    132 H132        3.7141  -15.4012  -48.5625 H         1 UNK         0.0800 
    133 H133        3.6477  -16.2585  -47.0488 H         1 UNK         0.0800 
    134 H134        1.9319  -16.0727  -50.0402 H         1 UNK         0.0800 
    135 H135        1.4980  -14.3871  -49.8257 H         1 UNK         0.0800 
    136 H136        0.4945  -16.4323  -51.9241 H         1 UNK         0.1150 
    137 H137       -3.7600  -16.3454  -51.4004 H         1 UNK         0.1150 
    138 H138       -1.1961  -14.9879  -48.2581 H         1 UNK         0.1150 
    139 H139       -3.5676  -14.6715  -48.0638 H         1 UNK         0.0800 
    140 H140       -4.5773  -14.8689  -49.4733 H         1 UNK         0.0800 
    141 H141       -3.6905  -17.7217  -46.0809 H         1 UNK         0.0800 
    142 H142       -2.5922  -16.5605  -46.7667 H         1 UNK         0.0800 
    143 H143       -1.9729  -18.2756  -48.5519 H         1 UNK         0.0600 
    144 H144       -1.1541  -18.4061  -45.7901 H         1 UNK         0.3000 
    145 H145        1.4873  -20.7541  -46.3788 H         1 UNK         0.0600 
    146 H146        3.0672  -19.0671  -45.6758 H         1 UNK         0.0600 
    147 H147        2.4970  -18.6324  -47.2805 H         1 UNK         0.0600 
    148 H148        1.8869  -17.7807  -45.8662 H         1 UNK         0.0600 
    149 H149        1.0330  -19.1930  -44.0835 H         1 UNK         0.3000 
    150 H150       -1.1176  -21.6211  -42.4944 H         1 UNK         0.0600 
    151 H151        1.2398  -22.4138  -42.3957 H         1 UNK         0.0600 
    152 H152        0.8150  -21.5225  -40.9421 H         1 UNK         0.0600 
    153 H153        1.8093  -20.7616  -42.1822 H         1 UNK         0.0600 
    154 H154        0.0909  -18.8861  -42.2653 H         1 UNK         0.3000 
    155 H155       -3.0635  -17.4426  -41.7035 H         1 UNK         0.0600 
    156 H156       -0.8221  -17.6991  -39.6269 H         1 UNK         0.0600 
    157 H157       -2.5202  -18.0696  -39.3497 H         1 UNK         0.0600 
    158 H158       -2.0293  -16.4160  -39.6862 H         1 UNK         0.0600 
    159 H159       -0.4787  -16.2855  -41.6590 H         1 UNK         0.3000 
    160 H160        0.2773  -16.3745  -45.1075 H         1 UNK         0.0600 
    161 H161       -0.8093  -13.9001  -43.6771 H         1 UNK         0.0600 
    162 H162       -1.5190  -14.6019  -45.1280 H         1 UNK         0.0600 
    163 H163        0.1003  -13.9393  -45.1880 H         1 UNK         0.0600 
    164 H164        1.4443  -14.7427  -43.1510 H         1 UNK         0.3000 
    165 H165        3.1192  -17.0292  -41.1008 H         1 UNK         0.0600 
    166 H166        5.2250  -16.0382  -41.9038 H         1 UNK         0.0600 
    167 H167        4.6076  -17.1287  -43.1363 H         1 UNK         0.0600 
    168 H168        4.4254  -15.3876  -43.3281 H         1 UNK         0.0600 
    169 H169        3.5081  -14.2517  -41.3561 H         1 UNK         0.3000 
    170 H170        1.3539  -12.6167  -40.5347 H         1 UNK         0.0600 
    171 H171       -0.2263  -13.4614  -38.8111 H         1 UNK         0.0600 
    172 H172        1.1128  -13.9108  -37.7596 H         1 UNK         0.0600 
    173 H173        0.7961  -12.2136  -38.1183 H         1 UNK         0.0600 
    174 H174        3.6876  -13.6705  -39.0916 H         1 UNK         0.3000 
    175 H175        5.2515  -10.6993  -38.6184 H         1 UNK         0.0600 
    176 H176        5.7256  -13.6927  -39.1317 H         1 UNK         0.0600 
    177 H177        6.8025  -12.5906  -38.2880 H         1 UNK         0.0600 
    178 H178        5.2422  -12.9805  -37.5917 H         1 UNK         0.0600 
    179 H179        6.4034  -10.4202  -40.4872 H         1 UNK         0.3000 
    180 H180        6.1831  -10.5640  -43.1511 H         1 UNK         0.0600 
    181 H181        8.6815  -11.7443  -41.8232 H         1 UNK         0.0600 
    182 H182        8.0662  -10.1058  -41.6671 H         1 UNK         0.0600 
    183 H183        8.7287  -10.6417  -43.1968 H         1 UNK         0.0600 
    184 H184        6.2890  -12.0759  -44.7403 H         1 UNK         0.3000 
    185 H185        7.7589  -13.8283  -46.0680 H         1 UNK         0.0600 
    186 H186        8.7667  -15.8325  -44.9997 H         1 UNK         0.0600 
    187 H187        7.1907  -16.3449  -44.4034 H         1 UNK         0.0600 
    188 H188        7.5196  -16.3221  -46.1351 H         1 UNK         0.0600 
    189 H189        5.1624  -14.5794  -44.8128 H         1 UNK         0.3000 
    190 H190       -2.8326  -20.3266  -45.7554 H         1 UNK         0.3000 
    191 H191       -4.8810  -21.8443  -47.0570 H         1 UNK         0.0600 
    192 H192       -3.1375  -22.5462  -44.6343 H         1 UNK         0.0600 
    193 H193       -4.6056  -23.3801  -45.1219 H         1 UNK         0.0600 
    194 H194       -4.6872  -21.7092  -44.5859 H         1 UNK         0.0600 
    195 H195       -1.3530  -22.3288  -46.6672 H         1 UNK         0.3000 
    196 H196       -1.1841  -24.8286  -48.0078 H         1 UNK         0.0600 
    197 H197        1.2375  -24.3251  -48.1165 H         1 UNK         0.0600 
    198 H198        0.6047  -23.9034  -46.5316 H         1 UNK         0.0600 
    199 H199        0.9389  -22.6403  -47.7153 H         1 UNK         0.0600 
    200 H200       -0.8853  -21.4608  -49.2622 H         1 UNK         0.3000 
    201 H201       -0.3232  -22.1958  -51.9630 H         1 UNK         0.0600 
    202 H202        0.2127  -19.9600  -51.0063 H         1 UNK         0.0600 
    203 H203       -1.5050  -19.6025  -50.8348 H         1 UNK         0.0600 
    204 H204       -0.7970  -19.8104  -52.4332 H         1 UNK         0.0600 
    205 H205       -3.3974  -21.5231  -50.2441 H         1 UNK         0.3000 
    206 H206       -5.0791  -21.8290  -52.5454 H         1 UNK         0.0600 
    207 H207       -5.8253  -20.6331  -50.5127 H         1 UNK         0.0600 
    208 H208       -6.9067  -21.9739  -50.8563 H         1 UNK         0.0600 
    209 H209       -5.7176  -22.1129  -49.5640 H         1 UNK         0.0600 
    210 H210       -3.9786  -24.0719  -49.9958 H         1 UNK         0.3000 
    211 H211       -3.9770  -26.2451  -49.6839 H         1 UNK         0.0600 
    212 H212       -4.2021  -26.5838  -52.7208 H         1 UNK         0.0600 
    213 H213       -3.5954  -27.7631  -51.5721 H         1 UNK         0.0600 
    214 H214       -2.6961  -26.2794  -51.8564 H         1 UNK         0.0600 
    215 H215       -6.2651  -25.1745  -49.0238 H         1 UNK         0.3000 
    216 H216       -8.4492  -25.3515  -48.6419 H         1 UNK         0.0600 
    217 H217       -9.4835  -27.5801  -48.5258 H         1 UNK         0.0600 
    218 H218       -7.8398  -27.6745  -47.9165 H         1 UNK         0.0600 
    219 H219       -8.2200  -28.2761  -49.5296 H         1 UNK         0.0600 
    220 H220       -7.6173  -24.3691  -51.1314 H         1 UNK         0.3000 
    221 H221       -8.3583  -23.4419  -52.9651 H         1 UNK         0.0600 
    222 H222      -11.1332  -24.6407  -52.5034 H         1 UNK         0.0600 
    223 H223      -10.5647  -23.1196  -51.8142 H         1 UNK         0.0600 
    224 H224      -10.7224  -23.2947  -53.5532 H         1 UNK         0.0600 
    225 H225       -7.5144  -26.4893  -52.7813 H         1 UNK         0.3000 
    226 H226       -8.4383  -27.5138  -55.3486 H         1 UNK         0.0600 
    227 H227       -7.7990  -29.0030  -53.4133 H         1 UNK         0.0600 
    228 H228       -6.9227  -29.3681  -54.8930 H         1 UNK         0.0600 
    229 H229       -6.1223  -28.4870  -53.6026 H         1 UNK         0.0600 
    230 H230       -5.6485  -25.6715  -54.1471 H         1 UNK         0.3000 
    231 H231       -4.3307  -25.7082  -56.8275 H         1 UNK         0.0600 
    232 H232       -2.8584  -26.2099  -54.9038 H         1 UNK         0.0600 
    233 H233       -3.3312  -24.7097  -54.1108 H         1 UNK         0.0600 
    234 H234       -2.4281  -24.6626  -55.6167 H         1 UNK         0.0600 
    235 H235       -5.7565  -23.5903  -54.3555 H         1 UNK         0.3000 
    236 H236       -6.5611  -21.5162  -54.3142 H         1 UNK         0.0600 
    237 H237       -7.2539  -22.0332  -57.2486 H         1 UNK         0.0600 
    238 H238       -8.1938  -22.5870  -55.8645 H         1 UNK         0.0600 
    239 H239       -8.0333  -20.8690  -56.1838 H         1 UNK         0.0600 
    240 H240       -3.7502  -21.5551  -54.6829 H         1 UNK         0.3000 
    241 H241       -2.0010  -20.3269  -55.1056 H         1 UNK         0.0600 
    242 H242       -3.5181  -21.7783  -57.5528 H         1 UNK         0.3800 
    243 H243       -2.5054  -21.2142  -58.8568 H         1 UNK         0.3800 
    244 H244       -3.8914  -18.0113  -55.7640 H         1 UNK         0.0800 
    245 H245       -2.1684  -17.8607  -55.6595 H         1 UNK         0.0800 
    246 H246       -2.0045  -16.1028  -53.8888 H         1 UNK         0.0800 
    247 H247       -0.8689  -17.4023  -53.5967 H         1 UNK         0.0800 
@<TRIPOS>BOND
     1    1    2 1    
     2    1  127 1    
     3    1  128 1    
     4    1  129 1    
     5    2    3 2    
     6    2    4 am   BACKBONE|DICT|INTERRES
     7    4    5 1    
     8    4  130 1    
     9    5    6 1    
    10    5   65 1    
    11    5  131 1    
    12    6    7 1    
    13    6  132 1    
    14    6  133 1    
    15    7    8 1    
    16    8    9 1    
    17    8  134 1    
    18    8  135 1    
    19    9   10 ar   
    20    9   14 ar   
    21   10   11 ar   
    22   10  136 1    
    23   11   12 ar   
    24   11  126 1    
    25   12   13 ar   
    26   12  137 1    
    27   13   14 ar   
    28   13   15 1    
    29   14  138 1    
    30   15   16 1    
    31   15  139 1    
    32   15  140 1    
    33   16   17 1    
    34   17   18 1    
    35   17  141 1    
    36   17  142 1    
    37   18   19 1    
    38   18   67 1    
    39   18  143 1    
    40   19   20 am   BACKBONE|DICT|INTERRES
    41   19  144 1    
    42   20   21 2    
    43   20   22 1    
    44   22   23 1    
    45   22   24 1    
    46   22  145 1    
    47   23  146 1    
    48   23  147 1    
    49   23  148 1    
    50   24   25 am   BACKBONE|DICT|INTERRES
    51   24  149 1    
    52   25   26 2    
    53   25   27 1    
    54   27   28 1    
    55   27   29 1    
    56   27  150 1    
    57   28  151 1    
    58   28  152 1    
    59   28  153 1    
    60   29   30 am   BACKBONE|DICT|INTERRES
    61   29  154 1    
    62   30   31 2    
    63   30   32 1    
    64   32   33 1    
    65   32   34 1    
    66   32  155 1    
    67   33  156 1    
    68   33  157 1    
    69   33  158 1    
    70   34   35 am   BACKBONE|DICT|INTERRES
    71   34  159 1    
    72   35   36 2    
    73   35   37 1    
    74   37   38 1    
    75   37   39 1    
    76   37  160 1    
    77   38  161 1    
    78   38  162 1    
    79   38  163 1    
    80   39   40 am   BACKBONE|DICT|INTERRES
    81   39  164 1    
    82   40   41 2    
    83   40   42 1    
    84   42   43 1    
    85   42   44 1    
    86   42  165 1    
    87   43  166 1    
    88   43  167 1    
    89   43  168 1    
    90   44   45 am   BACKBONE|DICT|INTERRES
    91   44  169 1    
    92   45   46 2    
    93   45   47 1    
    94   47   48 1    
    95   47   49 1    
    96   47  170 1    
    97   48  171 1    
    98   48  172 1    
    99   48  173 1    
   100   49   50 am   BACKBONE|DICT|INTERRES
   101   49  174 1    
   102   50   51 2    
   103   50   52 1    
   104   52   53 1    
   105   52   54 1    
   106   52  175 1    
   107   53  176 1    
   108   53  177 1    
   109   53  178 1    
   110   54   55 am   BACKBONE|DICT|INTERRES
   111   54  179 1    
   112   55   56 2    
   113   55   57 1    
   114   57   58 1    
   115   57   59 1    
   116   57  180 1    
   117   58  181 1    
   118   58  182 1    
   119   58  183 1    
   120   59   60 am   BACKBONE|DICT|INTERRES
   121   59  184 1    
   122   60   61 2    
   123   60   62 1    
   124   62   63 1    
   125   62   64 1    
   126   62  185 1    
   127   63  186 1    
   128   63  187 1    
   129   63  188 1    
   130   64   65 am   BACKBONE|DICT|INTERRES
   131   64  189 1    
   132   65   66 2    
   133   67   68 2    
   134   67   69 am   BACKBONE|DICT|INTERRES
   135   69   70 1    
   136   69  190 1    
   137   70   71 1    
   138   70   72 1    
   139   70  191 1    
   140   71  192 1    
   141   71  193 1    
   142   71  194 1    
   143   72   73 2    
   144   72   74 am   BACKBONE|DICT|INTERRES
   145   74   75 1    
   146   74  195 1    
   147   75   76 1    
   148   75   77 1    
   149   75  196 1    
   150   76  197 1    
   151   76  198 1    
   152   76  199 1    
   153   77   78 2    
   154   77   79 am   BACKBONE|DICT|INTERRES
   155   79   80 1    
   156   79  200 1    
   157   80   81 1    
   158   80   82 1    
   159   80  201 1    
   160   81  202 1    
   161   81  203 1    
   162   81  204 1    
   163   82   83 2    
   164   82   84 am   BACKBONE|DICT|INTERRES
   165   84   85 1    
   166   84  205 1    
   167   85   86 1    
   168   85   87 1    
   169   85  206 1    
   170   86  207 1    
   171   86  208 1    
   172   86  209 1    
   173   87   88 2    
   174   87   89 am   BACKBONE|DICT|INTERRES
   175   89   90 1    
   176   89  210 1    
   177   90   91 1    
   178   90   92 1    
   179   90  211 1    
   180   91  212 1    
   181   91  213 1    
   182   91  214 1    
   183   92   93 2    
   184   92   94 am   BACKBONE|DICT|INTERRES
   185   94   95 1    
   186   94  215 1    
   187   95   96 1    
   188   95   97 1    
   189   95  216 1    
   190   96  217 1    
   191   96  218 1    
   192   96  219 1    
   193   97   98 2    
   194   97   99 am   BACKBONE|DICT|INTERRES
   195   99  100 1    
   196   99  220 1    
   197  100  101 1    
   198  100  102 1    
   199  100  221 1    
   200  101  222 1    
   201  101  223 1    
   202  101  224 1    
   203  102  103 2    
   204  102  104 am   BACKBONE|DICT|INTERRES
   205  104  105 1    
   206  104  225 1    
   207  105  106 1    
   208  105  107 1    
   209  105  226 1    
   210  106  227 1    
   211  106  228 1    
   212  106  229 1    
   213  107  108 2    
   214  107  109 am   BACKBONE|DICT|INTERRES
   215  109  110 1    
   216  109  230 1    
   217  110  111 1    
   218  110  112 1    
   219  110  231 1    
   220  111  232 1    
   221  111  233 1    
   222  111  234 1    
   223  112  113 2    
   224  112  114 am   BACKBONE|DICT|INTERRES
   225  114  115 1    
   226  114  235 1    
   227  115  116 1    
   228  115  117 1    
   229  115  236 1    
   230  116  237 1    
   231  116  238 1    
   232  116  239 1    
   233  117  118 2    
   234  117  119 am   BACKBONE|DICT|INTERRES
   235  119  120 1    
   236  119  240 1    
   237  120  121 1    
   238  120  124 1    
   239  120  241 1    
   240  121  122 am   BACKBONE|DICT|INTERRES
   241  121  123 2    
   242  122  242 1    
   243  122  243 1    
   244  124  125 1    
   245  124  244 1    
   246  124  245 1    
   247  125  126 1    
   248  126  246 1    
   249  126  247 1    
@<TRIPOS>SUBSTRUCTURE
     1 UNK         1 GROUP             0       ****    0 ROOT    
