@<TRIPOS>MOLECULE
3R540
247   249    1
SMALL
USER_CHARGES


@<TRIPOS>ATOM
      1 CA         -2.6508  -11.2475  -51.1787 C.3       0 UNK        -0.1800 
      2 C          -1.5316  -11.9371  -50.4140 C.2       0 UNK         0.5000 
      3 O          -0.8217  -11.2886  -49.6462 O.2       0 UNK        -0.5000 
      4 N          -1.3803  -13.2543  -50.5958 N.am      1 UNK        -0.5000 
      5 CA         -0.3662  -14.0764  -49.9296 C.3       1 UNK         0.1400 
      6 C6         -0.2557  -15.4745  -50.5833 C.3       23 UNK        -0.0398 
      7 S7          1.3802  -16.2567  -50.3713 S.3       23 UNK        -0.2404 
      8 C8          1.1594  -17.2655  -48.8702 C.3       23 UNK        -0.0205 
      9 C9          0.3539  -18.5333  -49.1155 C.ar      23 UNK        -0.0193 
     10 C10        -1.0338  -18.5386  -48.9454 C.ar      23 UNK        -0.1150 
     11 C11        -1.7678  -19.7153  -49.1141 C.ar      23 UNK        -0.0193 
     12 C12        -1.1029  -20.8995  -49.4385 C.ar      23 UNK        -0.1150 
     13 C13         0.2856  -20.9127  -49.5924 C.ar      23 UNK        -0.0193 
     14 C14         1.0061  -19.7225  -49.4527 C.ar      23 UNK        -0.1150 
     15 C15         1.0079  -22.2293  -49.8359 C.3       23 UNK        -0.0205 
     16 S16         2.1515  -22.6742  -48.4792 S.3       23 UNK        -0.2404 
     17 C17         1.2100  -22.2941  -46.9549 C.3       23 UNK        -0.0398 
     18 CA          0.5176  -23.5176  -46.3183 C.3       11 UNK         0.1400 
     19 N           0.2456  -23.2905  -44.8957 N.am      11 UNK        -0.5000 
     20 C          -0.2583  -24.1900  -44.0388 C.2       10 UNK         0.5000 
     21 O          -0.6124  -25.3239  -44.3630 O.2       10 UNK        -0.5000 
     22 CA         -0.4231  -23.7265  -42.5840 C.3       10 UNK         0.1400 
     23 CB          0.9333  -23.6931  -41.8629 C.3       10 UNK        -0.1800 
     24 N          -1.0382  -22.4021  -42.5327 N.am      10 UNK        -0.5000 
     25 C          -2.3603  -22.1861  -42.5595 C.2       9 UNK         0.5000 
     26 O          -3.2015  -23.0851  -42.5408 O.2       9 UNK        -0.5000 
     27 CA         -2.8252  -20.7185  -42.6391 C.3       9 UNK         0.1400 
     28 CB         -2.9939  -20.1288  -41.2310 C.3       9 UNK        -0.1800 
     29 N          -1.9256  -19.8590  -43.4102 N.am      9 UNK        -0.5000 
     30 C          -1.6671  -20.0022  -44.7183 C.2       8 UNK         0.5000 
     31 O          -2.1519  -20.8858  -45.4206 O.2       8 UNK        -0.5000 
     32 CA         -0.6614  -19.0189  -45.3397 C.3       8 UNK         0.1400 
     33 CB         -1.3854  -17.7246  -45.7263 C.3       8 UNK        -0.1800 
     34 N           0.4583  -18.6736  -44.4657 N.am      8 UNK        -0.5000 
     35 C           1.2442  -19.5201  -43.7844 C.2       7 UNK         0.5000 
     36 O           1.1697  -20.7468  -43.8741 O.2       7 UNK        -0.5000 
     37 CA          2.2541  -18.8937  -42.8012 C.3       7 UNK         0.1400 
     38 CB          3.6782  -18.9972  -43.3670 C.3       7 UNK        -0.1800 
     39 N           1.9784  -17.4913  -42.4668 N.am      7 UNK        -0.5000 
     40 C           0.8759  -17.0188  -41.8631 C.2       6 UNK         0.5000 
     41 O          -0.0467  -17.7355  -41.4723 O.2       6 UNK        -0.5000 
     42 CA          0.7688  -15.4874  -41.7070 C.3       6 UNK         0.1400 
     43 CB          1.0692  -15.0737  -40.2584 C.3       6 UNK        -0.1800 
     44 N           1.6598  -14.7477  -42.6086 N.am      6 UNK        -0.5000 
     45 C           1.4883  -14.6346  -43.9329 C.2       5 UNK         0.5000 
     46 O           0.5402  -15.1274  -44.5453 O.2       5 UNK        -0.5000 
     47 CA          2.6083  -13.9198  -44.6994 C.3       5 UNK         0.1400 
     48 CB          3.4658  -14.9376  -45.4709 C.3       5 UNK        -0.1800 
     49 N           2.0542  -12.9485  -45.6381 N.am      5 UNK        -0.5000 
     50 C           2.5888  -11.7450  -45.8835 C.2       4 UNK         0.5000 
     51 O           3.5836  -11.3087  -45.3017 O.2       4 UNK        -0.5000 
     52 CA          1.9200  -10.8745  -46.9638 C.3       4 UNK         0.1400 
     53 CB          2.4175  -11.2723  -48.3622 C.3       4 UNK        -0.1800 
     54 N           0.4598  -10.9255  -46.9362 N.am      4 UNK        -0.5000 
     55 C          -0.3087  -10.3802  -45.9826 C.2       3 UNK         0.5000 
     56 O           0.1354   -9.7698  -45.0096 O.2       3 UNK        -0.5000 
     57 CA         -1.8308  -10.5488  -46.1415 C.3       3 UNK         0.1400 
     58 CB         -2.4144   -9.4646  -47.0610 C.3       3 UNK        -0.1800 
     59 N          -2.1639  -11.8708  -46.6693 N.am      3 UNK        -0.5000 
     60 C          -2.2201  -12.9791  -45.9181 C.2       2 UNK         0.5000 
     61 O          -2.1388  -12.9719  -44.6895 O.2       2 UNK        -0.5000 
     62 CA         -2.3842  -14.3223  -46.6550 C.3       2 UNK         0.1400 
     63 CB         -3.8450  -14.7901  -46.6230 C.3       2 UNK        -0.1800 
     64 N          -1.9218  -14.2977  -48.0447 N.am      2 UNK        -0.5000 
     65 C          -0.6394  -14.1706  -48.4154 C.2       1 UNK         0.5000 
     66 O           0.2930  -14.0694  -47.6205 O.2       1 UNK        -0.5000 
     67 C          -0.7345  -23.9488  -47.1106 C.2       11 UNK         0.5000 
     68 O          -0.6236  -24.8165  -47.9769 O.2       11 UNK        -0.5000 
     69 N          -1.9072  -23.3985  -46.7596 N.am      12 UNK        -0.5000 
     70 CA         -3.2182  -23.7599  -47.3063 C.3       12 UNK         0.1400 
     71 CB         -4.3057  -22.9102  -46.6303 C.3       12 UNK        -0.1800 
     72 C          -3.5691  -25.2550  -47.1695 C.2       12 UNK         0.5000 
     73 O          -4.2469  -25.7949  -48.0436 O.2       12 UNK        -0.5000 
     74 N          -3.0984  -25.8909  -46.0892 N.am      13 UNK        -0.5000 
     75 CA         -3.2672  -27.3188  -45.8351 C.3       13 UNK         0.1400 
     76 CB         -3.4798  -27.5389  -44.3289 C.3       13 UNK        -0.1800 
     77 C          -2.0560  -28.1248  -46.3324 C.2       13 UNK         0.5000 
     78 O          -2.2387  -29.1985  -46.9072 O.2       13 UNK        -0.5000 
     79 N          -0.8441  -27.6094  -46.0830 N.am      14 UNK        -0.5000 
     80 CA          0.4185  -28.3010  -46.3432 C.3       14 UNK         0.1400 
     81 CB          1.5468  -27.5973  -45.5739 C.3       14 UNK        -0.1800 
     82 C           0.7812  -28.4229  -47.8343 C.2       14 UNK         0.5000 
     83 O           1.3935  -29.4218  -48.2157 O.2       14 UNK        -0.5000 
     84 N           0.4241  -27.4158  -48.6412 N.am      15 UNK        -0.5000 
     85 CA          0.7711  -27.3396  -50.0625 C.3       15 UNK         0.1400 
     86 CB          1.9699  -26.3933  -50.2401 C.3       15 UNK        -0.1800 
     87 C          -0.4035  -26.8811  -50.9386 C.2       15 UNK         0.5000 
     88 O          -0.5013  -27.3245  -52.0840 O.2       15 UNK        -0.5000 
     89 N          -1.2524  -25.9891  -50.4087 N.am      16 UNK        -0.5000 
     90 CA         -2.3839  -25.3027  -51.0448 C.3       16 UNK         0.1400 
     91 CB         -3.4404  -26.2887  -51.5788 C.3       16 UNK        -0.1800 
     92 C          -1.9562  -24.2792  -52.1133 C.2       16 UNK         0.5000 
     93 O          -2.3370  -23.1125  -52.0139 O.2       16 UNK        -0.5000 
     94 N          -1.1493  -24.7279  -53.0844 N.am      17 UNK        -0.5000 
     95 CA         -0.5792  -23.9689  -54.1997 C.3       17 UNK         0.1400 
     96 CB          0.4801  -22.9738  -53.6694 C.3       17 UNK        -0.1800 
     97 C          -1.6636  -23.3194  -55.0916 C.2       17 UNK         0.5000 
     98 O          -2.7329  -23.9043  -55.2816 O.2       17 UNK        -0.5000 
     99 N          -1.3652  -22.1334  -55.6302 N.am      18 UNK        -0.5000 
    100 CA        -2.2761  -21.2834  -56.3979 C.3       18 UNK         0.1400 
    101 CB        -1.9922  -21.4514  -57.9021 C.3       18 UNK        -0.1800 
    102 C         -2.1413  -19.8264  -55.9144 C.2       18 UNK         0.5000 
    103 O         -2.2047  -18.8920  -56.7154 O.2       18 UNK        -0.5000 
    104 N         -1.9071  -19.6679  -54.6057 N.am      19 UNK        -0.5000 
    105 CA        -1.7019  -18.3945  -53.9227 C.3       19 UNK         0.1400 
    106 CB        -1.0977  -18.6930  -52.5446 C.3       19 UNK        -0.1800 
    107 C         -2.9965  -17.5648  -53.8041 C.2       19 UNK         0.5000 
    108 O         -4.0983  -18.1200  -53.8165 O.2       19 UNK        -0.5000 
    109 N         -2.8308  -16.2417  -53.6973 N.am      20 UNK        -0.5000 
    110 CA        -3.9184  -15.2728  -53.5790 C.3       20 UNK         0.1400 
    111 CB        -3.4571  -13.9472  -54.2056 C.3       20 UNK        -0.1800 
    112 C         -4.3224  -15.0446  -52.1125 C.2       20 UNK         0.5000 
    113 O         -3.4728  -15.1255  -51.2225 O.2       20 UNK        -0.5000 
    114 N         -5.5972  -14.6827  -51.9109 N.am      21 UNK        -0.5000 
    115 CA        -6.2307  -14.2842  -50.6445 C.3       21 UNK         0.1400 
    116 CB        -5.5442  -13.0399  -50.0409 C.3       21 UNK        -0.1800 
    117 C         -6.4024  -15.4215  -49.6145 C.2       21 UNK         0.5000 
    118 O         -6.6461  -15.1425  -48.4402 O.2       21 UNK        -0.5000 
    119 N         -6.3111  -16.6789  -50.0638 N.am      22 UNK        -0.5000 
    120 CA        -6.4654  -17.8817  -49.2250 C.3       22 UNK         0.1400 
    121 C         -7.9230  -18.1779  -48.7604 C.2       22 UNK         0.5000 
    122 N         -8.9454  -17.5333  -49.3098 N.am      22 UNK        -0.7600 
    123 O         -8.1295  -19.0084  -47.8799 O.2       22 UNK        -0.5000 
    124 C124       -5.8510  -19.1355  -49.8958 C.3       23 UNK        -0.0398 
    125 S125       -4.0981  -18.9111  -50.3392 S.3       23 UNK        -0.2404 
    126 C126       -3.2756  -19.7102  -48.9316 C.3       23 UNK        -0.0205 
    127 H127       -3.3443  -10.7755  -50.4828 H         1 UNK         0.0600 
    128 H128       -3.2100  -11.9485  -51.7979 H         1 UNK         0.0600 
    129 H129       -2.2389  -10.4746  -51.8273 H         1 UNK         0.0600 
    130 H130       -2.0603  -13.7698  -51.1453 H         1 UNK         0.3000 
    131 H131        0.5891  -13.5634  -50.0603 H         1 UNK         0.0600 
    132 H132       -0.3928  -15.3766  -51.6607 H         1 UNK         0.0800 
    133 H133       -1.0580  -16.1336  -50.2560 H         1 UNK         0.0800 
    134 H134        0.6998  -16.6719  -48.0822 H         1 UNK         0.0800 
    135 H135        2.1470  -17.5332  -48.4917 H         1 UNK         0.0800 
    136 H136       -1.5499  -17.6298  -48.6729 H         1 UNK         0.1150 
    137 H137       -1.6649  -21.8157  -49.5520 H         1 UNK         0.1150 
    138 H138        2.0814  -19.7337  -49.5617 H         1 UNK         0.1150 
    139 H139        0.2934  -23.0422  -49.9749 H         1 UNK         0.0800 
    140 H140        1.5727  -22.1594  -50.7661 H         1 UNK         0.0800 
    141 H141        0.4997  -21.4833  -47.1024 H         1 UNK         0.0800 
    142 H142        1.9462  -21.8954  -46.2556 H         1 UNK         0.0800 
    143 H143        1.2198  -24.3513  -46.3587 H         1 UNK         0.0600 
    144 H144        0.5142  -22.3802  -44.5308 H         1 UNK         0.3000 
    145 H145       -1.0599  -24.4487  -42.0684 H         1 UNK         0.0600 
    146 H146        0.8143  -23.4113  -40.8167 H         1 UNK         0.0600 
    147 H147        1.6236  -22.9850  -42.3228 H         1 UNK         0.0600 
    148 H148        1.4086  -24.6747  -41.8831 H         1 UNK         0.0600 
    149 H149       -0.4148  -21.6091  -42.6108 H         1 UNK         0.3000 
    150 H150       -3.7987  -20.7095  -43.1339 H         1 UNK         0.0600 
    151 H151       -3.6726  -20.7360  -40.6305 H         1 UNK         0.0600 
    152 H152       -3.4096  -19.1219  -41.2724 H         1 UNK         0.0600 
    153 H153       -2.0419  -20.0761  -40.7009 H         1 UNK         0.0600 
    154 H154       -1.4578  -19.1193  -42.9023 H         1 UNK         0.3000 
    155 H155       -0.2535  -19.4757  -46.2416 H         1 UNK         0.0600 
    156 H156       -2.2564  -17.9240  -46.3507 H         1 UNK         0.0600 
    157 H157       -0.7228  -17.0656  -46.2850 H         1 UNK         0.0600 
    158 H158       -1.7328  -17.1807  -44.8468 H         1 UNK         0.0600 
    159 H159        0.6072  -17.6845  -44.3207 H         1 UNK         0.3000 
    160 H160        2.2053  -19.4726  -41.8769 H         1 UNK         0.0600 
    161 H161        3.7890  -18.4189  -44.2852 H         1 UNK         0.0600 
    162 H162        3.9332  -20.0324  -43.5985 H         1 UNK         0.0600 
    163 H163        4.4158  -18.6361  -42.6501 H         1 UNK         0.0600 
    164 H164        2.6809  -16.8223  -42.7432 H         1 UNK         0.3000 
    165 H165       -0.2615  -15.2072  -41.9371 H         1 UNK         0.0600 
    166 H166        0.9276  -14.0020  -40.1167 H         1 UNK         0.0600 
    167 H167        0.4028  -15.5825  -39.5604 H         1 UNK         0.0600 
    168 H168        2.0928  -15.3191  -39.9729 H         1 UNK         0.0600 
    169 H169        2.4682  -14.3185  -42.1811 H         1 UNK         0.3000 
    170 H170        3.2451  -13.4135  -43.9709 H         1 UNK         0.0600 
    171 H171        2.8791  -15.4633  -46.2262 H         1 UNK         0.0600 
    172 H172        4.2980  -14.4480  -45.9768 H         1 UNK         0.0600 
    173 H173        3.8881  -15.6866  -44.8002 H         1 UNK         0.0600 
    174 H174        1.2502  -13.2655  -46.1771 H         1 UNK         0.3000 
    175 H175        2.2197   -9.8396  -46.7857 H         1 UNK         0.0600 
    176 H176        2.1563  -12.3024  -48.6050 H         1 UNK         0.0600 
    177 H177        1.9913  -10.6283  -49.1316 H         1 UNK         0.0600 
    178 H178        3.5026  -11.1858  -48.4290 H         1 UNK         0.0600 
    179 H179        0.0114  -11.3649  -47.7314 H         1 UNK         0.3000 
    180 H180       -2.2875  -10.4299  -45.1565 H         1 UNK         0.0600 
    181 H181       -3.4957   -9.5670  -47.1540 H         1 UNK         0.0600 
    182 H182       -1.9867   -9.5042  -48.0627 H         1 UNK         0.0600 
    183 H183       -2.2154   -8.4696  -46.6611 H         1 UNK         0.0600 
    184 H184       -2.2212  -11.9605  -47.6728 H         1 UNK         0.3000 
    185 H185       -1.7792  -15.0461  -46.1115 H         1 UNK         0.0600 
    186 H186       -4.5009  -14.0826  -47.1311 H         1 UNK         0.0600 
    187 H187       -3.9620  -15.7625  -47.1022 H         1 UNK         0.0600 
    188 H188       -4.2013  -14.8887  -45.5970 H         1 UNK         0.0600 
    189 H189       -2.6270  -14.3745  -48.7646 H         1 UNK         0.3000 
    190 H190       -1.9085  -22.6440  -46.0773 H         1 UNK         0.3000 
    191 H191       -3.2089  -23.5118  -48.3677 H         1 UNK         0.0600 
    192 H192       -4.3105  -23.0531  -45.5487 H         1 UNK         0.0600 
    193 H193       -5.2973  -23.1709  -47.0023 H         1 UNK         0.0600 
    194 H194       -4.1608  -21.8486  -46.8240 H         1 UNK         0.0600 
    195 H195       -2.5119  -25.3817  -45.4399 H         1 UNK         0.3000 
    196 H196       -4.1539  -27.6897  -46.3539 H         1 UNK         0.0600 
    197 H197       -4.3686  -27.0148  -43.9774 H         1 UNK         0.0600 
    198 H198       -2.6305  -27.1855  -43.7428 H         1 UNK         0.0600 
    199 H199       -3.6163  -28.5976  -44.1046 H         1 UNK         0.0600 
    200 H200       -0.7810  -26.7371  -45.5646 H         1 UNK         0.3000 
    201 H201        0.3290  -29.3147  -45.9466 H         1 UNK         0.0600 
    202 H202        1.3329  -27.5583  -44.5056 H         1 UNK         0.0600 
    203 H203        1.6951  -26.5762  -45.9234 H         1 UNK         0.0600 
    204 H204        2.4927  -28.1261  -45.6972 H         1 UNK         0.0600 
    205 H205       -0.0673  -26.6201  -48.2458 H         1 UNK         0.3000 
    206 H206        1.0591  -28.3257  -50.4326 H         1 UNK         0.0600 
    207 H207        1.7442  -25.3905  -49.8764 H         1 UNK         0.0600 
    208 H208        2.8428  -26.7570  -49.6979 H         1 UNK         0.0600 
    209 H209        2.2511  -26.3072  -51.2905 H         1 UNK         0.0600 
    210 H210       -1.0314  -25.6326  -49.4810 H         1 UNK         0.3000 
    211 H211       -2.8599  -24.7325  -50.2490 H         1 UNK         0.0600 
    212 H212       -3.0672  -26.8881  -52.4091 H         1 UNK         0.0600 
    213 H213       -4.3199  -25.7528  -51.9373 H         1 UNK         0.0600 
    214 H214       -3.7722  -26.9690  -50.7942 H         1 UNK         0.0600 
    215 H215       -0.9070  -25.7141  -53.0489 H         1 UNK         0.3000 
    216 H216       -0.0656  -24.6965  -54.8293 H         1 UNK         0.0600 
    217 H217        1.0564  -22.5302  -54.4818 H         1 UNK         0.0600 
    218 H218        1.1941  -23.4782  -53.0180 H         1 UNK         0.0600 
    219 H219        0.0285  -22.1629  -53.0959 H         1 UNK         0.0600 
    220 H220       -0.4628  -21.7265  -55.4254 H         1 UNK         0.3000 
    221 H221       -3.3111  -21.5743  -56.2068 H         1 UNK         0.0600 
    222 H222       -0.9802  -21.1347  -58.1567 H         1 UNK         0.0600 
    223 H223       -2.1053  -22.4911  -58.2094 H         1 UNK         0.0600 
    224 H224       -2.6852  -20.8601  -58.5016 H         1 UNK         0.0600 
    225 H225       -1.9293  -20.4875  -54.0165 H         1 UNK         0.3000 
    226 H226       -0.9783  -17.8119  -54.4969 H         1 UNK         0.0600 
    227 H227       -0.0946  -19.1108  -52.6318 H         1 UNK         0.0600 
    228 H228       -1.0214  -17.7925  -51.9393 H         1 UNK         0.0600 
    229 H229       -1.7053  -19.4075  -51.9904 H         1 UNK         0.0600 
    230 H230       -1.8953  -15.8664  -53.6588 H         1 UNK         0.3000 
    231 H231       -4.7878  -15.6326  -54.1337 H         1 UNK         0.0600 
    232 H232       -4.2389  -13.1889  -54.1442 H         1 UNK         0.0600 
    233 H233       -3.2143  -14.0752  -55.2607 H         1 UNK         0.0600 
    234 H234       -2.5733  -13.5486  -53.7057 H         1 UNK         0.0600 
    235 H235       -6.2070  -14.6418  -52.7162 H         1 UNK         0.3000 
    236 H236       -7.2461  -13.9868  -50.9100 H         1 UNK         0.0600 
    237 H237       -4.5364  -13.2586  -49.6891 H         1 UNK         0.0600 
    238 H238       -5.4828  -12.2341  -50.7717 H         1 UNK         0.0600 
    239 H239       -6.1061  -12.6548  -49.1892 H         1 UNK         0.0600 
    240 H240       -6.0898  -16.8344  -51.0358 H         1 UNK         0.3000 
    241 H241       -5.8999  -17.7026  -48.3082 H         1 UNK         0.0600 
    242 H242       -9.8830  -17.7316  -48.9972 H         1 UNK         0.3800 
    243 H243       -8.7925  -16.8488  -50.0325 H         1 UNK         0.3800 
    244 H244       -6.3974  -19.3796  -50.8083 H         1 UNK         0.0800 
    245 H245       -5.9434  -20.0086  -49.2473 H         1 UNK         0.0800 
    246 H246       -3.6462  -20.7311  -48.8359 H         1 UNK         0.0800 
    247 H247       -3.5365  -19.1925  -48.0080 H         1 UNK         0.0800 
@<TRIPOS>BOND
     1    1    2 1    
     2    1  127 1    
     3    1  128 1    
     4    1  129 1    
     5    2    3 2    
     6    2    4 am   BACKBONE|DICT|INTERRES
     7    4    5 1    
     8    4  130 1    
     9    5    6 1    
    10    5   65 1    
    11    5  131 1    
    12    6    7 1    
    13    6  132 1    
    14    6  133 1    
    15    7    8 1    
    16    8    9 1    
    17    8  134 1    
    18    8  135 1    
    19    9   10 ar   
    20    9   14 ar   
    21   10   11 ar   
    22   10  136 1    
    23   11   12 ar   
    24   11  126 1    
    25   12   13 ar   
    26   12  137 1    
    27   13   14 ar   
    28   13   15 1    
    29   14  138 1    
    30   15   16 1    
    31   15  139 1    
    32   15  140 1    
    33   16   17 1    
    34   17   18 1    
    35   17  141 1    
    36   17  142 1    
    37   18   19 1    
    38   18   67 1    
    39   18  143 1    
    40   19   20 am   BACKBONE|DICT|INTERRES
    41   19  144 1    
    42   20   21 2    
    43   20   22 1    
    44   22   23 1    
    45   22   24 1    
    46   22  145 1    
    47   23  146 1    
    48   23  147 1    
    49   23  148 1    
    50   24   25 am   BACKBONE|DICT|INTERRES
    51   24  149 1    
    52   25   26 2    
    53   25   27 1    
    54   27   28 1    
    55   27   29 1    
    56   27  150 1    
    57   28  151 1    
    58   28  152 1    
    59   28  153 1    
    60   29   30 am   BACKBONE|DICT|INTERRES
    61   29  154 1    
    62   30   31 2    
    63   30   32 1    
    64   32   33 1    
    65   32   34 1    
    66   32  155 1    
    67   33  156 1    
    68   33  157 1    
    69   33  158 1    
    70   34   35 am   BACKBONE|DICT|INTERRES
    71   34  159 1    
    72   35   36 2    
    73   35   37 1    
    74   37   38 1    
    75   37   39 1    
    76   37  160 1    
    77   38  161 1    
    78   38  162 1    
    79   38  163 1    
    80   39   40 am   BACKBONE|DICT|INTERRES
    81   39  164 1    
    82   40   41 2    
    83   40   42 1    
    84   42   43 1    
    85   42   44 1    
    86   42  165 1    
    87   43  166 1    
    88   43  167 1    
    89   43  168 1    
    90   44   45 am   BACKBONE|DICT|INTERRES
    91   44  169 1    
    92   45   46 2    
    93   45   47 1    
    94   47   48 1    
    95   47   49 1    
    96   47  170 1    
    97   48  171 1    
    98   48  172 1    
    99   48  173 1    
   100   49   50 am   BACKBONE|DICT|INTERRES
   101   49  174 1    
   102   50   51 2    
   103   50   52 1    
   104   52   53 1    
   105   52   54 1    
   106   52  175 1    
   107   53  176 1    
   108   53  177 1    
   109   53  178 1    
   110   54   55 am   BACKBONE|DICT|INTERRES
   111   54  179 1    
   112   55   56 2    
   113   55   57 1    
   114   57   58 1    
   115   57   59 1    
   116   57  180 1    
   117   58  181 1    
   118   58  182 1    
   119   58  183 1    
   120   59   60 am   BACKBONE|DICT|INTERRES
   121   59  184 1    
   122   60   61 2    
   123   60   62 1    
   124   62   63 1    
   125   62   64 1    
   126   62  185 1    
   127   63  186 1    
   128   63  187 1    
   129   63  188 1    
   130   64   65 am   BACKBONE|DICT|INTERRES
   131   64  189 1    
   132   65   66 2    
   133   67   68 2    
   134   67   69 am   BACKBONE|DICT|INTERRES
   135   69   70 1    
   136   69  190 1    
   137   70   71 1    
   138   70   72 1    
   139   70  191 1    
   140   71  192 1    
   141   71  193 1    
   142   71  194 1    
   143   72   73 2    
   144   72   74 am   BACKBONE|DICT|INTERRES
   145   74   75 1    
   146   74  195 1    
   147   75   76 1    
   148   75   77 1    
   149   75  196 1    
   150   76  197 1    
   151   76  198 1    
   152   76  199 1    
   153   77   78 2    
   154   77   79 am   BACKBONE|DICT|INTERRES
   155   79   80 1    
   156   79  200 1    
   157   80   81 1    
   158   80   82 1    
   159   80  201 1    
   160   81  202 1    
   161   81  203 1    
   162   81  204 1    
   163   82   83 2    
   164   82   84 am   BACKBONE|DICT|INTERRES
   165   84   85 1    
   166   84  205 1    
   167   85   86 1    
   168   85   87 1    
   169   85  206 1    
   170   86  207 1    
   171   86  208 1    
   172   86  209 1    
   173   87   88 2    
   174   87   89 am   BACKBONE|DICT|INTERRES
   175   89   90 1    
   176   89  210 1    
   177   90   91 1    
   178   90   92 1    
   179   90  211 1    
   180   91  212 1    
   181   91  213 1    
   182   91  214 1    
   183   92   93 2    
   184   92   94 am   BACKBONE|DICT|INTERRES
   185   94   95 1    
   186   94  215 1    
   187   95   96 1    
   188   95   97 1    
   189   95  216 1    
   190   96  217 1    
   191   96  218 1    
   192   96  219 1    
   193   97   98 2    
   194   97   99 am   BACKBONE|DICT|INTERRES
   195   99  100 1    
   196   99  220 1    
   197  100  101 1    
   198  100  102 1    
   199  100  221 1    
   200  101  222 1    
   201  101  223 1    
   202  101  224 1    
   203  102  103 2    
   204  102  104 am   BACKBONE|DICT|INTERRES
   205  104  105 1    
   206  104  225 1    
   207  105  106 1    
   208  105  107 1    
   209  105  226 1    
   210  106  227 1    
   211  106  228 1    
   212  106  229 1    
   213  107  108 2    
   214  107  109 am   BACKBONE|DICT|INTERRES
   215  109  110 1    
   216  109  230 1    
   217  110  111 1    
   218  110  112 1    
   219  110  231 1    
   220  111  232 1    
   221  111  233 1    
   222  111  234 1    
   223  112  113 2    
   224  112  114 am   BACKBONE|DICT|INTERRES
   225  114  115 1    
   226  114  235 1    
   227  115  116 1    
   228  115  117 1    
   229  115  236 1    
   230  116  237 1    
   231  116  238 1    
   232  116  239 1    
   233  117  118 2    
   234  117  119 am   BACKBONE|DICT|INTERRES
   235  119  120 1    
   236  119  240 1    
   237  120  121 1    
   238  120  124 1    
   239  120  241 1    
   240  121  122 am   BACKBONE|DICT|INTERRES
   241  121  123 2    
   242  122  242 1    
   243  122  243 1    
   244  124  125 1    
   245  124  244 1    
   246  124  245 1    
   247  125  126 1    
   248  126  246 1    
   249  126  247 1    
@<TRIPOS>SUBSTRUCTURE
     1 UNK         1 GROUP             0       ****    0 ROOT    
