@<TRIPOS>MOLECULE
3R540
247   249    1
SMALL
USER_CHARGES


@<TRIPOS>ATOM
      1 CA          6.7586  -12.8441  -49.7806 C.3       0 UNK        -0.1800 
      2 C           5.7218  -12.9643  -48.6732 C.2       0 UNK         0.5000 
      3 O           6.0821  -13.1551  -47.5110 O.2       0 UNK        -0.5000 
      4 N           4.4353  -12.8373  -49.0201 N.am      1 UNK        -0.5000 
      5 CA          3.2779  -12.9549  -48.1208 C.3       1 UNK         0.1400 
      6 C6          1.9904  -13.3664  -48.8885 C.3       23 UNK        -0.0398 
      7 S7          2.2072  -14.8944  -49.8623 S.3       23 UNK        -0.2404 
      8 C8          0.5643  -15.6691  -49.7426 C.3       23 UNK        -0.0205 
      9 C9          0.5097  -16.9162  -50.6116 C.ar      23 UNK        -0.0193 
     10 C10        -0.0782  -16.8746  -51.8797 C.ar      23 UNK        -0.1150 
     11 C11        -0.0609  -18.0032  -52.7050 C.ar      23 UNK        -0.0193 
     12 C12         0.5313  -19.1828  -52.2458 C.ar      23 UNK        -0.1150 
     13 C13         1.1140  -19.2433  -50.9774 C.ar      23 UNK        -0.0193 
     14 C14         1.0977  -18.1026  -50.1654 C.ar      23 UNK        -0.1150 
     15 C15         1.8250  -20.5219  -50.5443 C.3       23 UNK        -0.0205 
     16 S16         1.6655  -20.8964  -48.7696 S.3       23 UNK        -0.2404 
     17 C17        -0.0710  -21.4424  -48.6579 C.3       23 UNK        -0.0398 
     18 CA         -0.2055  -22.5478  -47.5899 C.3       11 UNK         0.1400 
     19 N           0.0166  -22.0457  -46.2328 N.am      11 UNK        -0.5000 
     20 C           0.3005  -22.8293  -45.1853 C.2       10 UNK         0.5000 
     21 O           0.3857  -24.0551  -45.2553 O.2       10 UNK        -0.5000 
     22 CA          0.4767  -22.1341  -43.8254 C.3       10 UNK         0.1400 
     23 CB          1.8413  -21.4340  -43.7411 C.3       10 UNK        -0.1800 
     24 N          -0.5910  -21.1745  -43.5472 N.am      10 UNK        -0.5000 
     25 C          -1.8843  -21.4992  -43.4121 C.2       9 UNK         0.5000 
     26 O          -2.3103  -22.6531  -43.4757 O.2       9 UNK        -0.5000 
     27 CA         -2.8751  -20.3379  -43.2143 C.3       9 UNK         0.1400 
     28 CB         -2.8673  -19.8574  -41.7558 C.3       9 UNK        -0.1800 
     29 N          -2.6217  -19.2078  -44.1106 N.am      9 UNK        -0.5000 
     30 C          -2.6820  -19.2770  -45.4488 C.2       8 UNK         0.5000 
     31 O          -2.9641  -20.3008  -46.0677 O.2       8 UNK        -0.5000 
     32 CA         -2.3259  -18.0050  -46.2347 C.3       8 UNK         0.1400 
     33 CB         -3.4717  -16.9852  -46.1633 C.3       8 UNK        -0.1800 
     34 N          -1.0826  -17.3896  -45.7744 N.am      8 UNK        -0.5000 
     35 C           0.1152  -17.9926  -45.7805 C.2       7 UNK         0.5000 
     36 O           0.3094  -19.1278  -46.2127 O.2       7 UNK        -0.5000 
     37 CA          1.2781  -17.2235  -45.1304 C.3       7 UNK         0.1400 
     38 CB          1.7958  -16.1087  -46.0528 C.3       7 UNK        -0.1800 
     39 N           0.9063  -16.6559  -43.8352 N.am      7 UNK        -0.5000 
     40 C           0.5218  -17.3692  -42.7670 C.2       6 UNK         0.5000 
     41 O           0.4790  -18.5986  -42.7379 O.2       6 UNK        -0.5000 
     42 CA          0.0608  -16.5691  -41.5390 C.3       6 UNK         0.1400 
     43 CB          1.2632  -16.0541  -40.7336 C.3       6 UNK        -0.1800 
     44 N          -0.8007  -15.4489  -41.9151 N.am      6 UNK        -0.5000 
     45 C          -2.0478  -15.5830  -42.3873 C.2       5 UNK         0.5000 
     46 O          -2.6109  -16.6673  -42.5376 O.2       5 UNK        -0.5000 
     47 CA         -2.7753  -14.2878  -42.7900 C.3       5 UNK         0.1400 
     48 CB         -3.3922  -13.6060  -41.5597 C.3       5 UNK        -0.1800 
     49 N          -1.9034  -13.3402  -43.4862 N.am      5 UNK        -0.5000 
     50 C          -1.3732  -13.5586  -44.6969 C.2       4 UNK         0.5000 
     51 O          -1.5538  -14.5835  -45.3514 O.2       4 UNK        -0.5000 
     52 CA         -0.4490  -12.4663  -45.2567 C.3       4 UNK         0.1400 
     53 CB         -1.2719  -11.3225  -45.8678 C.3       4 UNK        -0.1800 
     54 N           0.5056  -11.9181  -44.2904 N.am      4 UNK        -0.5000 
     55 C           1.3790  -12.6282  -43.5635 C.2       3 UNK         0.5000 
     56 O           1.3899  -13.8584  -43.5094 O.2       3 UNK        -0.5000 
     57 CA          2.4789  -11.8158  -42.8617 C.3       3 UNK         0.1400 
     58 CB          3.2710  -12.6463  -41.8363 C.3       3 UNK        -0.1800 
     59 N           3.3913  -11.3392  -43.8966 N.am      3 UNK        -0.5000 
     60 C           3.2972  -10.1588  -44.5211 C.2       2 UNK         0.5000 
     61 O           2.5306   -9.2582  -44.1779 O.2       2 UNK        -0.5000 
     62 CA          4.1581   -9.9953  -45.7859 C.3       2 UNK         0.1400 
     63 CB          5.6093   -9.6452  -45.4236 C.3       2 UNK        -0.1800 
     64 N           4.1414  -11.1980  -46.6234 N.am      2 UNK        -0.5000 
     65 C           3.0765  -11.6611  -47.2939 C.2       1 UNK         0.5000 
     66 O           1.9839  -11.0929  -47.2940 O.2       1 UNK        -0.5000 
     67 C          -1.5256  -23.3304  -47.7204 C.2       11 UNK         0.5000 
     68 O          -1.5619  -24.2894  -48.4899 O.2       11 UNK        -0.5000 
     69 N          -2.5597  -22.9658  -46.9484 N.am      12 UNK        -0.5000 
     70 CA         -3.8005  -23.7327  -46.8199 C.3       12 UNK         0.1400 
     71 CB         -4.8509  -22.9225  -46.0449 C.3       12 UNK        -0.1800 
     72 C          -3.5718  -25.1031  -46.1591 C.2       12 UNK         0.5000 
     73 O          -4.0773  -26.1072  -46.6605 O.2       12 UNK        -0.5000 
     74 N          -2.7869  -25.1274  -45.0718 N.am      13 UNK        -0.5000 
     75 CA         -2.4042  -26.3447  -44.3522 C.3       13 UNK         0.1400 
     76 CB         -1.7140  -25.9666  -43.0329 C.3       13 UNK        -0.1800 
     77 C          -1.5131  -27.2815  -45.1903 C.2       13 UNK         0.5000 
     78 O          -1.7026  -28.4977  -45.1514 O.2       13 UNK        -0.5000 
     79 N          -0.5791  -26.6980  -45.9532 N.am      14 UNK        -0.5000 
     80 CA          0.3081  -27.4058  -46.8796 C.3       14 UNK         0.1400 
     81 CB          1.4958  -26.4912  -47.2186 C.3       14 UNK        -0.1800 
     82 C          -0.3877  -27.8667  -48.1771 C.2       14 UNK         0.5000 
     83 O           0.1786  -28.6900  -48.8968 O.2       14 UNK        -0.5000 
     84 N          -1.5732  -27.3087  -48.4666 N.am      15 UNK        -0.5000 
     85 CA         -2.3584  -27.4554  -49.6981 C.3       15 UNK         0.1400 
     86 CB         -2.8387  -28.9091  -49.8877 C.3       15 UNK        -0.1800 
     87 C          -1.6400  -26.8820  -50.9409 C.2       15 UNK         0.5000 
     88 O          -1.8473  -27.3594  -52.0579 O.2       15 UNK        -0.5000 
     89 N          -0.8181  -25.8489  -50.7188 N.am      16 UNK        -0.5000 
     90 CA         -0.1410  -25.0583  -51.7467 C.3       16 UNK         0.1400 
     91 CB          1.1528  -24.4841  -51.1485 C.3       16 UNK        -0.1800 
     92 C          -1.0415  -23.9273  -52.2822 C.2       16 UNK         0.5000 
     93 O          -0.7974  -23.4198  -53.3768 O.2       16 UNK        -0.5000 
     94 N          -2.0675  -23.5667  -51.5060 N.am      17 UNK        -0.5000 
     95 CA         -3.1334  -22.6319  -51.8375 C.3       17 UNK         0.1400 
     96 CB         -2.7498  -21.2278  -51.3338 C.3       17 UNK        -0.1800 
     97 C          -4.4162  -23.1346  -51.1566 C.2       17 UNK         0.5000 
     98 O          -4.3596  -24.0685  -50.3526 O.2       17 UNK        -0.5000 
     99 N          -5.5426  -22.4773  -51.4413 N.am      18 UNK        -0.5000 
    100 CA        -6.7997  -22.6257  -50.7078 C.3       18 UNK         0.1400 
    101 CB        -7.9359  -22.9006  -51.7085 C.3       18 UNK        -0.1800 
    102 C         -7.0049  -21.3307  -49.9047 C.2       18 UNK         0.5000 
    103 O         -7.9822  -20.6117  -50.1185 O.2       18 UNK        -0.5000 
    104 N         -5.9926  -20.9944  -49.0889 N.am      19 UNK        -0.5000 
    105 CA        -5.7036  -19.6970  -48.4564 C.3       19 UNK         0.1400 
    106 CB        -6.8573  -19.2100  -47.5592 C.3       19 UNK        -0.1800 
    107 C         -5.2669  -18.6266  -49.4781 C.2       19 UNK         0.5000 
    108 O         -4.2600  -17.9531  -49.2654 O.2       19 UNK        -0.5000 
    109 N         -5.9955  -18.5424  -50.5921 N.am      20 UNK        -0.5000 
    110 CA        -5.6363  -17.8471  -51.8182 C.3       20 UNK         0.1400 
    111 CB        -6.3002  -16.4557  -51.8384 C.3       20 UNK        -0.1800 
    112 C         -6.0323  -18.7673  -52.9889 C.2       20 UNK         0.5000 
    113 O         -5.8073  -19.9781  -52.9001 O.2       20 UNK        -0.5000 
    114 N         -6.6210  -18.1948  -54.0502 N.am      21 UNK        -0.5000 
    115 CA        -7.1084  -18.8732  -55.2605 C.3       21 UNK         0.1400 
    116 CB        -8.3139  -19.7781  -54.9301 C.3       21 UNK        -0.1800 
    117 C         -5.9916  -19.6136  -56.0286 C.2       21 UNK         0.5000 
    118 O         -6.2115  -20.7048  -56.5576 O.2       21 UNK        -0.5000 
    119 N         -4.8040  -18.9977  -56.0596 N.am      22 UNK        -0.5000 
    120 CA        -3.5747  -19.5458  -56.6539 C.3       22 UNK         0.1400 
    121 C         -3.5562  -19.5909  -58.2115 C.2       22 UNK         0.5000 
    122 N         -4.4833  -18.9483  -58.9114 N.am      22 UNK        -0.7600 
    123 O         -2.6832  -20.2260  -58.7968 O.2       22 UNK        -0.5000 
    124 C124       -2.3177  -18.8146  -56.1195 C.3       23 UNK        -0.0398 
    125 S125       -2.1695  -18.8558  -54.3003 S.3       23 UNK        -0.2404 
    126 C126       -0.6117  -17.9364  -54.1205 C.3       23 UNK        -0.0205 
    127 H127        6.2952  -12.6756  -50.7531 H         1 UNK         0.0600 
    128 H128        7.3509  -13.7572  -49.8399 H         1 UNK         0.0600 
    129 H129        7.4319  -12.0119  -49.5753 H         1 UNK         0.0600 
    130 H130        4.2065  -12.6672  -49.9891 H         1 UNK         0.3000 
    131 H131        3.4883  -13.7485  -47.4005 H         1 UNK         0.0600 
    132 H132        1.6766  -12.5738  -49.5701 H         1 UNK         0.0800 
    133 H133        1.1666  -13.5138  -48.1886 H         1 UNK         0.0800 
    134 H134        0.3470  -15.9296  -48.7059 H         1 UNK         0.0800 
    135 H135       -0.2000  -14.9545  -50.0524 H         1 UNK         0.0800 
    136 H136       -0.5172  -15.9538  -52.2372 H         1 UNK         0.1150 
    137 H137        0.5576  -20.0492  -52.8926 H         1 UNK         0.1150 
    138 H138        1.5715  -18.1225  -49.1941 H         1 UNK         0.1150 
    139 H139        1.4693  -21.3761  -51.1223 H         1 UNK         0.0800 
    140 H140        2.8849  -20.4144  -50.7775 H         1 UNK         0.0800 
    141 H141       -0.3819  -21.8108  -49.6364 H         1 UNK         0.0800 
    142 H142       -0.7083  -20.5870  -48.4264 H         1 UNK         0.0800 
    143 H143        0.5815  -23.2783  -47.7888 H         1 UNK         0.0600 
    144 H144       -0.0012  -21.0355  -46.1140 H         1 UNK         0.3000 
    145 H145        0.4423  -22.9045  -43.0524 H         1 UNK         0.0600 
    146 H146        2.0090  -21.0182  -42.7476 H         1 UNK         0.0600 
    147 H147        2.6532  -22.1338  -43.9430 H         1 UNK         0.0600 
    148 H148        1.9219  -20.6191  -44.4614 H         1 UNK         0.0600 
    149 H149       -0.3135  -20.2013  -43.4485 H         1 UNK         0.3000 
    150 H150       -3.8741  -20.7173  -43.4387 H         1 UNK         0.0600 
    151 H151       -3.6411  -19.1091  -41.5841 H         1 UNK         0.0600 
    152 H152       -1.9087  -19.4155  -41.4823 H         1 UNK         0.0600 
    153 H153       -3.0569  -20.6842  -41.0701 H         1 UNK         0.0600 
    154 H154       -2.4051  -18.3192  -43.6700 H         1 UNK         0.3000 
    155 H155       -2.1877  -18.2891  -47.2802 H         1 UNK         0.0600 
    156 H156       -4.4160  -17.4356  -46.4671 H         1 UNK         0.0600 
    157 H157       -3.6043  -16.5936  -45.1546 H         1 UNK         0.0600 
    158 H158       -3.2879  -16.1427  -46.8301 H         1 UNK         0.0600 
    159 H159       -1.1558  -16.4360  -45.4295 H         1 UNK         0.3000 
    160 H160        2.0923  -17.9311  -44.9612 H         1 UNK         0.0600 
    161 H161        2.6520  -15.5986  -45.6111 H         1 UNK         0.0600 
    162 H162        1.0288  -15.3597  -46.2511 H         1 UNK         0.0600 
    163 H163        2.1188  -16.5154  -47.0118 H         1 UNK         0.0600 
    164 H164        0.9432  -15.6423  -43.7531 H         1 UNK         0.3000 
    165 H165       -0.5137  -17.2404  -40.8971 H         1 UNK         0.0600 
    166 H166        0.9409  -15.5083  -39.8468 H         1 UNK         0.0600 
    167 H167        1.8872  -16.8828  -40.3969 H         1 UNK         0.0600 
    168 H168        1.8939  -15.3914  -41.3260 H         1 UNK         0.0600 
    169 H169       -0.3859  -14.5289  -41.8937 H         1 UNK         0.3000 
    170 H170       -3.5861  -14.5614  -43.4686 H         1 UNK         0.0600 
    171 H171       -2.6286  -13.2796  -40.8526 H         1 UNK         0.0600 
    172 H172       -3.9801  -12.7336  -41.8459 H         1 UNK         0.0600 
    173 H173       -4.0601  -14.2872  -41.0307 H         1 UNK         0.0600 
    174 H174       -1.6896  -12.4748  -43.0125 H         1 UNK         0.3000 
    175 H175        0.1371  -12.9223  -46.0560 H         1 UNK         0.0600 
    176 H176       -0.6293  -10.6012  -46.3731 H         1 UNK         0.0600 
    177 H177       -1.8452  -10.7878  -45.1097 H         1 UNK         0.0600 
    178 H178       -1.9773  -11.7008  -46.6089 H         1 UNK         0.0600 
    179 H179        0.6076  -10.9124  -44.2946 H         1 UNK         0.3000 
    180 H180        2.0124  -10.9795  -42.3369 H         1 UNK         0.0600 
    181 H181        3.7554  -13.5091  -42.2956 H         1 UNK         0.0600 
    182 H182        2.6157  -13.0161  -41.0471 H         1 UNK         0.0600 
    183 H183        4.0450  -12.0448  -41.3594 H         1 UNK         0.0600 
    184 H184        4.0232  -12.0272  -44.2799 H         1 UNK         0.3000 
    185 H185        3.7430   -9.1702  -46.3685 H         1 UNK         0.0600 
    186 H186        6.0921  -10.4481  -44.8652 H         1 UNK         0.0600 
    187 H187        6.2031   -9.4560  -46.3182 H         1 UNK         0.0600 
    188 H188        5.6519   -8.7449  -44.8092 H         1 UNK         0.0600 
    189 H189        5.0061  -11.7251  -46.7003 H         1 UNK         0.3000 
    190 H190       -2.4917  -22.1161  -46.3942 H         1 UNK         0.3000 
    191 H191       -4.1916  -23.9121  -47.8209 H         1 UNK         0.0600 
    192 H192       -5.0760  -21.9823  -46.5450 H         1 UNK         0.0600 
    193 H193       -5.7868  -23.4763  -45.9615 H         1 UNK         0.0600 
    194 H194       -4.5172  -22.6885  -45.0343 H         1 UNK         0.0600 
    195 H195       -2.4407  -24.2497  -44.6960 H         1 UNK         0.3000 
    196 H196       -3.3190  -26.8895  -44.1097 H         1 UNK         0.0600 
    197 H197       -1.4383  -26.8569  -42.4665 H         1 UNK         0.0600 
    198 H198       -2.3726  -25.3699  -42.4015 H         1 UNK         0.0600 
    199 H199       -0.8044  -25.3902  -43.2032 H         1 UNK         0.0600 
    200 H200       -0.4323  -25.6964  -45.8588 H         1 UNK         0.3000 
    201 H201        0.6937  -28.2958  -46.3780 H         1 UNK         0.0600 
    202 H202        2.0272  -26.1821  -46.3183 H         1 UNK         0.0600 
    203 H203        1.1711  -25.5919  -47.7422 H         1 UNK         0.0600 
    204 H204        2.2143  -27.0021  -47.8607 H         1 UNK         0.0600 
    205 H205       -1.9348  -26.6281  -47.8113 H         1 UNK         0.3000 
    206 H206       -3.2448  -26.8347  -49.5570 H         1 UNK         0.0600 
    207 H207       -3.3373  -29.2785  -48.9916 H         1 UNK         0.0600 
    208 H208       -3.5540  -28.9791  -50.7079 H         1 UNK         0.0600 
    209 H209       -2.0141  -29.5842  -50.1170 H         1 UNK         0.0600 
    210 H210       -0.7913  -25.4758  -49.7744 H         1 UNK         0.3000 
    211 H211        0.1234  -25.7039  -52.5867 H         1 UNK         0.0600 
    212 H212        0.9509  -23.8402  -50.2927 H         1 UNK         0.0600 
    213 H213        1.6966  -23.8925  -51.8861 H         1 UNK         0.0600 
    214 H214        1.8187  -25.2806  -50.8158 H         1 UNK         0.0600 
    215 H215       -2.2260  -24.0747  -50.6419 H         1 UNK         0.3000 
    216 H216       -3.2952  -22.6120  -52.9172 H         1 UNK         0.0600 
    217 H217       -3.4813  -20.4821  -51.6440 H         1 UNK         0.0600 
    218 H218       -1.7868  -20.9137  -51.7356 H         1 UNK         0.0600 
    219 H219       -2.6884  -21.1907  -50.2457 H         1 UNK         0.0600 
    220 H220       -5.5101  -21.6821  -52.0775 H         1 UNK         0.3000 
    221 H221       -6.7593  -23.4541  -49.9976 H         1 UNK         0.0600 
    222 H222       -8.0419  -22.0896  -52.4293 H         1 UNK         0.0600 
    223 H223       -7.7541  -23.8200  -52.2649 H         1 UNK         0.0600 
    224 H224       -8.8911  -23.0134  -51.1945 H         1 UNK         0.0600 
    225 H225       -5.2359  -21.6597  -49.0242 H         1 UNK         0.3000 
    226 H226       -4.8439  -19.8727  -47.8108 H         1 UNK         0.0600 
    227 H227       -7.1319  -19.9690  -46.8267 H         1 UNK         0.0600 
    228 H228       -6.5691  -18.3153  -47.0075 H         1 UNK         0.0600 
    229 H229       -7.7488  -18.9573  -48.1330 H         1 UNK         0.0600 
    230 H230       -6.7894  -19.1723  -50.6699 H         1 UNK         0.3000 
    231 H231       -4.5523  -17.7241  -51.8690 H         1 UNK         0.0600 
    232 H232       -7.3887  -16.5269  -51.8480 H         1 UNK         0.0600 
    233 H233       -5.9894  -15.8780  -52.7095 H         1 UNK         0.0600 
    234 H234       -6.0161  -15.8780  -50.9585 H         1 UNK         0.0600 
    235 H235       -6.7651  -17.1951  -54.0255 H         1 UNK         0.3000 
    236 H236       -7.4639  -18.0879  -55.9290 H         1 UNK         0.0600 
    237 H237       -8.0207  -20.6366  -54.3264 H         1 UNK         0.0600 
    238 H238       -9.0820  -19.2303  -54.3844 H         1 UNK         0.0600 
    239 H239       -8.7750  -20.1627  -55.8405 H         1 UNK         0.0600 
    240 H240       -4.7091  -18.1125  -55.5852 H         1 UNK         0.3000 
    241 H241       -3.5040  -20.5863  -56.3305 H         1 UNK         0.0600 
    242 H242       -4.4629  -18.9886  -59.9186 H         1 UNK         0.3800 
    243 H243       -5.2075  -18.4259  -58.4453 H         1 UNK         0.3800 
    244 H244       -1.4148  -19.2657  -56.5356 H         1 UNK         0.0800 
    245 H245       -2.3191  -17.7729  -56.4452 H         1 UNK         0.0800 
    246 H246       -0.7714  -16.9004  -54.4232 H         1 UNK         0.0800 
    247 H247        0.1329  -18.3449  -54.8056 H         1 UNK         0.0800 
@<TRIPOS>BOND
     1    1    2 1    
     2    1  127 1    
     3    1  128 1    
     4    1  129 1    
     5    2    3 2    
     6    2    4 am   BACKBONE|DICT|INTERRES
     7    4    5 1    
     8    4  130 1    
     9    5    6 1    
    10    5   65 1    
    11    5  131 1    
    12    6    7 1    
    13    6  132 1    
    14    6  133 1    
    15    7    8 1    
    16    8    9 1    
    17    8  134 1    
    18    8  135 1    
    19    9   10 ar   
    20    9   14 ar   
    21   10   11 ar   
    22   10  136 1    
    23   11   12 ar   
    24   11  126 1    
    25   12   13 ar   
    26   12  137 1    
    27   13   14 ar   
    28   13   15 1    
    29   14  138 1    
    30   15   16 1    
    31   15  139 1    
    32   15  140 1    
    33   16   17 1    
    34   17   18 1    
    35   17  141 1    
    36   17  142 1    
    37   18   19 1    
    38   18   67 1    
    39   18  143 1    
    40   19   20 am   BACKBONE|DICT|INTERRES
    41   19  144 1    
    42   20   21 2    
    43   20   22 1    
    44   22   23 1    
    45   22   24 1    
    46   22  145 1    
    47   23  146 1    
    48   23  147 1    
    49   23  148 1    
    50   24   25 am   BACKBONE|DICT|INTERRES
    51   24  149 1    
    52   25   26 2    
    53   25   27 1    
    54   27   28 1    
    55   27   29 1    
    56   27  150 1    
    57   28  151 1    
    58   28  152 1    
    59   28  153 1    
    60   29   30 am   BACKBONE|DICT|INTERRES
    61   29  154 1    
    62   30   31 2    
    63   30   32 1    
    64   32   33 1    
    65   32   34 1    
    66   32  155 1    
    67   33  156 1    
    68   33  157 1    
    69   33  158 1    
    70   34   35 am   BACKBONE|DICT|INTERRES
    71   34  159 1    
    72   35   36 2    
    73   35   37 1    
    74   37   38 1    
    75   37   39 1    
    76   37  160 1    
    77   38  161 1    
    78   38  162 1    
    79   38  163 1    
    80   39   40 am   BACKBONE|DICT|INTERRES
    81   39  164 1    
    82   40   41 2    
    83   40   42 1    
    84   42   43 1    
    85   42   44 1    
    86   42  165 1    
    87   43  166 1    
    88   43  167 1    
    89   43  168 1    
    90   44   45 am   BACKBONE|DICT|INTERRES
    91   44  169 1    
    92   45   46 2    
    93   45   47 1    
    94   47   48 1    
    95   47   49 1    
    96   47  170 1    
    97   48  171 1    
    98   48  172 1    
    99   48  173 1    
   100   49   50 am   BACKBONE|DICT|INTERRES
   101   49  174 1    
   102   50   51 2    
   103   50   52 1    
   104   52   53 1    
   105   52   54 1    
   106   52  175 1    
   107   53  176 1    
   108   53  177 1    
   109   53  178 1    
   110   54   55 am   BACKBONE|DICT|INTERRES
   111   54  179 1    
   112   55   56 2    
   113   55   57 1    
   114   57   58 1    
   115   57   59 1    
   116   57  180 1    
   117   58  181 1    
   118   58  182 1    
   119   58  183 1    
   120   59   60 am   BACKBONE|DICT|INTERRES
   121   59  184 1    
   122   60   61 2    
   123   60   62 1    
   124   62   63 1    
   125   62   64 1    
   126   62  185 1    
   127   63  186 1    
   128   63  187 1    
   129   63  188 1    
   130   64   65 am   BACKBONE|DICT|INTERRES
   131   64  189 1    
   132   65   66 2    
   133   67   68 2    
   134   67   69 am   BACKBONE|DICT|INTERRES
   135   69   70 1    
   136   69  190 1    
   137   70   71 1    
   138   70   72 1    
   139   70  191 1    
   140   71  192 1    
   141   71  193 1    
   142   71  194 1    
   143   72   73 2    
   144   72   74 am   BACKBONE|DICT|INTERRES
   145   74   75 1    
   146   74  195 1    
   147   75   76 1    
   148   75   77 1    
   149   75  196 1    
   150   76  197 1    
   151   76  198 1    
   152   76  199 1    
   153   77   78 2    
   154   77   79 am   BACKBONE|DICT|INTERRES
   155   79   80 1    
   156   79  200 1    
   157   80   81 1    
   158   80   82 1    
   159   80  201 1    
   160   81  202 1    
   161   81  203 1    
   162   81  204 1    
   163   82   83 2    
   164   82   84 am   BACKBONE|DICT|INTERRES
   165   84   85 1    
   166   84  205 1    
   167   85   86 1    
   168   85   87 1    
   169   85  206 1    
   170   86  207 1    
   171   86  208 1    
   172   86  209 1    
   173   87   88 2    
   174   87   89 am   BACKBONE|DICT|INTERRES
   175   89   90 1    
   176   89  210 1    
   177   90   91 1    
   178   90   92 1    
   179   90  211 1    
   180   91  212 1    
   181   91  213 1    
   182   91  214 1    
   183   92   93 2    
   184   92   94 am   BACKBONE|DICT|INTERRES
   185   94   95 1    
   186   94  215 1    
   187   95   96 1    
   188   95   97 1    
   189   95  216 1    
   190   96  217 1    
   191   96  218 1    
   192   96  219 1    
   193   97   98 2    
   194   97   99 am   BACKBONE|DICT|INTERRES
   195   99  100 1    
   196   99  220 1    
   197  100  101 1    
   198  100  102 1    
   199  100  221 1    
   200  101  222 1    
   201  101  223 1    
   202  101  224 1    
   203  102  103 2    
   204  102  104 am   BACKBONE|DICT|INTERRES
   205  104  105 1    
   206  104  225 1    
   207  105  106 1    
   208  105  107 1    
   209  105  226 1    
   210  106  227 1    
   211  106  228 1    
   212  106  229 1    
   213  107  108 2    
   214  107  109 am   BACKBONE|DICT|INTERRES
   215  109  110 1    
   216  109  230 1    
   217  110  111 1    
   218  110  112 1    
   219  110  231 1    
   220  111  232 1    
   221  111  233 1    
   222  111  234 1    
   223  112  113 2    
   224  112  114 am   BACKBONE|DICT|INTERRES
   225  114  115 1    
   226  114  235 1    
   227  115  116 1    
   228  115  117 1    
   229  115  236 1    
   230  116  237 1    
   231  116  238 1    
   232  116  239 1    
   233  117  118 2    
   234  117  119 am   BACKBONE|DICT|INTERRES
   235  119  120 1    
   236  119  240 1    
   237  120  121 1    
   238  120  124 1    
   239  120  241 1    
   240  121  122 am   BACKBONE|DICT|INTERRES
   241  121  123 2    
   242  122  242 1    
   243  122  243 1    
   244  124  125 1    
   245  124  244 1    
   246  124  245 1    
   247  125  126 1    
   248  126  246 1    
   249  126  247 1    
@<TRIPOS>SUBSTRUCTURE
     1 UNK         1 GROUP             0       ****    0 ROOT    
