@<TRIPOS>MOLECULE
3R540
247   249    1
SMALL
USER_CHARGES


@<TRIPOS>ATOM
      1 CA         10.1504  -17.1935  -47.2231 C.3       0 UNK        -0.1800 
      2 C           8.9273  -17.3696  -46.3341 C.2       0 UNK         0.5000 
      3 O           9.0545  -17.8332  -45.2003 O.2       0 UNK        -0.5000 
      4 N           7.7451  -17.0102  -46.8466 N.am      1 UNK        -0.5000 
      5 CA          6.4736  -17.0254  -46.1189 C.3       1 UNK         0.1400 
      6 C6          5.2600  -17.0552  -47.0835 C.3       23 UNK        -0.0398 
      7 S7          5.2229  -15.6913  -48.3038 S.3       23 UNK        -0.2404 
      8 C8          5.5734  -16.5550  -49.8697 C.3       23 UNK        -0.0205 
      9 C9          4.3530  -17.2793  -50.4230 C.ar      23 UNK        -0.0193 
     10 C10         3.3354  -16.5566  -51.0532 C.ar      23 UNK        -0.1150 
     11 C11         2.2253  -17.2140  -51.5915 C.ar      23 UNK        -0.0193 
     12 C12         2.1527  -18.6079  -51.5174 C.ar      23 UNK        -0.1150 
     13 C13         3.1528  -19.3483  -50.8744 C.ar      23 UNK        -0.0193 
     14 C14         4.2507  -18.6710  -50.3326 C.ar      23 UNK        -0.1150 
     15 C15         3.1141  -20.8742  -50.7664 C.3       23 UNK        -0.0205 
     16 S16         1.5203  -21.6795  -51.1627 S.3       23 UNK        -0.2404 
     17 C17         0.4757  -21.2107  -49.7430 C.3       23 UNK        -0.0398 
     18 CA          0.6840  -22.1711  -48.5427 C.3       11 UNK         0.1400 
     19 N           1.6764  -21.6292  -47.6160 N.am      11 UNK        -0.5000 
     20 C           2.5719  -22.3404  -46.9240 C.2       10 UNK         0.5000 
     21 O           2.6825  -23.5639  -46.9974 O.2       10 UNK        -0.5000 
     22 CA          3.5021  -21.5426  -45.9870 C.3       10 UNK         0.1400 
     23 CB          4.7904  -21.1469  -46.7256 C.3       10 UNK        -0.1800 
     24 N           2.8849  -20.3322  -45.4358 N.am      10 UNK        -0.5000 
     25 C           1.8563  -20.3270  -44.5777 C.2       9 UNK         0.5000 
     26 O           1.3033  -21.3467  -44.1679 O.2       9 UNK        -0.5000 
     27 CA          1.3236  -18.9489  -44.1396 C.3       9 UNK         0.1400 
     28 CB          2.2025  -18.3706  -43.0189 C.3       9 UNK        -0.1800 
     29 N           1.1778  -17.9463  -45.2037 N.am      9 UNK        -0.5000 
     30 C           0.6274  -18.1262  -46.4114 C.2       8 UNK         0.5000 
     31 O           0.3234  -19.2252  -46.8737 O.2       8 UNK        -0.5000 
     32 CA          0.3955  -16.8722  -47.2675 C.3       8 UNK         0.1400 
     33 CB          1.6397  -16.5416  -48.0907 C.3       8 UNK        -0.1800 
     34 N          -0.7363  -17.0522  -48.1739 N.am      8 UNK        -0.5000 
     35 C          -2.0155  -17.1191  -47.7934 C.2       7 UNK         0.5000 
     36 O          -2.4028  -16.9198  -46.6366 O.2       7 UNK        -0.5000 
     37 CA         -3.0325  -17.4583  -48.8927 C.3       7 UNK         0.1400 
     38 CB         -2.9390  -18.9348  -49.3160 C.3       7 UNK        -0.1800 
     39 N          -4.3622  -17.1579  -48.3813 N.am      7 UNK        -0.5000 
     40 C          -5.3449  -16.5681  -49.0696 C.2       6 UNK         0.5000 
     41 O          -5.3305  -16.4242  -50.2922 O.2       6 UNK        -0.5000 
     42 CA         -6.5261  -16.0116  -48.2451 C.3       6 UNK         0.1400 
     43 CB         -7.7062  -16.9917  -48.2477 C.3       6 UNK        -0.1800 
     44 N          -6.1595  -15.7076  -46.8558 N.am      6 UNK        -0.5000 
     45 C          -5.3642  -14.6930  -46.4872 C.2       5 UNK         0.5000 
     46 O          -4.9422  -13.8455  -47.2760 O.2       5 UNK        -0.5000 
     47 CA         -4.9118  -14.6307  -45.0168 C.3       5 UNK         0.1400 
     48 CB         -5.5221  -15.7195  -44.1107 C.3       5 UNK        -0.1800 
     49 N          -3.4626  -14.7768  -45.0297 N.am      5 UNK        -0.5000 
     50 C          -2.5750  -13.9612  -44.4571 C.2       4 UNK         0.5000 
     51 O          -2.8545  -13.0334  -43.6940 O.2       4 UNK        -0.5000 
     52 CA         -1.1206  -14.2195  -44.8594 C.3       4 UNK         0.1400 
     53 CB         -0.7863  -13.5004  -46.1804 C.3       4 UNK        -0.1800 
     54 N          -0.1929  -13.7919  -43.8182 N.am      4 UNK        -0.5000 
     55 C           0.9841  -14.3848  -43.5874 C.2       3 UNK         0.5000 
     56 O           1.3979  -15.3404  -44.2498 O.2       3 UNK        -0.5000 
     57 CA          1.8187  -13.8383  -42.4105 C.3       3 UNK         0.1400 
     58 CB          1.0888  -14.0582  -41.0742 C.3       3 UNK        -0.1800 
     59 N           3.1381  -14.4691  -42.3168 N.am      3 UNK        -0.5000 
     60 C           4.1549  -14.2997  -43.1735 C.2       2 UNK         0.5000 
     61 O           4.1208  -13.5142  -44.1222 O.2       2 UNK        -0.5000 
     62 CA          5.4301  -15.1335  -42.9228 C.3       2 UNK         0.1400 
     63 CB          5.4191  -15.9150  -41.5919 C.3       2 UNK        -0.1800 
     64 N           5.6382  -16.0844  -44.0144 N.am      2 UNK        -0.5000 
     65 C           6.3935  -15.8644  -45.0982 C.2       1 UNK         0.5000 
     66 O           7.0149  -14.8172  -45.3010 O.2       1 UNK        -0.5000 
     67 C          -0.6290  -22.4755  -47.7941 C.2       11 UNK         0.5000 
     68 O          -1.2622  -23.4954  -48.0671 O.2       11 UNK        -0.5000 
     69 N          -0.9960  -21.6321  -46.8203 N.am      12 UNK        -0.5000 
     70 CA         -2.1314  -21.8300  -45.9191 C.3       12 UNK         0.1400 
     71 CB         -2.3181  -20.5825  -45.0450 C.3       12 UNK        -0.1800 
     72 C          -1.9875  -23.0977  -45.0563 C.2       12 UNK         0.5000 
     73 O          -2.9713  -23.8117  -44.8656 O.2       12 UNK        -0.5000 
     74 N          -0.7547  -23.4028  -44.6242 N.am      13 UNK        -0.5000 
     75 CA         -0.3837  -24.6455  -43.9392 C.3       13 UNK         0.1400 
     76 CB          1.0670  -24.5345  -43.4466 C.3       13 UNK        -0.1800 
     77 C          -0.5583  -25.9111  -44.8059 C.2       13 UNK         0.5000 
     78 O          -0.7563  -26.9952  -44.2571 O.2       13 UNK        -0.5000 
     79 N          -0.5124  -25.7500  -46.1354 N.am      14 UNK        -0.5000 
     80 CA         -0.7819  -26.7922  -47.1285 C.3       14 UNK         0.1400 
     81 CB          0.1659  -26.5909  -48.3242 C.3       14 UNK        -0.1800 
     82 C          -2.2608  -26.8049  -47.5766 C.2       14 UNK         0.5000 
     83 O          -2.5957  -27.5226  -48.5194 O.2       14 UNK        -0.5000 
     84 N          -3.1126  -26.0108  -46.9074 N.am      15 UNK        -0.5000 
     85 CA         -4.5498  -25.8193  -47.1309 C.3       15 UNK         0.1400 
     86 CB         -5.3277  -27.1448  -46.9979 C.3       15 UNK        -0.1800 
     87 C          -4.8966  -25.0593  -48.4272 C.2       15 UNK         0.5000 
     88 O          -6.0690  -25.0081  -48.8012 O.2       15 UNK        -0.5000 
     89 N          -3.9075  -24.4190  -49.0684 N.am      16 UNK        -0.5000 
     90 CA         -4.0835  -23.6558  -50.3095 C.3       16 UNK         0.1400 
     91 CB         -2.7171  -23.4561  -50.9740 C.3       16 UNK        -0.1800 
     92 C          -4.8164  -22.3122  -50.1041 C.2       16 UNK         0.5000 
     93 O          -5.2171  -21.6778  -51.0811 O.2       16 UNK        -0.5000 
     94 N          -5.0345  -21.9249  -48.8391 N.am      17 UNK        -0.5000 
     95 CA         -5.9264  -20.8399  -48.4307 C.3       17 UNK         0.1400 
     96 CB         -5.7299  -20.5524  -46.9346 C.3       17 UNK        -0.1800 
     97 C          -7.4076  -21.1286  -48.7448 C.2       17 UNK         0.5000 
     98 O          -8.1601  -20.1824  -48.9660 O.2       17 UNK        -0.5000 
     99 N          -7.7984  -22.4116  -48.8199 N.am      18 UNK        -0.5000 
    100 CA        -9.1411  -22.8303  -49.2375 C.3       18 UNK         0.1400 
    101 CB        -9.3412  -24.3178  -48.9115 C.3       18 UNK        -0.1800 
    102 C         -9.4019  -22.5623  -50.7333 C.2       18 UNK         0.5000 
    103 O        -10.5357  -22.2665  -51.1114 O.2       18 UNK        -0.5000 
    104 N         -8.3399  -22.6415  -51.5467 N.am      19 UNK        -0.5000 
    105 CA        -8.3408  -22.2792  -52.9649 C.3       19 UNK         0.1400 
    106 CB        -7.2660  -23.1136  -53.6811 C.3       19 UNK        -0.1800 
    107 C         -8.0843  -20.7746  -53.1893 C.2       19 UNK         0.5000 
    108 O         -8.3038  -20.2896  -54.2995 O.2       19 UNK        -0.5000 
    109 N         -7.6041  -20.0804  -52.1451 N.am      20 UNK        -0.5000 
    110 CA        -7.1267  -18.6947  -52.1208 C.3       20 UNK         0.1400 
    111 CB        -8.2924  -17.7054  -52.3173 C.3       20 UNK        -0.1800 
    112 C         -5.9627  -18.4796  -53.1097 C.2       20 UNK         0.5000 
    113 O         -5.9958  -17.5568  -53.9266 O.2       20 UNK        -0.5000 
    114 N         -4.9741  -19.3837  -53.0404 N.am      21 UNK        -0.5000 
    115 CA        -3.8964  -19.5625  -54.0184 C.3       21 UNK         0.1400 
    116 CB        -3.0123  -20.7318  -53.5663 C.3       21 UNK        -0.1800 
    117 C         -3.0341  -18.3237  -54.3311 C.2       21 UNK         0.5000 
    118 O         -2.4996  -18.2394  -55.4381 O.2       21 UNK        -0.5000 
    119 N         -2.9183  -17.3885  -53.3804 N.am      22 UNK        -0.5000 
    120 CA        -2.2196  -16.1059  -53.5789 C.3       22 UNK         0.1400 
    121 C         -3.0798  -15.0174  -54.2884 C.2       22 UNK         0.5000 
    122 N         -4.3622  -15.2356  -54.5566 N.am      22 UNK        -0.7600 
    123 O         -2.5674  -13.9506  -54.6162 O.2       22 UNK        -0.5000 
    124 C124       -1.5971  -15.5564  -52.2705 C.3       23 UNK        -0.0398 
    125 S125       -0.4963  -16.7504  -51.4401 S.3       23 UNK        -0.2404 
    126 C126        1.1015  -16.4244  -52.2498 C.3       23 UNK        -0.0205 
    127 H127        9.8865  -16.7873  -48.2000 H         1 UNK         0.0600 
    128 H128       10.6447  -18.1528  -47.3763 H         1 UNK         0.0600 
    129 H129       10.8609  -16.5136  -46.7530 H         1 UNK         0.0600 
    130 H130        7.7089  -16.5845  -47.7613 H         1 UNK         0.3000 
    131 H131        6.4431  -17.9547  -45.5450 H         1 UNK         0.0600 
    132 H132        5.2503  -18.0064  -47.6156 H         1 UNK         0.0800 
    133 H133        4.3306  -17.0369  -46.5138 H         1 UNK         0.0800 
    134 H134        5.9093  -15.8202  -50.6027 H         1 UNK         0.0800 
    135 H135        6.4070  -17.2455  -49.7332 H         1 UNK         0.0800 
    136 H136        3.4073  -15.4798  -51.1142 H         1 UNK         0.1150 
    137 H137        1.2986  -19.1024  -51.9557 H         1 UNK         0.1150 
    138 H138        5.0383  -19.2333  -49.8509 H         1 UNK         0.1150 
    139 H139        3.8670  -21.2755  -51.4457 H         1 UNK         0.0800 
    140 H140        3.4185  -21.1775  -49.7646 H         1 UNK         0.0800 
    141 H141       -0.5524  -21.2220  -50.1014 H         1 UNK         0.0800 
    142 H142        0.6660  -20.1721  -49.4669 H         1 UNK         0.0800 
    143 H143        1.0354  -23.1345  -48.9195 H         1 UNK         0.0600 
    144 H144        1.5947  -20.6377  -47.4207 H         1 UNK         0.3000 
    145 H145        3.7690  -22.1961  -45.1536 H         1 UNK         0.0600 
    146 H146        5.4936  -20.6499  -46.0570 H         1 UNK         0.0600 
    147 H147        5.2944  -22.0257  -47.1300 H         1 UNK         0.0600 
    148 H148        4.5856  -20.4745  -47.5593 H         1 UNK         0.0600 
    149 H149        3.2544  -19.4470  -45.7450 H         1 UNK         0.3000 
    150 H150        0.3275  -19.1091  -43.7254 H         1 UNK         0.0600 
    151 H151        3.1868  -18.0828  -43.3882 H         1 UNK         0.0600 
    152 H152        2.3496  -19.0968  -42.2182 H         1 UNK         0.0600 
    153 H153        1.7423  -17.4896  -42.5715 H         1 UNK         0.0600 
    154 H154        1.3724  -16.9873  -44.9151 H         1 UNK         0.3000 
    155 H155        0.1894  -16.0296  -46.6169 H         1 UNK         0.0600 
    156 H156        2.0122  -17.4163  -48.6242 H         1 UNK         0.0600 
    157 H157        2.4333  -16.1778  -47.4414 H         1 UNK         0.0600 
    158 H158        1.4416  -15.7567  -48.8209 H         1 UNK         0.0600 
    159 H159       -0.5040  -17.2247  -49.1430 H         1 UNK         0.3000 
    160 H160       -2.8242  -16.8185  -49.7499 H         1 UNK         0.0600 
    161 H161       -3.0943  -19.6081  -48.4729 H         1 UNK         0.0600 
    162 H162       -1.9576  -19.1586  -49.7343 H         1 UNK         0.0600 
    163 H163       -3.6742  -19.1725  -50.0846 H         1 UNK         0.0600 
    164 H164       -4.4241  -17.1835  -47.3724 H         1 UNK         0.3000 
    165 H165       -6.8521  -15.0876  -48.7273 H         1 UNK         0.0600 
    166 H166       -8.5823  -16.5548  -47.7686 H         1 UNK         0.0600 
    167 H167       -7.9940  -17.2606  -49.2646 H         1 UNK         0.0600 
    168 H168       -7.4617  -17.9129  -47.7201 H         1 UNK         0.0600 
    169 H169       -6.4795  -16.3548  -46.1499 H         1 UNK         0.3000 
    170 H170       -5.1976  -13.6494  -44.6327 H         1 UNK         0.0600 
    171 H171       -5.2497  -16.7246  -44.4357 H         1 UNK         0.0600 
    172 H172       -5.1737  -15.6043  -43.0841 H         1 UNK         0.0600 
    173 H173       -6.6104  -15.6515  -44.0866 H         1 UNK         0.0600 
    174 H174       -3.1093  -15.5063  -45.6464 H         1 UNK         0.3000 
    175 H175       -1.0275  -15.2985  -44.9844 H         1 UNK         0.0600 
    176 H176       -0.9294  -12.4227  -46.0943 H         1 UNK         0.0600 
    177 H177        0.2470  -13.6726  -46.4817 H         1 UNK         0.0600 
    178 H178       -1.4250  -13.8536  -46.9912 H         1 UNK         0.0600 
    179 H179       -0.5252  -13.0456  -43.2212 H         1 UNK         0.3000 
    180 H180        1.9588  -12.7667  -42.5658 H         1 UNK         0.0600 
    181 H181        0.9011  -15.1168  -40.8890 H         1 UNK         0.0600 
    182 H182        0.1259  -13.5464  -41.0561 H         1 UNK         0.0600 
    183 H183        1.6714  -13.6701  -40.2384 H         1 UNK         0.0600 
    184 H184        3.2506  -15.1470  -41.5782 H         1 UNK         0.3000 
    185 H185        6.2636  -14.4292  -42.8795 H         1 UNK         0.0600 
    186 H186        6.3674  -16.4312  -41.4400 H         1 UNK         0.0600 
    187 H187        5.2844  -15.2462  -40.7405 H         1 UNK         0.0600 
    188 H188        4.6296  -16.6670  -41.5604 H         1 UNK         0.0600 
    189 H189        5.1481  -16.9618  -43.9295 H         1 UNK         0.3000 
    190 H190       -0.4547  -20.7787  -46.6917 H         1 UNK         0.3000 
    191 H191       -3.0219  -21.9510  -46.5377 H         1 UNK         0.0600 
    192 H192       -2.4196  -19.6828  -45.6527 H         1 UNK         0.0600 
    193 H193       -3.2168  -20.6668  -44.4330 H         1 UNK         0.0600 
    194 H194       -1.4749  -20.4380  -44.3709 H         1 UNK         0.0600 
    195 H195       -0.0095  -22.7262  -44.7604 H         1 UNK         0.3000 
    196 H196       -1.0338  -24.7541  -43.0687 H         1 UNK         0.0600 
    197 H197        1.3800  -25.4455  -42.9348 H         1 UNK         0.0600 
    198 H198        1.1809  -23.7120  -42.7403 H         1 UNK         0.0600 
    199 H199        1.7591  -24.3654  -44.2727 H         1 UNK         0.0600 
    200 H200       -0.3824  -24.8180  -46.5061 H         1 UNK         0.3000 
    201 H201       -0.5695  -27.7722  -46.6968 H         1 UNK         0.0600 
    202 H202        0.0765  -27.4117  -49.0366 H         1 UNK         0.0600 
    203 H203        1.2066  -26.5554  -48.0014 H         1 UNK         0.0600 
    204 H204       -0.0479  -25.6683  -48.8635 H         1 UNK         0.0600 
    205 H205       -2.7318  -25.4418  -46.1604 H         1 UNK         0.3000 
    206 H206       -4.8849  -25.1722  -46.3195 H         1 UNK         0.0600 
    207 H207       -5.0728  -27.6612  -46.0725 H         1 UNK         0.0600 
    208 H208       -6.4035  -26.9660  -46.9815 H         1 UNK         0.0600 
    209 H209       -5.1261  -27.8214  -47.8284 H         1 UNK         0.0600 
    210 H210       -2.9695  -24.4380  -48.6804 H         1 UNK         0.3000 
    211 H211       -4.6962  -24.2556  -50.9857 H         1 UNK         0.0600 
    212 H212       -2.1346  -22.6975  -50.4591 H         1 UNK         0.0600 
    213 H213       -2.8298  -23.1391  -52.0086 H         1 UNK         0.0600 
    214 H214       -2.1364  -24.3789  -50.9835 H         1 UNK         0.0600 
    215 H215       -4.6653  -22.5108  -48.1065 H         1 UNK         0.3000 
    216 H216       -5.6544  -19.9423  -48.9883 H         1 UNK         0.0600 
    217 H217       -6.4299  -19.7940  -46.5828 H         1 UNK         0.0600 
    218 H218       -4.7277  -20.1757  -46.7355 H         1 UNK         0.0600 
    219 H219       -5.8837  -21.4453  -46.3276 H         1 UNK         0.0600 
    220 H220       -7.1291  -23.1532  -48.6490 H         1 UNK         0.3000 
    221 H221       -9.8712  -22.2560  -48.6631 H         1 UNK         0.0600 
    222 H222       -8.6687  -24.9519  -49.4902 H         1 UNK         0.0600 
    223 H223       -9.1659  -24.5190  -47.8545 H         1 UNK         0.0600 
    224 H224      -10.3609  -24.6314  -49.1382 H         1 UNK         0.0600 
    225 H225       -7.4461  -22.8913  -51.1493 H         1 UNK         0.3000 
    226 H226       -9.3113  -22.5215  -53.4030 H         1 UNK         0.0600 
    227 H227       -7.2613  -22.9080  -54.7522 H         1 UNK         0.0600 
    228 H228       -6.2663  -22.8963  -53.3028 H         1 UNK         0.0600 
    229 H229       -7.4474  -24.1813  -53.5572 H         1 UNK         0.0600 
    230 H230       -7.4632  -20.5946  -51.2881 H         1 UNK         0.3000 
    231 H231       -6.7200  -18.5348  -51.1223 H         1 UNK         0.0600 
    232 H232       -8.7269  -17.7804  -53.3144 H         1 UNK         0.0600 
    233 H233       -7.9532  -16.6775  -52.1830 H         1 UNK         0.0600 
    234 H234       -9.0851  -17.8837  -51.5907 H         1 UNK         0.0600 
    235 H235       -5.0557  -20.1180  -52.3434 H         1 UNK         0.3000 
    236 H236       -4.3739  -19.8500  -54.9572 H         1 UNK         0.0600 
    237 H237       -3.5874  -21.6569  -53.5491 H         1 UNK         0.0600 
    238 H238       -2.1747  -20.8853  -54.2480 H         1 UNK         0.0600 
    239 H239       -2.6019  -20.5647  -52.5694 H         1 UNK         0.0600 
    240 H240       -3.4082  -17.5122  -52.5070 H         1 UNK         0.3000 
    241 H241       -1.3832  -16.2869  -54.2566 H         1 UNK         0.0600 
    242 H242       -4.8187  -16.1081  -54.3018 H         1 UNK         0.3800 
    243 H243       -4.8959  -14.5189  -55.0215 H         1 UNK         0.3800 
    244 H244       -1.0336  -14.6420  -52.4637 H         1 UNK         0.0800 
    245 H245       -2.3864  -15.2788  -51.5703 H         1 UNK         0.0800 
    246 H246        1.3120  -15.3545  -52.2124 H         1 UNK         0.0800 
    247 H247        1.0382  -16.6985  -53.3036 H         1 UNK         0.0800 
@<TRIPOS>BOND
     1    1    2 1    
     2    1  127 1    
     3    1  128 1    
     4    1  129 1    
     5    2    3 2    
     6    2    4 am   BACKBONE|DICT|INTERRES
     7    4    5 1    
     8    4  130 1    
     9    5    6 1    
    10    5   65 1    
    11    5  131 1    
    12    6    7 1    
    13    6  132 1    
    14    6  133 1    
    15    7    8 1    
    16    8    9 1    
    17    8  134 1    
    18    8  135 1    
    19    9   10 ar   
    20    9   14 ar   
    21   10   11 ar   
    22   10  136 1    
    23   11   12 ar   
    24   11  126 1    
    25   12   13 ar   
    26   12  137 1    
    27   13   14 ar   
    28   13   15 1    
    29   14  138 1    
    30   15   16 1    
    31   15  139 1    
    32   15  140 1    
    33   16   17 1    
    34   17   18 1    
    35   17  141 1    
    36   17  142 1    
    37   18   19 1    
    38   18   67 1    
    39   18  143 1    
    40   19   20 am   BACKBONE|DICT|INTERRES
    41   19  144 1    
    42   20   21 2    
    43   20   22 1    
    44   22   23 1    
    45   22   24 1    
    46   22  145 1    
    47   23  146 1    
    48   23  147 1    
    49   23  148 1    
    50   24   25 am   BACKBONE|DICT|INTERRES
    51   24  149 1    
    52   25   26 2    
    53   25   27 1    
    54   27   28 1    
    55   27   29 1    
    56   27  150 1    
    57   28  151 1    
    58   28  152 1    
    59   28  153 1    
    60   29   30 am   BACKBONE|DICT|INTERRES
    61   29  154 1    
    62   30   31 2    
    63   30   32 1    
    64   32   33 1    
    65   32   34 1    
    66   32  155 1    
    67   33  156 1    
    68   33  157 1    
    69   33  158 1    
    70   34   35 am   BACKBONE|DICT|INTERRES
    71   34  159 1    
    72   35   36 2    
    73   35   37 1    
    74   37   38 1    
    75   37   39 1    
    76   37  160 1    
    77   38  161 1    
    78   38  162 1    
    79   38  163 1    
    80   39   40 am   BACKBONE|DICT|INTERRES
    81   39  164 1    
    82   40   41 2    
    83   40   42 1    
    84   42   43 1    
    85   42   44 1    
    86   42  165 1    
    87   43  166 1    
    88   43  167 1    
    89   43  168 1    
    90   44   45 am   BACKBONE|DICT|INTERRES
    91   44  169 1    
    92   45   46 2    
    93   45   47 1    
    94   47   48 1    
    95   47   49 1    
    96   47  170 1    
    97   48  171 1    
    98   48  172 1    
    99   48  173 1    
   100   49   50 am   BACKBONE|DICT|INTERRES
   101   49  174 1    
   102   50   51 2    
   103   50   52 1    
   104   52   53 1    
   105   52   54 1    
   106   52  175 1    
   107   53  176 1    
   108   53  177 1    
   109   53  178 1    
   110   54   55 am   BACKBONE|DICT|INTERRES
   111   54  179 1    
   112   55   56 2    
   113   55   57 1    
   114   57   58 1    
   115   57   59 1    
   116   57  180 1    
   117   58  181 1    
   118   58  182 1    
   119   58  183 1    
   120   59   60 am   BACKBONE|DICT|INTERRES
   121   59  184 1    
   122   60   61 2    
   123   60   62 1    
   124   62   63 1    
   125   62   64 1    
   126   62  185 1    
   127   63  186 1    
   128   63  187 1    
   129   63  188 1    
   130   64   65 am   BACKBONE|DICT|INTERRES
   131   64  189 1    
   132   65   66 2    
   133   67   68 2    
   134   67   69 am   BACKBONE|DICT|INTERRES
   135   69   70 1    
   136   69  190 1    
   137   70   71 1    
   138   70   72 1    
   139   70  191 1    
   140   71  192 1    
   141   71  193 1    
   142   71  194 1    
   143   72   73 2    
   144   72   74 am   BACKBONE|DICT|INTERRES
   145   74   75 1    
   146   74  195 1    
   147   75   76 1    
   148   75   77 1    
   149   75  196 1    
   150   76  197 1    
   151   76  198 1    
   152   76  199 1    
   153   77   78 2    
   154   77   79 am   BACKBONE|DICT|INTERRES
   155   79   80 1    
   156   79  200 1    
   157   80   81 1    
   158   80   82 1    
   159   80  201 1    
   160   81  202 1    
   161   81  203 1    
   162   81  204 1    
   163   82   83 2    
   164   82   84 am   BACKBONE|DICT|INTERRES
   165   84   85 1    
   166   84  205 1    
   167   85   86 1    
   168   85   87 1    
   169   85  206 1    
   170   86  207 1    
   171   86  208 1    
   172   86  209 1    
   173   87   88 2    
   174   87   89 am   BACKBONE|DICT|INTERRES
   175   89   90 1    
   176   89  210 1    
   177   90   91 1    
   178   90   92 1    
   179   90  211 1    
   180   91  212 1    
   181   91  213 1    
   182   91  214 1    
   183   92   93 2    
   184   92   94 am   BACKBONE|DICT|INTERRES
   185   94   95 1    
   186   94  215 1    
   187   95   96 1    
   188   95   97 1    
   189   95  216 1    
   190   96  217 1    
   191   96  218 1    
   192   96  219 1    
   193   97   98 2    
   194   97   99 am   BACKBONE|DICT|INTERRES
   195   99  100 1    
   196   99  220 1    
   197  100  101 1    
   198  100  102 1    
   199  100  221 1    
   200  101  222 1    
   201  101  223 1    
   202  101  224 1    
   203  102  103 2    
   204  102  104 am   BACKBONE|DICT|INTERRES
   205  104  105 1    
   206  104  225 1    
   207  105  106 1    
   208  105  107 1    
   209  105  226 1    
   210  106  227 1    
   211  106  228 1    
   212  106  229 1    
   213  107  108 2    
   214  107  109 am   BACKBONE|DICT|INTERRES
   215  109  110 1    
   216  109  230 1    
   217  110  111 1    
   218  110  112 1    
   219  110  231 1    
   220  111  232 1    
   221  111  233 1    
   222  111  234 1    
   223  112  113 2    
   224  112  114 am   BACKBONE|DICT|INTERRES
   225  114  115 1    
   226  114  235 1    
   227  115  116 1    
   228  115  117 1    
   229  115  236 1    
   230  116  237 1    
   231  116  238 1    
   232  116  239 1    
   233  117  118 2    
   234  117  119 am   BACKBONE|DICT|INTERRES
   235  119  120 1    
   236  119  240 1    
   237  120  121 1    
   238  120  124 1    
   239  120  241 1    
   240  121  122 am   BACKBONE|DICT|INTERRES
   241  121  123 2    
   242  122  242 1    
   243  122  243 1    
   244  124  125 1    
   245  124  244 1    
   246  124  245 1    
   247  125  126 1    
   248  126  246 1    
   249  126  247 1    
@<TRIPOS>SUBSTRUCTURE
     1 UNK         1 GROUP             0       ****    0 ROOT    
