@<TRIPOS>MOLECULE
3R540
247   249    1
SMALL
USER_CHARGES


@<TRIPOS>ATOM
      1 CA          3.0742  -11.4228  -50.1368 C.3       0 UNK        -0.1800 
      2 C           2.4792  -12.8225  -50.1986 C.2       0 UNK         0.5000 
      3 O           1.7597  -13.1369  -51.1464 O.2       0 UNK        -0.5000 
      4 N           2.7766  -13.6537  -49.1898 N.am      1 UNK        -0.5000 
      5 CA          2.3283  -15.0487  -49.0446 C.3       1 UNK         0.1400 
      6 C6          2.8714  -16.0012  -50.1456 C.3       23 UNK        -0.0398 
      7 S7          4.6962  -16.0233  -50.2062 S.3       23 UNK        -0.2404 
      8 C8          4.9987  -17.0880  -51.6537 C.3       23 UNK        -0.0205 
      9 C9          4.4178  -18.4824  -51.4697 C.ar      23 UNK        -0.0193 
     10 C10         3.3257  -18.8981  -52.2373 C.ar      23 UNK        -0.1150 
     11 C11         2.7600  -20.1613  -52.0411 C.ar      23 UNK        -0.0193 
     12 C12         3.3081  -21.0173  -51.0822 C.ar      23 UNK        -0.1150 
     13 C13         4.3970  -20.6112  -50.3052 C.ar      23 UNK        -0.0193 
     14 C14         4.9561  -19.3479  -50.5131 C.ar      23 UNK        -0.1150 
     15 C15         4.9522  -21.5260  -49.2231 C.3       23 UNK        -0.0205 
     16 S16         4.4893  -20.9735  -47.5474 S.3       23 UNK        -0.2404 
     17 C17         2.6709  -21.1193  -47.5825 C.3       23 UNK        -0.0398 
     18 CA          2.1798  -22.4962  -47.0770 C.3       11 UNK         0.1400 
     19 N           2.3995  -22.6485  -45.6379 N.am      11 UNK        -0.5000 
     20 C           2.9457  -23.7112  -45.0373 C.2       10 UNK         0.5000 
     21 O           3.3576  -24.7055  -45.6386 O.2       10 UNK        -0.5000 
     22 CA          3.0479  -23.6244  -43.4996 C.3       10 UNK         0.1400 
     23 CB          3.8070  -24.8052  -42.8581 C.3       10 UNK        -0.1800 
     24 N           3.5890  -22.3321  -43.0647 N.am      10 UNK        -0.5000 
     25 C           4.8202  -21.8414  -43.2696 C.2       9 UNK         0.5000 
     26 O           5.7438  -22.4820  -43.7724 O.2       9 UNK        -0.5000 
     27 CA          5.0677  -20.3744  -42.8580 C.3       9 UNK         0.1400 
     28 CB          5.1168  -19.4731  -44.1008 C.3       9 UNK        -0.1800 
     29 N           4.0732  -19.8350  -41.9253 N.am      9 UNK        -0.5000 
     30 C           4.0063  -20.1413  -40.6216 C.2       8 UNK         0.5000 
     31 O           4.7670  -20.9337  -40.0652 O.2       8 UNK        -0.5000 
     32 CA          2.8992  -19.4523  -39.8048 C.3       8 UNK         0.1400 
     33 CB          3.3327  -18.0416  -39.3762 C.3       8 UNK        -0.1800 
     34 N           1.6503  -19.3691  -40.5608 N.am      8 UNK        -0.5000 
     35 C           0.7387  -20.3500  -40.6205 C.2       7 UNK         0.5000 
     36 O           0.8247  -21.4023  -39.9871 O.2       7 UNK        -0.5000 
     37 CA         -0.4620  -20.1340  -41.5625 C.3       7 UNK         0.1400 
     38 CB         -1.6283  -19.4714  -40.8149 C.3       7 UNK        -0.1800 
     39 N          -0.1314  -19.3330  -42.7407 N.am      7 UNK        -0.5000 
     40 C           0.7190  -19.7136  -43.7028 C.2       6 UNK         0.5000 
     41 O           1.2754  -20.8086  -43.7296 O.2       6 UNK        -0.5000 
     42 CA          1.0397  -18.6930  -44.8037 C.3       6 UNK         0.1400 
     43 CB          0.0960  -18.8755  -45.9938 C.3       6 UNK        -0.1800 
     44 N           0.9787  -17.3059  -44.3574 N.am      6 UNK        -0.5000 
     45 C           1.7267  -16.7614  -43.3900 C.2       5 UNK         0.5000 
     46 O           2.5700  -17.3841  -42.7430 O.2       5 UNK        -0.5000 
     47 CA          1.4366  -15.2874  -43.0690 C.3       5 UNK         0.1400 
     48 CB          2.1314  -14.3631  -44.0813 C.3       5 UNK        -0.1800 
     49 N          -0.0038  -15.0260  -43.0780 N.am      5 UNK        -0.5000 
     50 C          -0.8301  -15.3255  -42.0666 C.2       4 UNK         0.5000 
     51 O          -0.4518  -15.7931  -40.9923 O.2       4 UNK        -0.5000 
     52 CA         -2.3334  -15.0757  -42.2965 C.3       4 UNK         0.1400 
     53 CB         -2.6992  -13.6273  -41.9384 C.3       4 UNK        -0.1800 
     54 N          -2.7667  -15.3555  -43.6672 N.am      4 UNK        -0.5000 
     55 C          -2.8216  -16.5795  -44.2102 C.2       3 UNK         0.5000 
     56 O          -2.5066  -17.6078  -43.6118 O.2       3 UNK        -0.5000 
     57 CA         -3.2695  -16.6668  -45.6837 C.3       3 UNK         0.1400 
     58 CB         -4.8017  -16.7216  -45.7760 C.3       3 UNK        -0.1800 
     59 N          -2.7717  -15.5948  -46.5558 N.am      3 UNK        -0.5000 
     60 C          -1.4927  -15.2159  -46.6859 C.2       2 UNK         0.5000 
     61 O          -0.5766  -15.6399  -45.9787 O.2       2 UNK        -0.5000 
     62 CA         -1.1945  -14.1479  -47.7542 C.3       2 UNK         0.1400 
     63 CB         -1.5219  -12.7478  -47.2123 C.3       2 UNK        -0.1800 
     64 N           0.2104  -14.1718  -48.1634 N.am      2 UNK        -0.5000 
     65 C           0.7966  -15.1602  -48.8553 C.2       1 UNK         0.5000 
     66 O           0.1825  -16.1219  -49.3181 O.2       1 UNK        -0.5000 
     67 C           0.6871  -22.7074  -47.4046 C.2       11 UNK         0.5000 
     68 O          -0.1716  -22.5829  -46.5273 O.2       11 UNK        -0.5000 
     69 N           0.4109  -23.0232  -48.6782 N.am      12 UNK        -0.5000 
     70 CA         -0.8947  -23.4452  -49.1947 C.3       12 UNK         0.1400 
     71 CB         -0.7472  -23.8329  -50.6739 C.3       12 UNK        -0.1800 
     72 C          -2.0417  -22.4326  -49.0253 C.2       12 UNK         0.5000 
     73 O          -3.1849  -22.8596  -48.8579 O.2       12 UNK        -0.5000 
     74 N          -1.7357  -21.1259  -49.0444 N.am      13 UNK        -0.5000 
     75 CA         -2.7174  -20.0351  -48.9624 C.3       13 UNK         0.1400 
     76 CB         -2.0094  -18.6792  -49.0745 C.3       13 UNK        -0.1800 
     77 C          -3.5898  -20.0561  -47.6943 C.2       13 UNK         0.5000 
     78 O          -4.7182  -19.5705  -47.7341 O.2       13 UNK        -0.5000 
     79 N          -3.0771  -20.6432  -46.6040 N.am      14 UNK        -0.5000 
     80 CA         -3.8094  -20.8390  -45.3524 C.3       14 UNK         0.1400 
     81 CB         -2.8317  -21.3330  -44.2800 C.3       14 UNK        -0.1800 
     82 C          -5.0001  -21.8101  -45.4829 C.2       14 UNK         0.5000 
     83 O          -5.9680  -21.6770  -44.7334 O.2       14 UNK        -0.5000 
     84 N          -4.9099  -22.7578  -46.4255 N.am      15 UNK        -0.5000 
     85 CA         -5.9586  -23.7264  -46.7368 C.3       15 UNK         0.1400 
     86 CB         -5.3214  -25.1140  -46.9129 C.3       15 UNK        -0.1800 
     87 C          -6.7286  -23.3236  -48.0049 C.2       15 UNK         0.5000 
     88 O          -7.9533  -23.4481  -48.0351 O.2       15 UNK        -0.5000 
     89 N          -6.0013  -22.8613  -49.0312 N.am      16 UNK        -0.5000 
     90 CA         -6.5418  -22.5151  -50.3460 C.3       16 UNK         0.1400 
     91 CB         -5.3864  -22.4695  -51.3573 C.3       16 UNK        -0.1800 
     92 C          -7.3344  -21.1944  -50.3635 C.2       16 UNK         0.5000 
     93 O          -8.2313  -21.0446  -51.1945 O.2       16 UNK        -0.5000 
     94 N          -7.0025  -20.2673  -49.4519 N.am      17 UNK        -0.5000 
     95 CA         -7.5477  -18.9130  -49.3437 C.3       17 UNK         0.1400 
     96 CB         -9.0260  -18.9500  -48.8928 C.3       17 UNK        -0.1800 
     97 C          -7.2842  -18.1090  -50.6343 C.2       17 UNK         0.5000 
     98 O          -6.1296  -18.0111  -51.0517 O.2       17 UNK        -0.5000 
     99 N          -8.3378  -17.5520  -51.2428 N.am      18 UNK        -0.5000 
    100 CA        -8.2676  -16.7875  -52.4890 C.3       18 UNK         0.1400 
    101 CB        -9.4572  -15.8142  -52.5287 C.3       18 UNK        -0.1800 
    102 C         -8.2514  -17.6697  -53.7552 C.2       18 UNK         0.5000 
    103 O         -7.9746  -17.1501  -54.8378 O.2       18 UNK        -0.5000 
    104 N         -8.5764  -18.9625  -53.6216 N.am      19 UNK        -0.5000 
    105 CA        -8.6085  -19.9239  -54.7231 C.3       19 UNK         0.1400 
    106 CB        -9.6492  -21.0092  -54.3999 C.3       19 UNK        -0.1800 
    107 C         -7.2242  -20.5518  -54.9667 C.2       19 UNK         0.5000 
    108 O         -6.3511  -20.4833  -54.0996 O.2       19 UNK        -0.5000 
    109 N         -7.0758  -21.1864  -56.1394 N.am      20 UNK        -0.5000 
    110 CA        -5.8959  -21.9270  -56.6025 C.3       20 UNK         0.1400 
    111 CB        -5.7390  -23.2339  -55.7908 C.3       20 UNK        -0.1800 
    112 C         -4.6196  -21.0548  -56.6399 C.2       20 UNK         0.5000 
    113 O         -4.7001  -19.8741  -56.9890 O.2       20 UNK        -0.5000 
    114 N         -3.4658  -21.6453  -56.3050 N.am      21 UNK        -0.5000 
    115 CA        -2.2095  -20.9330  -56.0883 C.3       21 UNK         0.1400 
    116 CB        -1.0419  -21.9276  -56.1832 C.3       21 UNK        -0.1800 
    117 C         -2.2259  -20.2532  -54.7088 C.2       21 UNK         0.5000 
    118 O         -2.7001  -20.8629  -53.7481 O.2       21 UNK        -0.5000 
    119 N         -1.7004  -19.0225  -54.6547 N.am      22 UNK        -0.5000 
    120 CA        -1.5212  -18.1165  -53.4977 C.3       22 UNK         0.1400 
    121 C         -2.7427  -17.8100  -52.5740 C.2       22 UNK         0.5000 
    122 N         -3.8152  -18.5845  -52.5813 N.am      22 UNK        -0.7600 
    123 O         -2.7329  -16.8004  -51.8757 O.2       22 UNK        -0.5000 
    124 C124       -0.2069  -18.3687  -52.7010 C.3       23 UNK        -0.0398 
    125 S125        0.0043  -20.0575  -52.0292 S.3       23 UNK        -0.2404 
    126 C126        1.5416  -20.5990  -52.8392 C.3       23 UNK        -0.0205 
    127 H127        3.6884  -11.2811  -49.2472 H         1 UNK         0.0600 
    128 H128        2.2791  -10.6774  -50.1233 H         1 UNK         0.0600 
    129 H129        3.6980  -11.2420  -51.0122 H         1 UNK         0.0600 
    130 H130        3.3851  -13.3234  -48.4540 H         1 UNK         0.3000 
    131 H131        2.7470  -15.3915  -48.0969 H         1 UNK         0.0600 
    132 H132        2.5371  -17.0232  -49.9573 H         1 UNK         0.0800 
    133 H133        2.4818  -15.7269  -51.1269 H         1 UNK         0.0800 
    134 H134        6.0743  -17.1670  -51.8173 H         1 UNK         0.0800 
    135 H135        4.5874  -16.6079  -52.5430 H         1 UNK         0.0800 
    136 H136        2.9054  -18.2298  -52.9744 H         1 UNK         0.1150 
    137 H137        2.8687  -21.9918  -50.9242 H         1 UNK         0.1150 
    138 H138        5.7915  -19.0250  -49.9075 H         1 UNK         0.1150 
    139 H139        4.6143  -22.5527  -49.3710 H         1 UNK         0.0800 
    140 H140        6.0403  -21.5505  -49.2973 H         1 UNK         0.0800 
    141 H141        2.3081  -20.9073  -48.5871 H         1 UNK         0.0800 
    142 H142        2.2735  -20.3211  -46.9609 H         1 UNK         0.0800 
    143 H143        2.7322  -23.2691  -47.6155 H         1 UNK         0.0600 
    144 H144        2.0078  -21.9218  -45.0445 H         1 UNK         0.3000 
    145 H145        2.0228  -23.6590  -43.1277 H         1 UNK         0.0600 
    146 H146        3.8554  -24.6997  -41.7744 H         1 UNK         0.0600 
    147 H147        3.3045  -25.7493  -43.0706 H         1 UNK         0.0600 
    148 H148        4.8269  -24.8900  -43.2335 H         1 UNK         0.0600 
    149 H149        2.8918  -21.6797  -42.7265 H         1 UNK         0.3000 
    150 H150        6.0453  -20.3326  -42.3732 H         1 UNK         0.0600 
    151 H151        5.9158  -19.7827  -44.7758 H         1 UNK         0.0600 
    152 H152        5.3015  -18.4328  -43.8323 H         1 UNK         0.0600 
    153 H153        4.1847  -19.5165  -44.6620 H         1 UNK         0.0600 
    154 H154        3.4457  -19.1245  -42.2880 H         1 UNK         0.3000 
    155 H155        2.7348  -20.0391  -38.8985 H         1 UNK         0.0600 
    156 H156        4.2446  -18.0800  -38.7789 H         1 UNK         0.0600 
    157 H157        2.5655  -17.5623  -38.7679 H         1 UNK         0.0600 
    158 H158        3.5303  -17.3974  -40.2333 H         1 UNK         0.0600 
    159 H159        1.5273  -18.5514  -41.1439 H         1 UNK         0.3000 
    160 H160       -0.7907  -21.1171  -41.9058 H         1 UNK         0.0600 
    161 H161       -1.3725  -18.4643  -40.4834 H         1 UNK         0.0600 
    162 H162       -1.9072  -20.0489  -39.9328 H         1 UNK         0.0600 
    163 H163       -2.5121  -19.4006  -41.4493 H         1 UNK         0.0600 
    164 H164       -0.6091  -18.4455  -42.8389 H         1 UNK         0.3000 
    165 H165        2.0587  -18.8799  -45.1406 H         1 UNK         0.0600 
    166 H166        0.4044  -18.2442  -46.8272 H         1 UNK         0.0600 
    167 H167        0.0820  -19.9061  -46.3440 H         1 UNK         0.0600 
    168 H168       -0.9262  -18.6169  -45.7271 H         1 UNK         0.0600 
    169 H169        0.3326  -16.7019  -44.8630 H         1 UNK         0.3000 
    170 H170        1.8373  -15.0703  -42.0765 H         1 UNK         0.0600 
    171 H171        3.2097  -14.5275  -44.0814 H         1 UNK         0.0600 
    172 H172        1.7742  -14.5305  -45.0981 H         1 UNK         0.0600 
    173 H173        1.9625  -13.3145  -43.8361 H         1 UNK         0.0600 
    174 H174       -0.4020  -14.7220  -43.9564 H         1 UNK         0.3000 
    175 H175       -2.8831  -15.7405  -41.6265 H         1 UNK         0.0600 
    176 H176       -2.4081  -13.3932  -40.9135 H         1 UNK         0.0600 
    177 H177       -2.2004  -12.9116  -42.5932 H         1 UNK         0.0600 
    178 H178       -3.7739  -13.4614  -42.0154 H         1 UNK         0.0600 
    179 H179       -3.0334  -14.5645  -44.2344 H         1 UNK         0.3000 
    180 H180       -2.8855  -17.6042  -46.0844 H         1 UNK         0.0600 
    181 H181       -5.2028  -17.5269  -45.1592 H         1 UNK         0.0600 
    182 H182       -5.2598  -15.7904  -45.4408 H         1 UNK         0.0600 
    183 H183       -5.1286  -16.9092  -46.7991 H         1 UNK         0.0600 
    184 H184       -3.4596  -15.1678  -47.1589 H         1 UNK         0.3000 
    185 H185       -1.8133  -14.3475  -48.6315 H         1 UNK         0.0600 
    186 H186       -2.5724  -12.6698  -46.9297 H         1 UNK         0.0600 
    187 H187       -0.9261  -12.5079  -46.3304 H         1 UNK         0.0600 
    188 H188       -1.3328  -11.9805  -47.9635 H         1 UNK         0.0600 
    189 H189        0.7937  -13.4278  -47.8118 H         1 UNK         0.3000 
    190 H190        1.1745  -23.0928  -49.3341 H         1 UNK         0.3000 
    191 H191       -1.1827  -24.3410  -48.6405 H         1 UNK         0.0600 
    192 H192       -0.4105  -22.9909  -51.2794 H         1 UNK         0.0600 
    193 H193       -1.6988  -24.1712  -51.0871 H         1 UNK         0.0600 
    194 H194       -0.0328  -24.6463  -50.8014 H         1 UNK         0.0600 
    195 H195       -0.7761  -20.8612  -49.2089 H         1 UNK         0.3000 
    196 H196       -3.3853  -20.1351  -49.8200 H         1 UNK         0.0600 
    197 H197       -2.7338  -17.8645  -49.1146 H         1 UNK         0.0600 
    198 H198       -1.4067  -18.6118  -49.9765 H         1 UNK         0.0600 
    199 H199       -1.3574  -18.4872  -48.2276 H         1 UNK         0.0600 
    200 H200       -2.1545  -21.0539  -46.6613 H         1 UNK         0.3000 
    201 H201       -4.2030  -19.8711  -45.0356 H         1 UNK         0.0600 
    202 H202       -2.0318  -20.6114  -44.1366 H         1 UNK         0.0600 
    203 H203       -2.3788  -22.2875  -44.5517 H         1 UNK         0.0600 
    204 H204       -3.3307  -21.4610  -43.3187 H         1 UNK         0.0600 
    205 H205       -4.0960  -22.7681  -47.0294 H         1 UNK         0.3000 
    206 H206       -6.6757  -23.7897  -45.9156 H         1 UNK         0.0600 
    207 H207       -4.8197  -25.4340  -45.9996 H         1 UNK         0.0600 
    208 H208       -6.0775  -25.8640  -47.1486 H         1 UNK         0.0600 
    209 H209       -4.5860  -25.1234  -47.7186 H         1 UNK         0.0600 
    210 H210       -4.9886  -22.8234  -48.9395 H         1 UNK         0.3000 
    211 H211       -7.2236  -23.3115  -50.6516 H         1 UNK         0.0600 
    212 H212       -5.7652  -22.3393  -52.3701 H         1 UNK         0.0600 
    213 H213       -4.8094  -23.3943  -51.3461 H         1 UNK         0.0600 
    214 H214       -4.7021  -21.6450  -51.1557 H         1 UNK         0.0600 
    215 H215       -6.2211  -20.4534  -48.8340 H         1 UNK         0.3000 
    216 H216       -6.9808  -18.4129  -48.5578 H         1 UNK         0.0600 
    217 H217       -9.4046  -17.9455  -48.7000 H         1 UNK         0.0600 
    218 H218       -9.1317  -19.5122  -47.9649 H         1 UNK         0.0600 
    219 H219       -9.6760  -19.4168  -49.6335 H         1 UNK         0.0600 
    220 H220       -9.2562  -17.6897  -50.8466 H         1 UNK         0.3000 
    221 H221       -7.3487  -16.1971  -52.4930 H         1 UNK         0.0600 
    222 H222      -10.4106  -16.3439  -52.5308 H         1 UNK         0.0600 
    223 H223       -9.4468  -15.1429  -51.6698 H         1 UNK         0.0600 
    224 H224       -9.4254  -15.1924  -53.4244 H         1 UNK         0.0600 
    225 H225       -8.6839  -19.3483  -52.6921 H         1 UNK         0.3000 
    226 H226       -8.9209  -19.4143  -55.6372 H         1 UNK         0.0600 
    227 H227      -10.6281  -20.5719  -54.2030 H         1 UNK         0.0600 
    228 H228       -9.7670  -21.7023  -55.2336 H         1 UNK         0.0600 
    229 H229       -9.3628  -21.5967  -53.5274 H         1 UNK         0.0600 
    230 H230       -7.8437  -21.1559  -56.7949 H         1 UNK         0.3000 
    231 H231       -6.0997  -22.2048  -57.6375 H         1 UNK         0.0600 
    232 H232       -6.6766  -23.7890  -55.7590 H         1 UNK         0.0600 
    233 H233       -5.4367  -23.0385  -54.7611 H         1 UNK         0.0600 
    234 H234       -4.9964  -23.8952  -56.2383 H         1 UNK         0.0600 
    235 H235       -3.4930  -22.6027  -55.9872 H         1 UNK         0.3000 
    236 H236       -2.0861  -20.1777  -56.8676 H         1 UNK         0.0600 
    237 H237       -1.0126  -22.4106  -57.1600 H         1 UNK         0.0600 
    238 H238       -0.0865  -21.4208  -56.0413 H         1 UNK         0.0600 
    239 H239       -1.1139  -22.7075  -55.4238 H         1 UNK         0.0600 
    240 H240       -1.3759  -18.6310  -55.5269 H         1 UNK         0.3000 
    241 H241       -1.3661  -17.1548  -53.9891 H         1 UNK         0.0600 
    242 H242       -3.7882  -19.4635  -53.0880 H         1 UNK         0.3800 
    243 H243       -4.6208  -18.3502  -52.0049 H         1 UNK         0.3800 
    244 H244        0.6327  -18.1441  -53.3571 H         1 UNK         0.0800 
    245 H245       -0.1117  -17.6608  -51.8754 H         1 UNK         0.0800 
    246 H246        1.5244  -21.6867  -52.9225 H         1 UNK         0.0800 
    247 H247        1.5905  -20.2214  -53.8615 H         1 UNK         0.0800 
@<TRIPOS>BOND
     1    1    2 1    
     2    1  127 1    
     3    1  128 1    
     4    1  129 1    
     5    2    3 2    
     6    2    4 am   BACKBONE|DICT|INTERRES
     7    4    5 1    
     8    4  130 1    
     9    5    6 1    
    10    5   65 1    
    11    5  131 1    
    12    6    7 1    
    13    6  132 1    
    14    6  133 1    
    15    7    8 1    
    16    8    9 1    
    17    8  134 1    
    18    8  135 1    
    19    9   10 ar   
    20    9   14 ar   
    21   10   11 ar   
    22   10  136 1    
    23   11   12 ar   
    24   11  126 1    
    25   12   13 ar   
    26   12  137 1    
    27   13   14 ar   
    28   13   15 1    
    29   14  138 1    
    30   15   16 1    
    31   15  139 1    
    32   15  140 1    
    33   16   17 1    
    34   17   18 1    
    35   17  141 1    
    36   17  142 1    
    37   18   19 1    
    38   18   67 1    
    39   18  143 1    
    40   19   20 am   BACKBONE|DICT|INTERRES
    41   19  144 1    
    42   20   21 2    
    43   20   22 1    
    44   22   23 1    
    45   22   24 1    
    46   22  145 1    
    47   23  146 1    
    48   23  147 1    
    49   23  148 1    
    50   24   25 am   BACKBONE|DICT|INTERRES
    51   24  149 1    
    52   25   26 2    
    53   25   27 1    
    54   27   28 1    
    55   27   29 1    
    56   27  150 1    
    57   28  151 1    
    58   28  152 1    
    59   28  153 1    
    60   29   30 am   BACKBONE|DICT|INTERRES
    61   29  154 1    
    62   30   31 2    
    63   30   32 1    
    64   32   33 1    
    65   32   34 1    
    66   32  155 1    
    67   33  156 1    
    68   33  157 1    
    69   33  158 1    
    70   34   35 am   BACKBONE|DICT|INTERRES
    71   34  159 1    
    72   35   36 2    
    73   35   37 1    
    74   37   38 1    
    75   37   39 1    
    76   37  160 1    
    77   38  161 1    
    78   38  162 1    
    79   38  163 1    
    80   39   40 am   BACKBONE|DICT|INTERRES
    81   39  164 1    
    82   40   41 2    
    83   40   42 1    
    84   42   43 1    
    85   42   44 1    
    86   42  165 1    
    87   43  166 1    
    88   43  167 1    
    89   43  168 1    
    90   44   45 am   BACKBONE|DICT|INTERRES
    91   44  169 1    
    92   45   46 2    
    93   45   47 1    
    94   47   48 1    
    95   47   49 1    
    96   47  170 1    
    97   48  171 1    
    98   48  172 1    
    99   48  173 1    
   100   49   50 am   BACKBONE|DICT|INTERRES
   101   49  174 1    
   102   50   51 2    
   103   50   52 1    
   104   52   53 1    
   105   52   54 1    
   106   52  175 1    
   107   53  176 1    
   108   53  177 1    
   109   53  178 1    
   110   54   55 am   BACKBONE|DICT|INTERRES
   111   54  179 1    
   112   55   56 2    
   113   55   57 1    
   114   57   58 1    
   115   57   59 1    
   116   57  180 1    
   117   58  181 1    
   118   58  182 1    
   119   58  183 1    
   120   59   60 am   BACKBONE|DICT|INTERRES
   121   59  184 1    
   122   60   61 2    
   123   60   62 1    
   124   62   63 1    
   125   62   64 1    
   126   62  185 1    
   127   63  186 1    
   128   63  187 1    
   129   63  188 1    
   130   64   65 am   BACKBONE|DICT|INTERRES
   131   64  189 1    
   132   65   66 2    
   133   67   68 2    
   134   67   69 am   BACKBONE|DICT|INTERRES
   135   69   70 1    
   136   69  190 1    
   137   70   71 1    
   138   70   72 1    
   139   70  191 1    
   140   71  192 1    
   141   71  193 1    
   142   71  194 1    
   143   72   73 2    
   144   72   74 am   BACKBONE|DICT|INTERRES
   145   74   75 1    
   146   74  195 1    
   147   75   76 1    
   148   75   77 1    
   149   75  196 1    
   150   76  197 1    
   151   76  198 1    
   152   76  199 1    
   153   77   78 2    
   154   77   79 am   BACKBONE|DICT|INTERRES
   155   79   80 1    
   156   79  200 1    
   157   80   81 1    
   158   80   82 1    
   159   80  201 1    
   160   81  202 1    
   161   81  203 1    
   162   81  204 1    
   163   82   83 2    
   164   82   84 am   BACKBONE|DICT|INTERRES
   165   84   85 1    
   166   84  205 1    
   167   85   86 1    
   168   85   87 1    
   169   85  206 1    
   170   86  207 1    
   171   86  208 1    
   172   86  209 1    
   173   87   88 2    
   174   87   89 am   BACKBONE|DICT|INTERRES
   175   89   90 1    
   176   89  210 1    
   177   90   91 1    
   178   90   92 1    
   179   90  211 1    
   180   91  212 1    
   181   91  213 1    
   182   91  214 1    
   183   92   93 2    
   184   92   94 am   BACKBONE|DICT|INTERRES
   185   94   95 1    
   186   94  215 1    
   187   95   96 1    
   188   95   97 1    
   189   95  216 1    
   190   96  217 1    
   191   96  218 1    
   192   96  219 1    
   193   97   98 2    
   194   97   99 am   BACKBONE|DICT|INTERRES
   195   99  100 1    
   196   99  220 1    
   197  100  101 1    
   198  100  102 1    
   199  100  221 1    
   200  101  222 1    
   201  101  223 1    
   202  101  224 1    
   203  102  103 2    
   204  102  104 am   BACKBONE|DICT|INTERRES
   205  104  105 1    
   206  104  225 1    
   207  105  106 1    
   208  105  107 1    
   209  105  226 1    
   210  106  227 1    
   211  106  228 1    
   212  106  229 1    
   213  107  108 2    
   214  107  109 am   BACKBONE|DICT|INTERRES
   215  109  110 1    
   216  109  230 1    
   217  110  111 1    
   218  110  112 1    
   219  110  231 1    
   220  111  232 1    
   221  111  233 1    
   222  111  234 1    
   223  112  113 2    
   224  112  114 am   BACKBONE|DICT|INTERRES
   225  114  115 1    
   226  114  235 1    
   227  115  116 1    
   228  115  117 1    
   229  115  236 1    
   230  116  237 1    
   231  116  238 1    
   232  116  239 1    
   233  117  118 2    
   234  117  119 am   BACKBONE|DICT|INTERRES
   235  119  120 1    
   236  119  240 1    
   237  120  121 1    
   238  120  124 1    
   239  120  241 1    
   240  121  122 am   BACKBONE|DICT|INTERRES
   241  121  123 2    
   242  122  242 1    
   243  122  243 1    
   244  124  125 1    
   245  124  244 1    
   246  124  245 1    
   247  125  126 1    
   248  126  246 1    
   249  126  247 1    
@<TRIPOS>SUBSTRUCTURE
     1 UNK         1 GROUP             0       ****    0 ROOT    
