@<TRIPOS>MOLECULE
3R540
247   249    1
SMALL
USER_CHARGES


@<TRIPOS>ATOM
      1 CA          0.1448  -15.0902  -53.2484 C.3       0 UNK        -0.1800 
      2 C           0.4344  -14.2296  -52.0258 C.2       0 UNK         0.5000 
      3 O           0.0838  -13.0492  -52.0060 O.2       0 UNK        -0.5000 
      4 N           1.0831  -14.8154  -51.0141 N.am      1 UNK        -0.5000 
      5 CA          1.3599  -14.2046  -49.7103 C.3       1 UNK         0.1400 
      6 C6          2.5386  -14.9104  -48.9866 C.3       23 UNK        -0.0398 
      7 S7          2.3987  -16.7317  -48.9142 S.3       23 UNK        -0.2404 
      8 C8          3.6716  -17.2186  -50.1218 C.3       23 UNK        -0.0205 
      9 C9          3.6181  -18.7130  -50.3852 C.ar      23 UNK        -0.0193 
     10 C10         2.9698  -19.2108  -51.5184 C.ar      23 UNK        -0.1150 
     11 C11         2.8609  -20.5891  -51.7296 C.ar      23 UNK        -0.0193 
     12 C12         3.4331  -21.4685  -50.8034 C.ar      23 UNK        -0.1150 
     13 C13         4.1148  -20.9816  -49.6823 C.ar      23 UNK        -0.0193 
     14 C14         4.2062  -19.6013  -49.4836 C.ar      23 UNK        -0.1150 
     15 C15         4.7468  -21.9484  -48.6860 C.3       23 UNK        -0.0205 
     16 S16         4.2603  -21.6167  -46.9583 S.3       23 UNK        -0.2404 
     17 C17         2.4511  -21.8086  -47.0472 C.3       23 UNK        -0.0398 
     18 CA          1.9705  -23.1199  -46.3859 C.3       11 UNK         0.1400 
     19 N           2.1206  -23.0640  -44.9338 N.am      11 UNK        -0.5000 
     20 C           2.3220  -24.1088  -44.1253 C.2       10 UNK         0.5000 
     21 O           2.4106  -25.2717  -44.5249 O.2       10 UNK        -0.5000 
     22 CA          2.4495  -23.7839  -42.6195 C.3       10 UNK         0.1400 
     23 CB          3.0390  -24.9434  -41.7898 C.3       10 UNK        -0.1800 
     24 N           3.1720  -22.5312  -42.3677 N.am      10 UNK        -0.5000 
     25 C           4.4488  -22.2383  -42.6584 C.2       9 UNK         0.5000 
     26 O           5.2541  -23.0530  -43.1106 O.2       9 UNK        -0.5000 
     27 CA          4.9125  -20.7843  -42.4167 C.3       9 UNK         0.1400 
     28 CB          5.1370  -20.0599  -43.7526 C.3       9 UNK        -0.1800 
     29 N           3.9775  -19.9923  -41.6148 N.am      9 UNK        -0.5000 
     30 C           3.8514  -20.0661  -40.2833 C.2       8 UNK         0.5000 
     31 O           4.5550  -20.7798  -39.5678 O.2       8 UNK        -0.5000 
     32 CA          2.7245  -19.2259  -39.6498 C.3       8 UNK         0.1400 
     33 CB          3.1989  -17.7917  -39.3708 C.3       8 UNK        -0.1800 
     34 N           1.5148  -19.1883  -40.4750 N.am      8 UNK        -0.5000 
     35 C           0.7486  -20.2556  -40.7440 C.2       7 UNK         0.5000 
     36 O           0.9505  -21.3782  -40.2812 O.2       7 UNK        -0.5000 
     37 CA         -0.4058  -20.0499  -41.7382 C.3       7 UNK         0.1400 
     38 CB         -1.6389  -19.4722  -41.0283 C.3       7 UNK        -0.1800 
     39 N          -0.0300  -19.1953  -42.8650 N.am      7 UNK        -0.5000 
     40 C           0.8847  -19.5206  -43.7893 C.2       6 UNK         0.5000 
     41 O           1.4931  -20.5874  -43.7972 O.2       6 UNK        -0.5000 
     42 CA          1.2042  -18.4745  -44.8694 C.3       6 UNK         0.1400 
     43 CB          0.1486  -18.5069  -45.9788 C.3       6 UNK        -0.1800 
     44 N           1.3093  -17.1219  -44.3338 N.am      6 UNK        -0.5000 
     45 C           2.2081  -16.7294  -43.4217 C.2       5 UNK         0.5000 
     46 O           3.0883  -17.4585  -42.9641 O.2       5 UNK        -0.5000 
     47 CA          2.0507  -15.2960  -42.8904 C.3       5 UNK         0.1400 
     48 CB          2.6433  -14.2744  -43.8737 C.3       5 UNK        -0.1800 
     49 N           0.6474  -14.9734  -42.6288 N.am      5 UNK        -0.5000 
     50 C          -0.0836  -15.5209  -41.6472 C.2       4 UNK         0.5000 
     51 O           0.3618  -16.3275  -40.8297 O.2       4 UNK        -0.5000 
     52 CA         -1.5714  -15.1263  -41.5981 C.3       4 UNK         0.1400 
     53 CB         -1.7509  -13.7678  -40.9042 C.3       4 UNK        -0.1800 
     54 N          -2.1860  -15.0791  -42.9270 N.am      4 UNK        -0.5000 
     55 C          -2.3996  -16.1571  -43.6944 C.2       3 UNK         0.5000 
     56 O          -2.1217  -17.3032  -43.3503 O.2       3 UNK        -0.5000 
     57 CA         -2.9815  -15.9176  -45.0993 C.3       3 UNK         0.1400 
     58 CB         -4.5164  -15.9119  -45.0572 C.3       3 UNK        -0.1800 
     59 N          -2.5019  -14.6917  -45.7431 N.am      3 UNK        -0.5000 
     60 C          -1.2184  -14.4320  -46.0255 C.2       2 UNK         0.5000 
     61 O          -0.2780  -15.1470  -45.6731 O.2       2 UNK        -0.5000 
     62 CA         -0.9344  -13.1331  -46.8008 C.3       2 UNK         0.1400 
     63 CB         -0.5427  -12.0118  -45.8261 C.3       2 UNK        -0.1800 
     64 N           0.1346  -13.3017  -47.7872 N.am      2 UNK        -0.5000 
     65 C           0.0881  -14.1398  -48.8331 C.2       1 UNK         0.5000 
     66 O          -0.8983  -14.8281  -49.1101 O.2       1 UNK        -0.5000 
     67 C           0.5047  -23.3802  -46.7763 C.2       11 UNK         0.5000 
     68 O          -0.4164  -22.9703  -46.0649 O.2       11 UNK        -0.5000 
     69 N           0.3222  -23.9853  -47.9590 N.am      12 UNK        -0.5000 
     70 CA         -0.9754  -24.2470  -48.5898 C.3       12 UNK         0.1400 
     71 CB         -0.7597  -25.1187  -49.8357 C.3       12 UNK        -0.1800 
     72 C          -1.7602  -22.9738  -48.9621 C.2       12 UNK         0.5000 
     73 O          -2.9856  -23.0333  -49.0535 O.2       12 UNK        -0.5000 
     74 N          -1.0565  -21.8431  -49.1260 N.am      13 UNK        -0.5000 
     75 CA         -1.6080  -20.5136  -49.4057 C.3       13 UNK         0.1400 
     76 CB         -0.4546  -19.4984  -49.4724 C.3       13 UNK        -0.1800 
     77 C          -2.6827  -20.0508  -48.3990 C.2       13 UNK         0.5000 
     78 O          -3.6260  -19.3675  -48.7942 O.2       13 UNK        -0.5000 
     79 N          -2.5549  -20.4674  -47.1298 N.am      14 UNK        -0.5000 
     80 CA         -3.5255  -20.1860  -46.0701 C.3       14 UNK         0.1400 
     81 CB         -2.9035  -20.5310  -44.7104 C.3       14 UNK        -0.1800 
     82 C          -4.8550  -20.9419  -46.2499 C.2       14 UNK         0.5000 
     83 O          -5.9053  -20.4112  -45.8879 O.2       14 UNK        -0.5000 
     84 N          -4.7860  -22.1622  -46.7981 N.am      15 UNK        -0.5000 
     85 CA         -5.9463  -23.0026  -47.0889 C.3       15 UNK         0.1400 
     86 CB         -5.5232  -24.4800  -47.0679 C.3       15 UNK        -0.1800 
     87 C          -6.5805  -22.6338  -48.4398 C.2       15 UNK         0.5000 
     88 O          -7.8067  -22.6221  -48.5520 O.2       15 UNK        -0.5000 
     89 N          -5.7328  -22.3364  -49.4342 N.am      16 UNK        -0.5000 
     90 CA         -6.1234  -21.9134  -50.7778 C.3       16 UNK         0.1400 
     91 CB         -4.8795  -21.9187  -51.6790 C.3       16 UNK        -0.1800 
     92 C          -6.8090  -20.5346  -50.7822 C.2       16 UNK         0.5000 
     93 O          -7.8474  -20.3722  -51.4255 O.2       16 UNK        -0.5000 
     94 N          -6.2358  -19.5829  -50.0295 N.am      17 UNK        -0.5000 
     95 CA         -6.6773  -18.1971  -49.8774 C.3       17 UNK         0.1400 
     96 CB         -7.9885  -18.1337  -49.0619 C.3       17 UNK        -0.1800 
     97 C          -6.7292  -17.4773  -51.2409 C.2       17 UNK         0.5000 
     98 O          -5.7011  -17.3983  -51.9131 O.2       17 UNK        -0.5000 
     99 N          -7.9055  -16.9730  -51.6318 N.am      18 UNK        -0.5000 
    100 CA        -8.1325  -16.2868  -52.9046 C.3       18 UNK         0.1400 
    101 CB        -9.3780  -15.3970  -52.7617 C.3       18 UNK        -0.1800 
    102 C         -8.2871  -17.2397  -54.1090 C.2       18 UNK         0.5000 
    103 O         -8.2305  -16.7710  -55.2473 O.2       18 UNK        -0.5000 
    104 N         -8.5080  -18.5360  -53.8564 N.am      19 UNK        -0.5000 
    105 CA        -8.6938  -19.5638  -54.8792 C.3       19 UNK         0.1400 
    106 CB        -9.7794  -20.5395  -54.3930 C.3       19 UNK        -0.1800 
    107 C         -7.3800  -20.3139  -55.1600 C.2       19 UNK         0.5000 
    108 O         -6.4320  -20.2187  -54.3785 O.2       19 UNK        -0.5000 
    109 N         -7.3754  -21.0784  -56.2624 N.am      20 UNK        -0.5000 
    110 CA        -6.3124  -21.9885  -56.7076 C.3       20 UNK         0.1400 
    111 CB        -6.2497  -23.2154  -55.7684 C.3       20 UNK        -0.1800 
    112 C         -4.9455  -21.2911  -56.9022 C.2       20 UNK         0.5000 
    113 O         -4.9024  -20.1045  -57.2378 O.2       20 UNK        -0.5000 
    114 N         -3.8522  -22.0402  -56.7143 N.am      21 UNK        -0.5000 
    115 CA        -2.4917  -21.5129  -56.6587 C.3       21 UNK         0.1400 
    116 CB        -1.4954  -22.6521  -56.9254 C.3       21 UNK        -0.1800 
    117 C         -2.2388  -20.8805  -55.2798 C.2       21 UNK         0.5000 
    118 O         -2.6069  -21.4809  -54.2691 O.2       21 UNK        -0.5000 
    119 N         -1.6203  -19.6933  -55.2821 N.am      22 UNK        -0.5000 
    120 CA        -1.2456  -18.8579  -54.1232 C.3       22 UNK         0.1400 
    121 C         -2.3581  -18.4803  -53.0945 C.2       22 UNK         0.5000 
    122 N         -3.6330  -18.7162  -53.3689 N.am      22 UNK        -0.7600 
    123 O         -2.0662  -17.8843  -52.0630 O.2       22 UNK        -0.5000 
    124 C124        0.1266  -19.2270  -53.4832 C.3       23 UNK        -0.0398 
    125 S125        0.3402  -20.9426  -52.8878 S.3       23 UNK        -0.2404 
    126 C126        2.1537  -21.1317  -52.9676 C.3       23 UNK        -0.0205 
    127 H127        0.6311  -16.0635  -53.1814 H         1 UNK         0.0600 
    128 H128        0.5007  -14.5952  -54.1519 H         1 UNK         0.0600 
    129 H129       -0.9288  -15.2526  -53.3454 H         1 UNK         0.0600 
    130 H130        1.2904  -15.8019  -51.0643 H         1 UNK         0.3000 
    131 H131        1.6648  -13.1712  -49.8899 H         1 UNK         0.0600 
    132 H132        3.4702  -14.6486  -49.4900 H         1 UNK         0.0800 
    133 H133        2.6550  -14.5371  -47.9677 H         1 UNK         0.0800 
    134 H134        4.6572  -16.9438  -49.7429 H         1 UNK         0.0800 
    135 H135        3.5307  -16.6654  -51.0517 H         1 UNK         0.0800 
    136 H136        2.5441  -18.5211  -52.2308 H         1 UNK         0.1150 
    137 H137        3.3573  -22.5350  -50.9624 H         1 UNK         0.1150 
    138 H138        4.7163  -19.2165  -48.6115 H         1 UNK         0.1150 
    139 H139        4.4904  -22.9805  -48.9296 H         1 UNK         0.0800 
    140 H140        5.8318  -21.8730  -48.7658 H         1 UNK         0.0800 
    141 H141        2.1405  -21.7588  -48.0910 H         1 UNK         0.0800 
    142 H142        1.9945  -20.9442  -46.5650 H         1 UNK         0.0800 
    143 H143        2.5730  -23.9455  -46.7717 H         1 UNK         0.0600 
    144 H144        1.9906  -22.1472  -44.5089 H         1 UNK         0.3000 
    145 H145        1.4319  -23.6146  -42.2647 H         1 UNK         0.0600 
    146 H146        3.1048  -24.6780  -40.7347 H         1 UNK         0.0600 
    147 H147        2.4112  -25.8322  -41.8616 H         1 UNK         0.0600 
    148 H148        4.0368  -25.2214  -42.1298 H         1 UNK         0.0600 
    149 H149        2.5965  -21.7683  -42.0364 H         1 UNK         0.3000 
    150 H150        5.8690  -20.8309  -41.8923 H         1 UNK         0.0600 
    151 H151        5.8538  -20.5961  -44.3757 H         1 UNK         0.0600 
    152 H152        5.5293  -19.0550  -43.5963 H         1 UNK         0.0600 
    153 H153        4.2098  -19.9714  -44.3195 H         1 UNK         0.0600 
    154 H154        3.3998  -19.3285  -42.1202 H         1 UNK         0.3000 
    155 H155        2.4639  -19.6878  -38.6953 H         1 UNK         0.0600 
    156 H156        4.0805  -17.7901  -38.7288 H         1 UNK         0.0600 
    157 H157        2.4260  -17.2128  -38.8648 H         1 UNK         0.0600 
    158 H158        3.4607  -17.2665  -40.2895 H         1 UNK         0.0600 
    159 H159        1.2588  -18.2907  -40.8711 H         1 UNK         0.3000 
    160 H160       -0.6758  -21.0292  -42.1394 H         1 UNK         0.0600 
    161 H161       -1.4556  -18.4626  -40.6596 H         1 UNK         0.0600 
    162 H162       -1.9242  -20.0884  -40.1748 H         1 UNK         0.0600 
    163 H163       -2.4966  -19.4330  -41.6994 H         1 UNK         0.0600 
    164 H164       -0.5500  -18.3283  -42.9671 H         1 UNK         0.3000 
    165 H165        2.1694  -18.7343  -45.3090 H         1 UNK         0.0600 
    166 H166        0.4400  -17.8784  -46.8201 H         1 UNK         0.0600 
    167 H167        0.0117  -19.5225  -46.3475 H         1 UNK         0.0600 
    168 H168       -0.8190  -18.1572  -45.6246 H         1 UNK         0.0600 
    169 H169        0.6489  -16.4366  -44.6938 H         1 UNK         0.3000 
    170 H170        2.6006  -15.2236  -41.9496 H         1 UNK         0.0600 
    171 H171        3.6996  -14.4776  -44.0538 H         1 UNK         0.0600 
    172 H172        2.1376  -14.2974  -44.8395 H         1 UNK         0.0600 
    173 H173        2.5697  -13.2604  -43.4808 H         1 UNK         0.0600 
    174 H174        0.1890  -14.3712  -43.2961 H         1 UNK         0.3000 
    175 H175       -2.0953  -15.8812  -41.0078 H         1 UNK         0.0600 
    176 H176       -1.3136  -13.7799  -39.9049 H         1 UNK         0.0600 
    177 H177       -1.2729  -12.9618  -41.4622 H         1 UNK         0.0600 
    178 H178       -2.8064  -13.5190  -40.7925 H         1 UNK         0.0600 
    179 H179       -2.4410  -14.1711  -43.2860 H         1 UNK         0.3000 
    180 H180       -2.6711  -16.7540  -45.7277 H         1 UNK         0.0600 
    181 H181       -4.8973  -16.8280  -44.6031 H         1 UNK         0.0600 
    182 H182       -4.9011  -15.0723  -44.4769 H         1 UNK         0.0600 
    183 H183       -4.9386  -15.8503  -46.0604 H         1 UNK         0.0600 
    184 H184       -3.2111  -14.0426  -46.0519 H         1 UNK         0.3000 
    185 H185       -1.8388  -12.8344  -47.3348 H         1 UNK         0.0600 
    186 H186       -1.3281  -11.8410  -45.0886 H         1 UNK         0.0600 
    187 H187        0.3717  -12.2520  -45.2818 H         1 UNK         0.0600 
    188 H188       -0.3830  -11.0698  -46.3512 H         1 UNK         0.0600 
    189 H189        0.9803  -12.7790  -47.6144 H         1 UNK         0.3000 
    190 H190        1.1314  -24.2908  -48.4805 H         1 UNK         0.3000 
    191 H191       -1.5858  -24.8078  -47.8789 H         1 UNK         0.0600 
    192 H192       -0.1373  -24.6150  -50.5766 H         1 UNK         0.0600 
    193 H193       -1.7105  -25.3573  -50.3146 H         1 UNK         0.0600 
    194 H194       -0.2811  -26.0640  -49.5792 H         1 UNK         0.0600 
    195 H195       -0.0528  -21.9029  -49.0637 H         1 UNK         0.3000 
    196 H196       -2.0795  -20.5516  -50.3893 H         1 UNK         0.0600 
    197 H197       -0.8271  -18.4761  -49.5553 H         1 UNK         0.0600 
    198 H198        0.1795  -19.6759  -50.3379 H         1 UNK         0.0600 
    199 H199        0.1869  -19.5477  -48.5957 H         1 UNK         0.0600 
    200 H200       -1.7764  -21.0652  -46.8872 H         1 UNK         0.3000 
    201 H201       -3.7462  -19.1165  -46.0826 H         1 UNK         0.0600 
    202 H202       -2.0184  -19.9286  -44.5255 H         1 UNK         0.0600 
    203 H203       -2.6137  -21.5808  -44.6500 H         1 UNK         0.0600 
    204 H204       -3.6020  -20.3318  -43.8967 H         1 UNK         0.0600 
    205 H205       -3.8917  -22.4976  -47.1303 H         1 UNK         0.3000 
    206 H206       -6.6995  -22.8582  -46.3112 H         1 UNK         0.0600 
    207 H207       -5.1103  -24.7573  -46.0979 H         1 UNK         0.0600 
    208 H208       -6.3774  -25.1316  -47.2560 H         1 UNK         0.0600 
    209 H209       -4.7713  -24.6990  -47.8268 H         1 UNK         0.0600 
    210 H210       -4.7354  -22.4368  -49.2641 H         1 UNK         0.3000 
    211 H211       -6.8327  -22.6450  -51.1700 H         1 UNK         0.0600 
    212 H212       -5.1418  -21.6955  -52.7119 H         1 UNK         0.0600 
    213 H213       -4.3883  -22.8918  -51.6756 H         1 UNK         0.0600 
    214 H214       -4.1482  -21.1745  -51.3639 H         1 UNK         0.0600 
    215 H215       -5.3507  -19.7904  -49.5760 H         1 UNK         0.3000 
    216 H216       -5.9039  -17.6922  -49.2970 H         1 UNK         0.0600 
    217 H217       -8.2813  -17.1018  -48.8647 H         1 UNK         0.0600 
    218 H218       -7.8629  -18.6194  -48.0938 H         1 UNK         0.0600 
    219 H219       -8.8177  -18.6277  -49.5695 H         1 UNK         0.0600 
    220 H220       -8.7093  -17.0978  -51.0339 H         1 UNK         0.3000 
    221 H221       -7.2774  -15.6395  -53.1109 H         1 UNK         0.0600 
    222 H222      -10.2714  -15.9865  -52.5519 H         1 UNK         0.0600 
    223 H223       -9.2556  -14.6725  -51.9564 H         1 UNK         0.0600 
    224 H224       -9.5645  -14.8335  -53.6770 H         1 UNK         0.0600 
    225 H225       -8.4238  -18.8752  -52.9050 H         1 UNK         0.3000 
    226 H226       -9.0352  -19.1087  -55.8113 H         1 UNK         0.0600 
    227 H227      -10.7114  -20.0164  -54.1781 H         1 UNK         0.0600 
    228 H228      -10.0002  -21.2945  -55.1483 H         1 UNK         0.0600 
    229 H229       -9.4738  -21.0638  -53.4870 H         1 UNK         0.0600 
    230 H230       -8.1914  -21.0546  -56.8572 H         1 UNK         0.3000 
    231 H231       -6.6122  -22.3425  -57.6948 H         1 UNK         0.0600 
    232 H232       -7.2413  -23.6414  -55.6142 H         1 UNK         0.0600 
    233 H233       -5.8468  -22.9544  -54.7889 H         1 UNK         0.0600 
    234 H234       -5.6286  -24.0088  -56.1850 H         1 UNK         0.0600 
    235 H235       -3.9708  -22.9919  -56.4001 H         1 UNK         0.3000 
    236 H236       -2.3667  -20.7573  -57.4375 H         1 UNK         0.0600 
    237 H237       -1.6599  -23.0991  -57.9059 H         1 UNK         0.0600 
    238 H238       -0.4689  -22.2838  -56.9029 H         1 UNK         0.0600 
    239 H239       -1.5761  -23.4421  -56.1774 H         1 UNK         0.0600 
    240 H240       -1.3887  -19.2904  -56.1786 H         1 UNK         0.3000 
    241 H241       -1.0679  -17.8891  -54.5919 H         1 UNK         0.0600 
    242 H242       -3.9080  -19.2512  -54.1772 H         1 UNK         0.3800 
    243 H243       -4.3474  -18.3679  -52.7345 H         1 UNK         0.3800 
    244 H244        0.9036  -19.0331  -54.2230 H         1 UNK         0.0800 
    245 H245        0.3455  -18.5538  -52.6545 H         1 UNK         0.0800 
    246 H246        2.3758  -22.1931  -53.0873 H         1 UNK         0.0800 
    247 H247        2.5474  -20.6457  -53.8610 H         1 UNK         0.0800 
@<TRIPOS>BOND
     1    1    2 1    
     2    1  127 1    
     3    1  128 1    
     4    1  129 1    
     5    2    3 2    
     6    2    4 am   BACKBONE|DICT|INTERRES
     7    4    5 1    
     8    4  130 1    
     9    5    6 1    
    10    5   65 1    
    11    5  131 1    
    12    6    7 1    
    13    6  132 1    
    14    6  133 1    
    15    7    8 1    
    16    8    9 1    
    17    8  134 1    
    18    8  135 1    
    19    9   10 ar   
    20    9   14 ar   
    21   10   11 ar   
    22   10  136 1    
    23   11   12 ar   
    24   11  126 1    
    25   12   13 ar   
    26   12  137 1    
    27   13   14 ar   
    28   13   15 1    
    29   14  138 1    
    30   15   16 1    
    31   15  139 1    
    32   15  140 1    
    33   16   17 1    
    34   17   18 1    
    35   17  141 1    
    36   17  142 1    
    37   18   19 1    
    38   18   67 1    
    39   18  143 1    
    40   19   20 am   BACKBONE|DICT|INTERRES
    41   19  144 1    
    42   20   21 2    
    43   20   22 1    
    44   22   23 1    
    45   22   24 1    
    46   22  145 1    
    47   23  146 1    
    48   23  147 1    
    49   23  148 1    
    50   24   25 am   BACKBONE|DICT|INTERRES
    51   24  149 1    
    52   25   26 2    
    53   25   27 1    
    54   27   28 1    
    55   27   29 1    
    56   27  150 1    
    57   28  151 1    
    58   28  152 1    
    59   28  153 1    
    60   29   30 am   BACKBONE|DICT|INTERRES
    61   29  154 1    
    62   30   31 2    
    63   30   32 1    
    64   32   33 1    
    65   32   34 1    
    66   32  155 1    
    67   33  156 1    
    68   33  157 1    
    69   33  158 1    
    70   34   35 am   BACKBONE|DICT|INTERRES
    71   34  159 1    
    72   35   36 2    
    73   35   37 1    
    74   37   38 1    
    75   37   39 1    
    76   37  160 1    
    77   38  161 1    
    78   38  162 1    
    79   38  163 1    
    80   39   40 am   BACKBONE|DICT|INTERRES
    81   39  164 1    
    82   40   41 2    
    83   40   42 1    
    84   42   43 1    
    85   42   44 1    
    86   42  165 1    
    87   43  166 1    
    88   43  167 1    
    89   43  168 1    
    90   44   45 am   BACKBONE|DICT|INTERRES
    91   44  169 1    
    92   45   46 2    
    93   45   47 1    
    94   47   48 1    
    95   47   49 1    
    96   47  170 1    
    97   48  171 1    
    98   48  172 1    
    99   48  173 1    
   100   49   50 am   BACKBONE|DICT|INTERRES
   101   49  174 1    
   102   50   51 2    
   103   50   52 1    
   104   52   53 1    
   105   52   54 1    
   106   52  175 1    
   107   53  176 1    
   108   53  177 1    
   109   53  178 1    
   110   54   55 am   BACKBONE|DICT|INTERRES
   111   54  179 1    
   112   55   56 2    
   113   55   57 1    
   114   57   58 1    
   115   57   59 1    
   116   57  180 1    
   117   58  181 1    
   118   58  182 1    
   119   58  183 1    
   120   59   60 am   BACKBONE|DICT|INTERRES
   121   59  184 1    
   122   60   61 2    
   123   60   62 1    
   124   62   63 1    
   125   62   64 1    
   126   62  185 1    
   127   63  186 1    
   128   63  187 1    
   129   63  188 1    
   130   64   65 am   BACKBONE|DICT|INTERRES
   131   64  189 1    
   132   65   66 2    
   133   67   68 2    
   134   67   69 am   BACKBONE|DICT|INTERRES
   135   69   70 1    
   136   69  190 1    
   137   70   71 1    
   138   70   72 1    
   139   70  191 1    
   140   71  192 1    
   141   71  193 1    
   142   71  194 1    
   143   72   73 2    
   144   72   74 am   BACKBONE|DICT|INTERRES
   145   74   75 1    
   146   74  195 1    
   147   75   76 1    
   148   75   77 1    
   149   75  196 1    
   150   76  197 1    
   151   76  198 1    
   152   76  199 1    
   153   77   78 2    
   154   77   79 am   BACKBONE|DICT|INTERRES
   155   79   80 1    
   156   79  200 1    
   157   80   81 1    
   158   80   82 1    
   159   80  201 1    
   160   81  202 1    
   161   81  203 1    
   162   81  204 1    
   163   82   83 2    
   164   82   84 am   BACKBONE|DICT|INTERRES
   165   84   85 1    
   166   84  205 1    
   167   85   86 1    
   168   85   87 1    
   169   85  206 1    
   170   86  207 1    
   171   86  208 1    
   172   86  209 1    
   173   87   88 2    
   174   87   89 am   BACKBONE|DICT|INTERRES
   175   89   90 1    
   176   89  210 1    
   177   90   91 1    
   178   90   92 1    
   179   90  211 1    
   180   91  212 1    
   181   91  213 1    
   182   91  214 1    
   183   92   93 2    
   184   92   94 am   BACKBONE|DICT|INTERRES
   185   94   95 1    
   186   94  215 1    
   187   95   96 1    
   188   95   97 1    
   189   95  216 1    
   190   96  217 1    
   191   96  218 1    
   192   96  219 1    
   193   97   98 2    
   194   97   99 am   BACKBONE|DICT|INTERRES
   195   99  100 1    
   196   99  220 1    
   197  100  101 1    
   198  100  102 1    
   199  100  221 1    
   200  101  222 1    
   201  101  223 1    
   202  101  224 1    
   203  102  103 2    
   204  102  104 am   BACKBONE|DICT|INTERRES
   205  104  105 1    
   206  104  225 1    
   207  105  106 1    
   208  105  107 1    
   209  105  226 1    
   210  106  227 1    
   211  106  228 1    
   212  106  229 1    
   213  107  108 2    
   214  107  109 am   BACKBONE|DICT|INTERRES
   215  109  110 1    
   216  109  230 1    
   217  110  111 1    
   218  110  112 1    
   219  110  231 1    
   220  111  232 1    
   221  111  233 1    
   222  111  234 1    
   223  112  113 2    
   224  112  114 am   BACKBONE|DICT|INTERRES
   225  114  115 1    
   226  114  235 1    
   227  115  116 1    
   228  115  117 1    
   229  115  236 1    
   230  116  237 1    
   231  116  238 1    
   232  116  239 1    
   233  117  118 2    
   234  117  119 am   BACKBONE|DICT|INTERRES
   235  119  120 1    
   236  119  240 1    
   237  120  121 1    
   238  120  124 1    
   239  120  241 1    
   240  121  122 am   BACKBONE|DICT|INTERRES
   241  121  123 2    
   242  122  242 1    
   243  122  243 1    
   244  124  125 1    
   245  124  244 1    
   246  124  245 1    
   247  125  126 1    
   248  126  246 1    
   249  126  247 1    
@<TRIPOS>SUBSTRUCTURE
     1 UNK         1 GROUP             0       ****    0 ROOT    
