@<TRIPOS>MOLECULE
3R540
247   249    1
SMALL
USER_CHARGES


@<TRIPOS>ATOM
      1 CA          6.8829  -13.4896  -48.6950 C.3       0 UNK        -0.1800 
      2 C           5.3632  -13.5063  -48.6102 C.2       0 UNK         0.5000 
      3 O           4.7559  -12.4665  -48.3541 O.2       0 UNK        -0.5000 
      4 N           4.7550  -14.6811  -48.8236 N.am      1 UNK        -0.5000 
      5 CA          3.3102  -14.9409  -48.7513 C.3       1 UNK         0.1400 
      6 C6          2.4812  -14.1808  -49.8315 C.3       23 UNK        -0.0398 
      7 S7          3.0867  -14.4893  -51.5306 S.3       23 UNK        -0.2404 
      8 C8          1.6089  -15.1560  -52.3781 C.3       23 UNK        -0.0205 
      9 C9          1.0694  -16.4799  -51.8344 C.ar      23 UNK        -0.0193 
     10 C10        -0.2725  -16.8040  -52.0605 C.ar      23 UNK        -0.1150 
     11 C11        -0.8149  -17.9971  -51.5730 C.ar      23 UNK        -0.0193 
     12 C12        -0.0046  -18.8754  -50.8503 C.ar      23 UNK        -0.1150 
     13 C13         1.3348  -18.5600  -50.6046 C.ar      23 UNK        -0.0193 
     14 C14         1.8717  -17.3805  -51.1238 C.ar      23 UNK        -0.1150 
     15 C15         2.2000  -19.4710  -49.7490 C.3       23 UNK        -0.0205 
     16 S16         2.3349  -18.8551  -48.0350 S.3       23 UNK        -0.2404 
     17 C17         0.6295  -19.0934  -47.4323 C.3       23 UNK        -0.0398 
     18 CA          0.3924  -20.5555  -46.9870 C.3       11 UNK         0.1400 
     19 N           0.8184  -20.7958  -45.6080 N.am      11 UNK        -0.5000 
     20 C           0.9378  -22.0072  -45.0503 C.2       10 UNK         0.5000 
     21 O           0.7338  -23.0588  -45.6557 O.2       10 UNK        -0.5000 
     22 CA          1.2936  -22.0507  -43.5536 C.3       10 UNK         0.1400 
     23 CB          2.7968  -21.8218  -43.3378 C.3       10 UNK        -0.1800 
     24 N           0.5252  -21.0832  -42.7688 N.am      10 UNK        -0.5000 
     25 C          -0.8086  -21.1121  -42.6325 C.2       9 UNK         0.5000 
     26 O          -1.5259  -21.9888  -43.1156 O.2       9 UNK        -0.5000 
     27 CA         -1.4562  -19.9424  -41.8698 C.3       9 UNK         0.1400 
     28 CB         -1.3227  -20.1378  -40.3523 C.3       9 UNK        -0.1800 
     29 N          -0.9053  -18.6412  -42.2524 N.am      9 UNK        -0.5000 
     30 C          -0.9930  -18.1108  -43.4812 C.2       8 UNK         0.5000 
     31 O          -1.5780  -18.6488  -44.4194 O.2       8 UNK        -0.5000 
     32 CA         -0.2607  -16.7801  -43.7212 C.3       8 UNK         0.1400 
     33 CB         -1.0582  -15.6048  -43.1362 C.3       8 UNK        -0.1800 
     34 N           1.0907  -16.7815  -43.1656 N.am      8 UNK        -0.5000 
     35 C           2.0732  -17.6187  -43.5278 C.2       7 UNK         0.5000 
     36 O           1.9616  -18.4652  -44.4121 O.2       7 UNK        -0.5000 
     37 CA          3.3755  -17.5427  -42.7138 C.3       7 UNK         0.1400 
     38 CB          4.2607  -16.3792  -43.1856 C.3       7 UNK        -0.1800 
     39 N           3.1092  -17.4150  -41.2808 N.am      7 UNK        -0.5000 
     40 C           2.5696  -18.3812  -40.5235 C.2       6 UNK         0.5000 
     41 O           2.2680  -19.4965  -40.9483 O.2       6 UNK        -0.5000 
     42 CA          2.2856  -18.0248  -39.0531 C.3       6 UNK         0.1400 
     43 CB          3.5541  -18.1825  -38.2017 C.3       6 UNK        -0.1800 
     44 N           1.7614  -16.6667  -38.8980 N.am      6 UNK        -0.5000 
     45 C           0.5551  -16.2706  -39.3279 C.2       5 UNK         0.5000 
     46 O          -0.2553  -17.0187  -39.8742 O.2       5 UNK        -0.5000 
     47 CA          0.2221  -14.7745  -39.1668 C.3       5 UNK         0.1400 
     48 CB         -0.3177  -14.4886  -37.7576 C.3       5 UNK        -0.1800 
     49 N           1.3590  -13.8888  -39.4446 N.am      5 UNK        -0.5000 
     50 C           1.9967  -13.8289  -40.6201 C.2       4 UNK         0.5000 
     51 O           1.7093  -14.5404  -41.5870 O.2       4 UNK        -0.5000 
     52 CA          3.1690  -12.8455  -40.7335 C.3       4 UNK         0.1400 
     53 CB          4.3970  -13.3540  -39.9571 C.3       4 UNK        -0.1800 
     54 N           3.4938  -12.7308  -42.1477 N.am      4 UNK        -0.5000 
     55 C           4.1246  -11.7275  -42.7610 C.2       3 UNK         0.5000 
     56 O           4.5720  -10.7395  -42.1775 O.2       3 UNK        -0.5000 
     57 CA          4.2842  -11.8537  -44.2898 C.3       3 UNK         0.1400 
     58 CB          5.7020  -12.3322  -44.6390 C.3       3 UNK        -0.1800 
     59 N           3.3177  -12.7691  -44.9058 N.am      3 UNK        -0.5000 
     60 C           2.0123  -12.5244  -45.0764 C.2       2 UNK         0.5000 
     61 O           1.4705  -11.4744  -44.7274 O.2       2 UNK        -0.5000 
     62 CA          1.1908  -13.6364  -45.7694 C.3       2 UNK         0.1400 
     63 CB         -0.2940  -13.2659  -45.9378 C.3       2 UNK        -0.1800 
     64 N           1.7335  -13.9866  -47.0847 N.am      2 UNK        -0.5000 
     65 C           2.8169  -14.7457  -47.2974 C.2       1 UNK         0.5000 
     66 O           3.4494  -15.2701  -46.3776 O.2       1 UNK        -0.5000 
     67 C          -1.0619  -20.9951  -47.2412 C.2       11 UNK         0.5000 
     68 O          -1.3266  -21.5847  -48.2875 O.2       11 UNK        -0.5000 
     69 N          -1.9689  -20.7491  -46.2860 N.am      12 UNK        -0.5000 
     70 CA         -3.3575  -21.2107  -46.3358 C.3       12 UNK         0.1400 
     71 CB         -4.1594  -20.5862  -45.1846 C.3       12 UNK        -0.1800 
     72 C          -3.4663  -22.7458  -46.3135 C.2       12 UNK         0.5000 
     73 O          -4.2427  -23.3090  -47.0856 O.2       12 UNK        -0.5000 
     74 N          -2.6543  -23.3965  -45.4682 N.am      13 UNK        -0.5000 
     75 CA         -2.5335  -24.8530  -45.3956 C.3       13 UNK         0.1400 
     76 CB         -1.6971  -25.2415  -44.1672 C.3       13 UNK        -0.1800 
     77 C          -1.9471  -25.4676  -46.6811 C.2       13 UNK         0.5000 
     78 O          -2.4238  -26.5148  -47.1183 O.2       13 UNK        -0.5000 
     79 N          -0.9491  -24.7972  -47.2750 N.am      14 UNK        -0.5000 
     80 CA         -0.3332  -25.1758  -48.5479 C.3       14 UNK         0.1400 
     81 CB          0.9530  -24.3632  -48.7634 C.3       14 UNK        -0.1800 
     82 C          -1.2897  -25.0120  -49.7439 C.2       14 UNK         0.5000 
     83 O          -1.3339  -25.8904  -50.6061 O.2       14 UNK        -0.5000 
     84 N          -2.0452  -23.9040  -49.7682 N.am      15 UNK        -0.5000 
     85 CA         -3.0739  -23.6176  -50.7703 C.3       15 UNK         0.1400 
     86 CB         -3.5209  -22.1529  -50.6446 C.3       15 UNK        -0.1800 
     87 C          -4.2844  -24.5626  -50.6653 C.2       15 UNK         0.5000 
     88 O          -4.8849  -24.8899  -51.6883 O.2       15 UNK        -0.5000 
     89 N          -4.6221  -24.9759  -49.4337 N.am      16 UNK        -0.5000 
     90 CA         -5.6264  -25.9831  -49.0669 C.3       16 UNK         0.1400 
     91 CB         -5.1530  -27.3818  -49.5130 C.3       16 UNK        -0.1800 
     92 C          -7.0559  -25.6639  -49.5582 C.2       16 UNK         0.5000 
     93 O          -7.8551  -26.5801  -49.7585 O.2       16 UNK        -0.5000 
     94 N          -7.3400  -24.3683  -49.7619 N.am      17 UNK        -0.5000 
     95 CA         -8.5638  -23.8036  -50.3419 C.3       17 UNK         0.1400 
     96 CB         -9.7734  -24.0410  -49.4133 C.3       17 UNK        -0.1800 
     97 C          -8.8293  -24.2499  -51.7997 C.2       17 UNK         0.5000 
     98 O          -9.9789  -24.2284  -52.2428 O.2       17 UNK        -0.5000 
     99 N          -7.7697  -24.6240  -52.5353 N.am      18 UNK        -0.5000 
    100 CA        -7.8405  -25.0531  -53.9368 C.3       18 UNK         0.1400 
    101 CB        -6.5706  -25.8452  -54.2849 C.3       18 UNK        -0.1800 
    102 C         -8.0369  -23.8899  -54.9314 C.2       18 UNK         0.5000 
    103 O         -8.3598  -24.1450  -56.0924 O.2       18 UNK        -0.5000 
    104 N         -7.8401  -22.6478  -54.4635 N.am      19 UNK        -0.5000 
    105 CA        -7.9245  -21.3908  -55.2088 C.3       19 UNK         0.1400 
    106 CB        -9.3671  -21.1239  -55.6956 C.3       19 UNK        -0.1800 
    107 C         -6.8477  -21.3184  -56.3098 C.2       19 UNK         0.5000 
    108 O         -5.6614  -21.3496  -55.9754 O.2       19 UNK        -0.5000 
    109 N         -7.2614  -21.1885  -57.5797 N.am      20 UNK        -0.5000 
    110 CA        -6.4200  -20.9765  -58.7625 C.3       20 UNK         0.1400 
    111 CB        -5.5707  -22.2317  -59.0675 C.3       20 UNK        -0.1800 
    112 C         -5.6075  -19.6746  -58.6111 C.2       20 UNK         0.5000 
    113 O         -6.2118  -18.6025  -58.5389 O.2       20 UNK        -0.5000 
    114 N         -4.2767  -19.7803  -58.4950 N.am      21 UNK        -0.5000 
    115 CA        -3.3645  -18.6672  -58.2103 C.3       21 UNK         0.1400 
    116 CB        -1.9172  -19.1777  -58.2805 C.3       21 UNK        -0.1800 
    117 C         -3.6277  -17.9773  -56.8539 C.2       21 UNK         0.5000 
    118 O         -3.3309  -16.7902  -56.7139 O.2       21 UNK        -0.5000 
    119 N         -4.2014  -18.7213  -55.9004 N.am      22 UNK        -0.5000 
    120 CA        -4.6652  -18.2280  -54.5952 C.3       22 UNK         0.1400 
    121 C         -6.1710  -17.8253  -54.5891 C.2       22 UNK         0.5000 
    122 N         -6.8777  -17.8186  -55.7147 N.am      22 UNK        -0.7600 
    123 O         -6.7145  -17.4944  -53.5394 O.2       22 UNK        -0.5000 
    124 C124       -4.3277  -19.2344  -53.4631 C.3       23 UNK        -0.0398 
    125 S125       -2.5255  -19.4069  -53.2300 S.3       23 UNK        -0.2404 
    126 C126       -2.2840  -18.3173  -51.7946 C.3       23 UNK        -0.0205 
    127 H127        7.2868  -14.4724  -48.9394 H         1 UNK         0.0600 
    128 H128        7.3085  -13.1746  -47.7423 H         1 UNK         0.0600 
    129 H129        7.2077  -12.7882  -49.4635 H         1 UNK         0.0600 
    130 H130        5.3233  -15.4963  -49.0035 H         1 UNK         0.3000 
    131 H131        3.1939  -16.0073  -48.9423 H         1 UNK         0.0600 
    132 H132        1.4315  -14.4738  -49.7777 H         1 UNK         0.0800 
    133 H133        2.5099  -13.1038  -49.6605 H         1 UNK         0.0800 
    134 H134        0.8263  -14.3964  -52.3427 H         1 UNK         0.0800 
    135 H135        1.8531  -15.2960  -53.4318 H         1 UNK         0.0800 
    136 H136       -0.9014  -16.1210  -52.6145 H         1 UNK         0.1150 
    137 H137       -0.4254  -19.7915  -50.4582 H         1 UNK         0.1150 
    138 H138        2.9144  -17.1624  -50.9480 H         1 UNK         0.1150 
    139 H139        1.8057  -20.4882  -49.7506 H         1 UNK         0.0800 
    140 H140        3.2000  -19.5335  -50.1805 H         1 UNK         0.0800 
    141 H141       -0.0656  -18.7809  -48.2100 H         1 UNK         0.0800 
    142 H142        0.4485  -18.4044  -46.6066 H         1 UNK         0.0800 
    143 H143        1.0013  -21.2083  -47.6150 H         1 UNK         0.0600 
    144 H144        1.0658  -19.9740  -45.0613 H         1 UNK         0.3000 
    145 H145        1.0474  -23.0483  -43.1842 H         1 UNK         0.0600 
    146 H146        3.0639  -21.9281  -42.2863 H         1 UNK         0.0600 
    147 H147        3.3865  -22.5476  -43.8989 H         1 UNK         0.0600 
    148 H148        3.1052  -20.8275  -43.6612 H         1 UNK         0.0600 
    149 H149        1.0524  -20.3490  -42.3065 H         1 UNK         0.3000 
    150 H150       -2.5198  -19.9364  -42.1167 H         1 UNK         0.0600 
    151 H151       -1.8602  -19.3618  -39.8071 H         1 UNK         0.0600 
    152 H152       -1.7370  -21.0985  -40.0439 H         1 UNK         0.0600 
    153 H153       -0.2810  -20.1103  -40.0318 H         1 UNK         0.0600 
    154 H154       -0.4449  -18.1098  -41.5196 H         1 UNK         0.3000 
    155 H155       -0.1737  -16.6324  -44.7995 H         1 UNK         0.0600 
    156 H156       -1.2325  -15.7265  -42.0672 H         1 UNK         0.0600 
    157 H157       -2.0318  -15.5166  -43.6196 H         1 UNK         0.0600 
    158 H158       -0.5354  -14.6597  -43.2766 H         1 UNK         0.0600 
    159 H159        1.2837  -16.0893  -42.4452 H         1 UNK         0.3000 
    160 H160        3.9262  -18.4722  -42.8731 H         1 UNK         0.0600 
    161 H161        3.7453  -15.4222  -43.1204 H         1 UNK         0.0600 
    162 H162        4.5556  -16.5190  -44.2261 H         1 UNK         0.0600 
    163 H163        5.1752  -16.3107  -42.5965 H         1 UNK         0.0600 
    164 H164        3.2796  -16.5128  -40.8642 H         1 UNK         0.3000 
    165 H165        1.5351  -18.7250  -38.6799 H         1 UNK         0.0600 
    166 H166        3.3445  -18.0066  -37.1464 H         1 UNK         0.0600 
    167 H167        3.9580  -19.1922  -38.2877 H         1 UNK         0.0600 
    168 H168        4.3371  -17.4882  -38.5091 H         1 UNK         0.0600 
    169 H169        2.3658  -15.9871  -38.4607 H         1 UNK         0.3000 
    170 H170       -0.5646  -14.5365  -39.8857 H         1 UNK         0.0600 
    171 H171       -1.1758  -15.1235  -37.5322 H         1 UNK         0.0600 
    172 H172        0.4365  -14.6714  -36.9913 H         1 UNK         0.0600 
    173 H173       -0.6481  -13.4539  -37.6643 H         1 UNK         0.0600 
    174 H174        1.6524  -13.2812  -38.6930 H         1 UNK         0.3000 
    175 H175        2.8519  -11.8741  -40.3491 H         1 UNK         0.0600 
    176 H176        4.7278  -14.3275  -40.3215 H         1 UNK         0.0600 
    177 H177        5.2351  -12.6630  -40.0481 H         1 UNK         0.0600 
    178 H178        4.1785  -13.4558  -38.8936 H         1 UNK         0.0600 
    179 H179        3.0949  -13.4712  -42.7104 H         1 UNK         0.3000 
    180 H180        4.1403  -10.8605  -44.7200 H         1 UNK         0.0600 
    181 H181        5.8901  -13.3394  -44.2645 H         1 UNK         0.0600 
    182 H182        6.4563  -11.6734  -44.2067 H         1 UNK         0.0600 
    183 H183        5.8598  -12.3396  -45.7171 H         1 UNK         0.0600 
    184 H184        3.6772  -13.6505  -45.2594 H         1 UNK         0.3000 
    185 H185        1.2416  -14.5145  -45.1228 H         1 UNK         0.0600 
    186 H186       -0.7453  -12.9936  -44.9832 H         1 UNK         0.0600 
    187 H187       -0.4234  -12.4189  -46.6125 H         1 UNK         0.0600 
    188 H188       -0.8654  -14.1043  -46.3368 H         1 UNK         0.0600 
    189 H189        1.2846  -13.5448  -47.8728 H         1 UNK         0.3000 
    190 H190       -1.7016  -20.1933  -45.4772 H         1 UNK         0.3000 
    191 H191       -3.7905  -20.8624  -47.2758 H         1 UNK         0.0600 
    192 H192       -4.1514  -19.4978  -45.2449 H         1 UNK         0.0600 
    193 H193       -5.2016  -20.9062  -45.2162 H         1 UNK         0.0600 
    194 H194       -3.7578  -20.8696  -44.2118 H         1 UNK         0.0600 
    195 H195       -2.0772  -22.8572  -44.8298 H         1 UNK         0.3000 
    196 H196       -3.5370  -25.2627  -45.2625 H         1 UNK         0.0600 
    197 H197       -1.6197  -26.3254  -44.0746 H         1 UNK         0.0600 
    198 H198       -2.1497  -24.8674  -43.2487 H         1 UNK         0.0600 
    199 H199       -0.6840  -24.8437  -44.2250 H         1 UNK         0.0600 
    200 H200       -0.5630  -23.9836  -46.8056 H         1 UNK         0.3000 
    201 H201       -0.0576  -26.2306  -48.4845 H         1 UNK         0.0600 
    202 H202        1.6568  -24.5133  -47.9446 H         1 UNK         0.0600 
    203 H203        0.7484  -23.2955  -48.8377 H         1 UNK         0.0600 
    204 H204        1.4546  -24.6650  -49.6836 H         1 UNK         0.0600 
    205 H205       -1.8903  -23.1891  -49.0612 H         1 UNK         0.3000 
    206 H206       -2.6311  -23.7544  -51.7589 H         1 UNK         0.0600 
    207 H207       -2.6802  -21.4735  -50.7858 H         1 UNK         0.0600 
    208 H208       -4.2684  -21.9044  -51.3989 H         1 UNK         0.0600 
    209 H209       -3.9555  -21.9466  -49.6660 H         1 UNK         0.0600 
    210 H210       -4.1330  -24.5569  -48.6487 H         1 UNK         0.3000 
    211 H211       -5.6719  -25.9796  -47.9771 H         1 UNK         0.0600 
    212 H212       -5.1431  -27.4758  -50.5995 H         1 UNK         0.0600 
    213 H213       -5.8051  -28.1630  -49.1209 H         1 UNK         0.0600 
    214 H214       -4.1463  -27.5901  -49.1502 H         1 UNK         0.0600 
    215 H215       -6.6061  -23.7046  -49.5578 H         1 UNK         0.3000 
    216 H216       -8.3998  -22.7263  -50.3902 H         1 UNK         0.0600 
    217 H217      -10.6457  -23.4830  -49.7555 H         1 UNK         0.0600 
    218 H218       -9.5602  -23.7126  -48.3961 H         1 UNK         0.0600 
    219 H219      -10.0555  -25.0934  -49.3744 H         1 UNK         0.0600 
    220 H220       -6.8482  -24.6443  -52.1083 H         1 UNK         0.3000 
    221 H221       -8.6951  -25.7238  -54.0471 H         1 UNK         0.0600 
    222 H222       -5.6823  -25.2133  -54.2524 H         1 UNK         0.0600 
    223 H223       -6.4188  -26.6746  -53.5936 H         1 UNK         0.0600 
    224 H224       -6.6352  -26.2659  -55.2891 H         1 UNK         0.0600 
    225 H225       -7.5374  -22.5659  -53.5044 H         1 UNK         0.3000 
    226 H226       -7.6755  -20.6018  -54.4979 H         1 UNK         0.0600 
    227 H227      -10.0660  -21.1384  -54.8591 H         1 UNK         0.0600 
    228 H228       -9.4481  -20.1404  -56.1604 H         1 UNK         0.0600 
    229 H229       -9.7082  -21.8643  -56.4196 H         1 UNK         0.0600 
    230 H230       -8.2572  -21.1567  -57.7458 H         1 UNK         0.3000 
    231 H231       -7.0950  -20.8210  -59.6053 H         1 UNK         0.0600 
    232 H232       -4.8776  -22.4760  -58.2621 H         1 UNK         0.0600 
    233 H233       -4.9881  -22.0987  -59.9800 H         1 UNK         0.0600 
    234 H234       -6.2100  -23.1012  -59.2209 H         1 UNK         0.0600 
    235 H235       -3.8655  -20.7018  -58.5315 H         1 UNK         0.3000 
    236 H236       -3.5022  -17.9165  -58.9912 H         1 UNK         0.0600 
    237 H237       -1.6920  -19.5952  -59.2621 H         1 UNK         0.0600 
    238 H238       -1.2083  -18.3679  -58.1026 H         1 UNK         0.0600 
    239 H239       -1.7273  -19.9496  -57.5336 H         1 UNK         0.0600 
    240 H240       -4.4387  -19.6856  -56.1069 H         1 UNK         0.3000 
    241 H241       -4.1362  -17.3019  -54.3634 H         1 UNK         0.0600 
    242 H242       -6.4584  -18.0448  -56.6094 H         1 UNK         0.3800 
    243 H243       -7.8416  -17.5276  -55.6814 H         1 UNK         0.3800 
    244 H244       -4.7741  -18.9308  -52.5146 H         1 UNK         0.0800 
    245 H245       -4.7446  -20.2171  -53.6873 H         1 UNK         0.0800 
    246 H246       -2.8453  -17.3929  -51.9402 H         1 UNK         0.0800 
    247 H247       -2.6999  -18.7935  -50.9052 H         1 UNK         0.0800 
@<TRIPOS>BOND
     1    1    2 1    
     2    1  127 1    
     3    1  128 1    
     4    1  129 1    
     5    2    3 2    
     6    2    4 am   BACKBONE|DICT|INTERRES
     7    4    5 1    
     8    4  130 1    
     9    5    6 1    
    10    5   65 1    
    11    5  131 1    
    12    6    7 1    
    13    6  132 1    
    14    6  133 1    
    15    7    8 1    
    16    8    9 1    
    17    8  134 1    
    18    8  135 1    
    19    9   10 ar   
    20    9   14 ar   
    21   10   11 ar   
    22   10  136 1    
    23   11   12 ar   
    24   11  126 1    
    25   12   13 ar   
    26   12  137 1    
    27   13   14 ar   
    28   13   15 1    
    29   14  138 1    
    30   15   16 1    
    31   15  139 1    
    32   15  140 1    
    33   16   17 1    
    34   17   18 1    
    35   17  141 1    
    36   17  142 1    
    37   18   19 1    
    38   18   67 1    
    39   18  143 1    
    40   19   20 am   BACKBONE|DICT|INTERRES
    41   19  144 1    
    42   20   21 2    
    43   20   22 1    
    44   22   23 1    
    45   22   24 1    
    46   22  145 1    
    47   23  146 1    
    48   23  147 1    
    49   23  148 1    
    50   24   25 am   BACKBONE|DICT|INTERRES
    51   24  149 1    
    52   25   26 2    
    53   25   27 1    
    54   27   28 1    
    55   27   29 1    
    56   27  150 1    
    57   28  151 1    
    58   28  152 1    
    59   28  153 1    
    60   29   30 am   BACKBONE|DICT|INTERRES
    61   29  154 1    
    62   30   31 2    
    63   30   32 1    
    64   32   33 1    
    65   32   34 1    
    66   32  155 1    
    67   33  156 1    
    68   33  157 1    
    69   33  158 1    
    70   34   35 am   BACKBONE|DICT|INTERRES
    71   34  159 1    
    72   35   36 2    
    73   35   37 1    
    74   37   38 1    
    75   37   39 1    
    76   37  160 1    
    77   38  161 1    
    78   38  162 1    
    79   38  163 1    
    80   39   40 am   BACKBONE|DICT|INTERRES
    81   39  164 1    
    82   40   41 2    
    83   40   42 1    
    84   42   43 1    
    85   42   44 1    
    86   42  165 1    
    87   43  166 1    
    88   43  167 1    
    89   43  168 1    
    90   44   45 am   BACKBONE|DICT|INTERRES
    91   44  169 1    
    92   45   46 2    
    93   45   47 1    
    94   47   48 1    
    95   47   49 1    
    96   47  170 1    
    97   48  171 1    
    98   48  172 1    
    99   48  173 1    
   100   49   50 am   BACKBONE|DICT|INTERRES
   101   49  174 1    
   102   50   51 2    
   103   50   52 1    
   104   52   53 1    
   105   52   54 1    
   106   52  175 1    
   107   53  176 1    
   108   53  177 1    
   109   53  178 1    
   110   54   55 am   BACKBONE|DICT|INTERRES
   111   54  179 1    
   112   55   56 2    
   113   55   57 1    
   114   57   58 1    
   115   57   59 1    
   116   57  180 1    
   117   58  181 1    
   118   58  182 1    
   119   58  183 1    
   120   59   60 am   BACKBONE|DICT|INTERRES
   121   59  184 1    
   122   60   61 2    
   123   60   62 1    
   124   62   63 1    
   125   62   64 1    
   126   62  185 1    
   127   63  186 1    
   128   63  187 1    
   129   63  188 1    
   130   64   65 am   BACKBONE|DICT|INTERRES
   131   64  189 1    
   132   65   66 2    
   133   67   68 2    
   134   67   69 am   BACKBONE|DICT|INTERRES
   135   69   70 1    
   136   69  190 1    
   137   70   71 1    
   138   70   72 1    
   139   70  191 1    
   140   71  192 1    
   141   71  193 1    
   142   71  194 1    
   143   72   73 2    
   144   72   74 am   BACKBONE|DICT|INTERRES
   145   74   75 1    
   146   74  195 1    
   147   75   76 1    
   148   75   77 1    
   149   75  196 1    
   150   76  197 1    
   151   76  198 1    
   152   76  199 1    
   153   77   78 2    
   154   77   79 am   BACKBONE|DICT|INTERRES
   155   79   80 1    
   156   79  200 1    
   157   80   81 1    
   158   80   82 1    
   159   80  201 1    
   160   81  202 1    
   161   81  203 1    
   162   81  204 1    
   163   82   83 2    
   164   82   84 am   BACKBONE|DICT|INTERRES
   165   84   85 1    
   166   84  205 1    
   167   85   86 1    
   168   85   87 1    
   169   85  206 1    
   170   86  207 1    
   171   86  208 1    
   172   86  209 1    
   173   87   88 2    
   174   87   89 am   BACKBONE|DICT|INTERRES
   175   89   90 1    
   176   89  210 1    
   177   90   91 1    
   178   90   92 1    
   179   90  211 1    
   180   91  212 1    
   181   91  213 1    
   182   91  214 1    
   183   92   93 2    
   184   92   94 am   BACKBONE|DICT|INTERRES
   185   94   95 1    
   186   94  215 1    
   187   95   96 1    
   188   95   97 1    
   189   95  216 1    
   190   96  217 1    
   191   96  218 1    
   192   96  219 1    
   193   97   98 2    
   194   97   99 am   BACKBONE|DICT|INTERRES
   195   99  100 1    
   196   99  220 1    
   197  100  101 1    
   198  100  102 1    
   199  100  221 1    
   200  101  222 1    
   201  101  223 1    
   202  101  224 1    
   203  102  103 2    
   204  102  104 am   BACKBONE|DICT|INTERRES
   205  104  105 1    
   206  104  225 1    
   207  105  106 1    
   208  105  107 1    
   209  105  226 1    
   210  106  227 1    
   211  106  228 1    
   212  106  229 1    
   213  107  108 2    
   214  107  109 am   BACKBONE|DICT|INTERRES
   215  109  110 1    
   216  109  230 1    
   217  110  111 1    
   218  110  112 1    
   219  110  231 1    
   220  111  232 1    
   221  111  233 1    
   222  111  234 1    
   223  112  113 2    
   224  112  114 am   BACKBONE|DICT|INTERRES
   225  114  115 1    
   226  114  235 1    
   227  115  116 1    
   228  115  117 1    
   229  115  236 1    
   230  116  237 1    
   231  116  238 1    
   232  116  239 1    
   233  117  118 2    
   234  117  119 am   BACKBONE|DICT|INTERRES
   235  119  120 1    
   236  119  240 1    
   237  120  121 1    
   238  120  124 1    
   239  120  241 1    
   240  121  122 am   BACKBONE|DICT|INTERRES
   241  121  123 2    
   242  122  242 1    
   243  122  243 1    
   244  124  125 1    
   245  124  244 1    
   246  124  245 1    
   247  125  126 1    
   248  126  246 1    
   249  126  247 1    
@<TRIPOS>SUBSTRUCTURE
     1 UNK         1 GROUP             0       ****    0 ROOT    
