@<TRIPOS>MOLECULE
3R540
247   249    1
SMALL
USER_CHARGES


@<TRIPOS>ATOM
      1 CA          5.8273  -13.9634  -44.4423 C.3       0 UNK        -0.1800 
      2 C           5.0406  -13.6736  -45.7123 C.2       0 UNK         0.5000 
      3 O           5.6094  -13.1777  -46.6852 O.2       0 UNK        -0.5000 
      4 N           3.7349  -13.9699  -45.6995 N.am      1 UNK        -0.5000 
      5 CA          2.7552  -13.8264  -46.7857 C.3       1 UNK         0.1400 
      6 C6          3.1348  -14.5248  -48.1198 C.3       23 UNK        -0.0398 
      7 S7          3.5368  -16.2934  -47.9179 S.3       23 UNK        -0.2404 
      8 C8          3.7771  -16.7885  -49.6526 C.3       23 UNK        -0.0205 
      9 C9          2.6647  -17.7040  -50.1421 C.ar      23 UNK        -0.0193 
     10 C10         1.5351  -17.1819  -50.7789 C.ar      23 UNK        -0.1150 
     11 C11         0.5398  -18.0339  -51.2695 C.ar      23 UNK        -0.0193 
     12 C12         0.6759  -19.4158  -51.1021 C.ar      23 UNK        -0.1150 
     13 C13         1.8022  -19.9559  -50.4722 C.ar      23 UNK        -0.0193 
     14 C14         2.7934  -19.0876  -49.9973 C.ar      23 UNK        -0.1150 
     15 C15         1.9361  -21.4780  -50.3797 C.3       23 UNK        -0.0205 
     16 S16         3.0207  -22.1017  -49.0443 S.3       23 UNK        -0.2404 
     17 C17         2.1136  -21.5479  -47.5608 C.3       23 UNK        -0.0398 
     18 CA          1.3118  -22.6606  -46.8437 C.3       11 UNK         0.1400 
     19 N           0.7311  -22.1691  -45.5933 N.am      11 UNK        -0.5000 
     20 C           0.0594  -22.9114  -44.7019 C.2       10 UNK         0.5000 
     21 O          -0.0857  -24.1308  -44.7921 O.2       10 UNK        -0.5000 
     22 CA         -0.6077  -22.1514  -43.5418 C.3       10 UNK         0.1400 
     23 CB          0.4166  -21.8199  -42.4466 C.3       10 UNK        -0.1800 
     24 N          -1.2742  -20.9246  -43.9854 N.am      10 UNK        -0.5000 
     25 C          -2.3204  -20.8920  -44.8250 C.2       9 UNK         0.5000 
     26 O          -2.8640  -21.9001  -45.2744 O.2       9 UNK        -0.5000 
     27 CA         -2.8152  -19.5050  -45.2748 C.3       9 UNK         0.1400 
     28 CB         -3.6749  -18.8471  -44.1857 C.3       9 UNK        -0.1800 
     29 N          -1.7173  -18.6110  -45.6387 N.am      9 UNK        -0.5000 
     30 C          -0.8713  -18.8190  -46.6572 C.2       8 UNK         0.5000 
     31 O          -0.9516  -19.7686  -47.4340 O.2       8 UNK        -0.5000 
     32 CA          0.2890  -17.8219  -46.7992 C.3       8 UNK         0.1400 
     33 CB         -0.1820  -16.5473  -47.5107 C.3       8 UNK        -0.1800 
     34 N           0.8773  -17.4844  -45.5030 N.am      8 UNK        -0.5000 
     35 C           1.5606  -18.3481  -44.7380 C.2       7 UNK         0.5000 
     36 O           1.7935  -19.5126  -45.0593 O.2       7 UNK        -0.5000 
     37 CA          2.0126  -17.8406  -43.3580 C.3       7 UNK         0.1400 
     38 CB          3.3324  -17.0643  -43.4714 C.3       7 UNK        -0.1800 
     39 N           0.9954  -17.0004  -42.7246 N.am      7 UNK        -0.5000 
     40 C          -0.1784  -17.4658  -42.2681 C.2       6 UNK         0.5000 
     41 O          -0.4965  -18.6541  -42.2969 O.2       6 UNK        -0.5000 
     42 CA         -1.1901  -16.4302  -41.7390 C.3       6 UNK         0.1400 
     43 CB         -0.9705  -16.1804  -40.2400 C.3       6 UNK        -0.1800 
     44 N          -1.1309  -15.1551  -42.4537 N.am      6 UNK        -0.5000 
     45 C          -1.3431  -15.0003  -43.7680 C.2       5 UNK         0.5000 
     46 O          -1.7102  -15.9144  -44.5055 O.2       5 UNK        -0.5000 
     47 CA         -1.0457  -13.6143  -44.3722 C.3       5 UNK         0.1400 
     48 CB         -2.3502  -12.8505  -44.6389 C.3       5 UNK        -0.1800 
     49 N          -0.1630  -12.7775  -43.5537 N.am      5 UNK        -0.5000 
     50 C           1.1082  -13.0491  -43.2318 C.2       4 UNK         0.5000 
     51 O           1.6864  -14.0870  -43.5653 O.2       4 UNK        -0.5000 
     52 CA          1.8412  -11.9708  -42.4070 C.3       4 UNK         0.1400 
     53 CB          3.2696  -12.3908  -42.0220 C.3       4 UNK        -0.1800 
     54 N           1.9088  -10.7030  -43.1315 N.am      4 UNK        -0.5000 
     55 C           0.9196   -9.8159  -43.2881 C.2       3 UNK         0.5000 
     56 O          -0.1883   -9.9407  -42.7641 O.2       3 UNK        -0.5000 
     57 CA          1.1885   -8.6217  -44.2274 C.3       3 UNK         0.1400 
     58 CB          2.0300   -7.5337  -43.5330 C.3       3 UNK        -0.1800 
     59 N           1.7558   -9.0131  -45.5276 N.am      3 UNK        -0.5000 
     60 C           2.9595   -9.5394  -45.7913 C.2       2 UNK         0.5000 
     61 O           3.8392   -9.7174  -44.9453 O.2       2 UNK        -0.5000 
     62 CA          3.1932  -10.0292  -47.2292 C.3       2 UNK         0.1400 
     63 CB          4.4520   -9.3951  -47.8411 C.3       2 UNK        -0.1800 
     64 N           3.3453  -11.4808  -47.2131 N.am      2 UNK        -0.5000 
     65 C           2.3531  -12.3563  -47.0111 C.2       1 UNK         0.5000 
     66 O           1.1644  -12.0388  -46.9638 O.2       1 UNK        -0.5000 
     67 C           0.2321  -23.2826  -47.7521 C.2       11 UNK         0.5000 
     68 O           0.3944  -24.4198  -48.1928 O.2       11 UNK        -0.5000 
     69 N          -0.8646  -22.5475  -47.9814 N.am      12 UNK        -0.5000 
     70 CA         -2.0040  -22.9886  -48.7816 C.3       12 UNK         0.1400 
     71 CB         -3.0032  -21.8382  -48.9386 C.3       12 UNK        -0.1800 
     72 C          -2.6991  -24.2367  -48.2180 C.2       12 UNK         0.5000 
     73 O          -3.0459  -25.1253  -48.9940 O.2       12 UNK        -0.5000 
     74 N          -2.8552  -24.3040  -46.8892 N.am      13 UNK        -0.5000 
     75 CA         -3.3989  -25.4616  -46.1796 C.3       13 UNK         0.1400 
     76 CB         -3.6213  -25.1058  -44.7019 C.3       13 UNK        -0.1800 
     77 C          -2.5110  -26.7122  -46.3160 C.2       13 UNK         0.5000 
     78 O          -3.0359  -27.8018  -46.5471 O.2       13 UNK        -0.5000 
     79 N          -1.1876  -26.5313  -46.2021 N.am      14 UNK        -0.5000 
     80 CA         -0.1895  -27.5884  -46.3725 C.3       14 UNK         0.1400 
     81 CB          1.1745  -27.0903  -45.8705 C.3       14 UNK        -0.1800 
     82 C          -0.0901  -28.0858  -47.8272 C.2       14 UNK         0.5000 
     83 O           0.0004  -29.2932  -48.0529 O.2       14 UNK        -0.5000 
     84 N          -0.1217  -27.1500  -48.7849 N.am      15 UNK        -0.5000 
     85 CA         -0.0668  -27.4194  -50.2233 C.3       15 UNK         0.1400 
     86 CB          0.3139  -26.1207  -50.9528 C.3       15 UNK        -0.1800 
     87 C          -1.3818  -27.9788  -50.8008 C.2       15 UNK         0.5000 
     88 O          -1.3574  -28.5551  -51.8890 O.2       15 UNK        -0.5000 
     89 N          -2.4963  -27.7694  -50.0845 N.am      16 UNK        -0.5000 
     90 CA         -3.8838  -28.0043  -50.4983 C.3       16 UNK         0.1400 
     91 CB         -4.1594  -29.5061  -50.7214 C.3       16 UNK        -0.1800 
     92 C          -4.2759  -27.1162  -51.6997 C.2       16 UNK         0.5000 
     93 O          -4.8975  -27.5878  -52.6544 O.2       16 UNK        -0.5000 
     94 N          -3.8730  -25.8410  -51.6317 N.am      17 UNK        -0.5000 
     95 CA         -4.1407  -24.8169  -52.6383 C.3       17 UNK         0.1400 
     96 CB         -3.1250  -23.6757  -52.4707 C.3       17 UNK        -0.1800 
     97 C          -5.5800  -24.2805  -52.5354 C.2       17 UNK         0.5000 
     98 O          -6.2108  -24.3764  -51.4790 O.2       17 UNK        -0.5000 
     99 N          -6.0640  -23.7086  -53.6427 N.am      18 UNK        -0.5000 
    100 CA        -7.3857  -23.0962  -53.7539 C.3       18 UNK         0.1400 
    101 CB        -7.7191  -22.9310  -55.2458 C.3       18 UNK        -0.1800 
    102 C         -7.4585  -21.7306  -53.0478 C.2       18 UNK         0.5000 
    103 O         -6.4377  -21.0557  -52.8801 O.2       18 UNK        -0.5000 
    104 N         -8.6871  -21.3032  -52.7282 N.am      19 UNK        -0.5000 
    105 CA        -9.0033  -19.9721  -52.1955 C.3       19 UNK         0.1400 
    106 CB       -10.4791  -19.9417  -51.7703 C.3       19 UNK        -0.1800 
    107 C         -8.7021  -18.8274  -53.1866 C.2       19 UNK         0.5000 
    108 O         -8.5044  -17.6900  -52.7601 O.2       19 UNK        -0.5000 
    109 N         -8.6460  -19.1567  -54.4858 N.am      20 UNK        -0.5000 
    110 CA        -8.2201  -18.2719  -55.5710 C.3       20 UNK         0.1400 
    111 CB        -8.5718  -18.9328  -56.9129 C.3       20 UNK        -0.1800 
    112 C         -6.7181  -17.9208  -55.5202 C.2       20 UNK         0.5000 
    113 O         -6.3267  -16.8926  -56.0743 O.2       20 UNK        -0.5000 
    114 N         -5.9122  -18.7666  -54.8613 N.am      21 UNK        -0.5000 
    115 CA        -4.5168  -18.5011  -54.5296 C.3       21 UNK         0.1400 
    116 CB        -3.7103  -19.8137  -54.6151 C.3       21 UNK        -0.1800 
    117 C         -4.4804  -17.8281  -53.1456 C.2       21 UNK         0.5000 
    118 O         -4.7454  -16.6282  -53.0572 O.2       21 UNK        -0.5000 
    119 N         -4.1803  -18.6053  -52.0990 N.am      22 UNK        -0.5000 
    120 CA        -4.1576  -18.1661  -50.6931 C.3       22 UNK         0.1400 
    121 C         -5.0040  -19.0774  -49.7569 C.2       22 UNK         0.5000 
    122 N         -5.7379  -20.0676  -50.2531 N.am      22 UNK        -0.7600 
    123 O         -5.0156  -18.8725  -48.5467 O.2       22 UNK        -0.5000 
    124 C124       -2.7085  -17.9742  -50.1646 C.3       23 UNK        -0.0398 
    125 S125       -1.8351  -16.5932  -50.9795 S.3       23 UNK        -0.2404 
    126 C126       -0.6445  -17.4663  -52.0428 C.3       23 UNK        -0.0205 
    127 H127        6.6789  -14.6050  -44.6680 H         1 UNK         0.0600 
    128 H128        5.2160  -14.4656  -43.6920 H         1 UNK         0.0600 
    129 H129        6.2025  -13.0344  -44.0130 H         1 UNK         0.0600 
    130 H130        3.3203  -14.2915  -44.8320 H         1 UNK         0.3000 
    131 H131        1.8621  -14.3224  -46.4053 H         1 UNK         0.0600 
    132 H132        2.3098  -14.4458  -48.8301 H         1 UNK         0.0800 
    133 H133        3.9872  -14.0311  -48.5887 H         1 UNK         0.0800 
    134 H134        4.7375  -17.2994  -49.7363 H         1 UNK         0.0800 
    135 H135        3.8520  -15.9112  -50.2967 H         1 UNK         0.0800 
    136 H136        1.4380  -16.1136  -50.9117 H         1 UNK         0.1150 
    137 H137       -0.0849  -20.0776  -51.4917 H         1 UNK         0.1150 
    138 H138        3.6817  -19.4812  -49.5253 H         1 UNK         0.1150 
    139 H139        0.9493  -21.9286  -50.2672 H         1 UNK         0.0800 
    140 H140        2.3281  -21.8402  -51.3307 H         1 UNK         0.0800 
    141 H141        1.4662  -20.7099  -47.8166 H         1 UNK         0.0800 
    142 H142        2.8579  -21.1424  -46.8748 H         1 UNK         0.0800 
    143 H143        2.0096  -23.4573  -46.5772 H         1 UNK         0.0600 
    144 H144        0.8446  -21.1762  -45.4107 H         1 UNK         0.3000 
    145 H145       -1.3670  -22.8062  -43.1094 H         1 UNK         0.0600 
    146 H146       -0.0657  -21.3619  -41.5829 H         1 UNK         0.0600 
    147 H147        0.9213  -22.7214  -42.0973 H         1 UNK         0.0600 
    148 H148        1.1823  -21.1315  -42.8055 H         1 UNK         0.0600 
    149 H149       -0.9133  -20.0517  -43.6121 H         1 UNK         0.3000 
    150 H150       -3.4374  -19.6430  -46.1616 H         1 UNK         0.0600 
    151 H151       -4.5307  -19.4746  -43.9340 H         1 UNK         0.0600 
    152 H152       -4.0627  -17.8841  -44.5184 H         1 UNK         0.0600 
    153 H153       -3.1085  -18.6813  -43.2694 H         1 UNK         0.0600 
    154 H154       -1.6100  -17.7660  -45.0852 H         1 UNK         0.3000 
    155 H155        1.0645  -18.2852  -47.4128 H         1 UNK         0.0600 
    156 H156       -1.0276  -16.0766  -47.0104 H         1 UNK         0.0600 
    157 H157        0.6134  -15.8127  -47.5913 H         1 UNK         0.0600 
    158 H158       -0.4920  -16.7837  -48.5249 H         1 UNK         0.0600 
    159 H159        0.6838  -16.5643  -45.1382 H         1 UNK         0.3000 
    160 H160        2.1839  -18.7092  -42.7186 H         1 UNK         0.0600 
    161 H161        3.2397  -16.2143  -44.1452 H         1 UNK         0.0600 
    162 H162        4.1258  -17.7026  -43.8620 H         1 UNK         0.0600 
    163 H163        3.6599  -16.6916  -42.5008 H         1 UNK         0.0600 
    164 H164        1.1722  -16.0029  -42.7128 H         1 UNK         0.3000 
    165 H165       -2.1914  -16.8432  -41.8759 H         1 UNK         0.0600 
    166 H166       -1.7292  -15.5097  -39.8362 H         1 UNK         0.0600 
    167 H167       -1.0297  -17.1127  -39.6766 H         1 UNK         0.0600 
    168 H168        0.0077  -15.7395  -40.0439 H         1 UNK         0.0600 
    169 H169       -0.8395  -14.3485  -41.9224 H         1 UNK         0.3000 
    170 H170       -0.5466  -13.7820  -45.3288 H         1 UNK         0.0600 
    171 H171       -3.0225  -13.4320  -45.2714 H         1 UNK         0.0600 
    172 H172       -2.8808  -12.6257  -43.7128 H         1 UNK         0.0600 
    173 H173       -2.1562  -11.9087  -45.1529 H         1 UNK         0.0600 
    174 H174       -0.5355  -11.8823  -43.2543 H         1 UNK         0.3000 
    175 H175        1.2747  -11.8244  -41.4852 H         1 UNK         0.0600 
    176 H176        3.9060  -12.4864  -42.9010 H         1 UNK         0.0600 
    177 H177        3.7284  -11.6576  -41.3586 H         1 UNK         0.0600 
    178 H178        3.2749  -13.3488  -41.5003 H         1 UNK         0.0600 
    179 H179        2.7704  -10.5148  -43.6379 H         1 UNK         0.3000 
    180 H180        0.2166   -8.1806  -44.4543 H         1 UNK         0.0600 
    181 H181        3.0107   -7.9005  -43.2297 H         1 UNK         0.0600 
    182 H182        1.5286   -7.1733  -42.6340 H         1 UNK         0.0600 
    183 H183        2.1805   -6.6750  -44.1872 H         1 UNK         0.0600 
    184 H184        1.0986   -8.9673  -46.2944 H         1 UNK         0.3000 
    185 H185        2.3362   -9.7659  -47.8527 H         1 UNK         0.0600 
    186 H186        4.3706   -8.3076  -47.8593 H         1 UNK         0.0600 
    187 H187        5.3493   -9.6489  -47.2750 H         1 UNK         0.0600 
    188 H188        4.6003   -9.7282  -48.8685 H         1 UNK         0.0600 
    189 H189        4.2949  -11.8396  -47.1681 H         1 UNK         0.3000 
    190 H190       -0.9151  -21.6003  -47.6111 H         1 UNK         0.3000 
    191 H191       -1.6235  -23.2465  -49.7716 H         1 UNK         0.0600 
    192 H192       -3.3306  -21.4510  -47.9736 H         1 UNK         0.0600 
    193 H193       -3.8942  -22.1578  -49.4798 H         1 UNK         0.0600 
    194 H194       -2.5591  -21.0157  -49.4957 H         1 UNK         0.0600 
    195 H195       -2.6007  -23.4984  -46.3238 H         1 UNK         0.3000 
    196 H196       -4.3701  -25.6951  -46.6208 H         1 UNK         0.0600 
    197 H197       -4.0420  -25.9506  -44.1553 H         1 UNK         0.0600 
    198 H198       -4.3164  -24.2725  -44.5984 H         1 UNK         0.0600 
    199 H199       -2.6898  -24.8261  -44.2095 H         1 UNK         0.0600 
    200 H200       -0.8364  -25.6058  -45.9755 H         1 UNK         0.3000 
    201 H201       -0.4875  -28.4360  -45.7518 H         1 UNK         0.0600 
    202 H202        1.1281  -26.8122  -44.8175 H         1 UNK         0.0600 
    203 H203        1.5173  -26.2192  -46.4297 H         1 UNK         0.0600 
    204 H204        1.9350  -27.8657  -45.9698 H         1 UNK         0.0600 
    205 H205       -0.1262  -26.1698  -48.5092 H         1 UNK         0.3000 
    206 H206        0.7161  -28.1580  -50.4074 H         1 UNK         0.0600 
    207 H207        1.2731  -25.7376  -50.6035 H         1 UNK         0.0600 
    208 H208        0.4008  -26.2837  -52.0277 H         1 UNK         0.0600 
    209 H209       -0.4335  -25.3415  -50.7979 H         1 UNK         0.0600 
    210 H210       -2.3954  -27.2302  -49.2338 H         1 UNK         0.3000 
    211 H211       -4.5061  -27.6779  -49.6637 H         1 UNK         0.0600 
    212 H212       -3.6232  -29.8970  -51.5862 H         1 UNK         0.0600 
    213 H213       -5.2219  -29.6842  -50.8903 H         1 UNK         0.0600 
    214 H214       -3.8663  -30.0929  -49.8508 H         1 UNK         0.0600 
    215 H215       -3.4513  -25.5275  -50.7610 H         1 UNK         0.3000 
    216 H216       -4.0025  -25.2608  -53.6265 H         1 UNK         0.0600 
    217 H217       -3.2190  -22.9467  -53.2762 H         1 UNK         0.0600 
    218 H218       -2.1005  -24.0483  -52.4878 H         1 UNK         0.0600 
    219 H219       -3.2757  -23.1433  -51.5333 H         1 UNK         0.0600 
    220 H220       -5.4685  -23.6315  -54.4538 H         1 UNK         0.3000 
    221 H221       -8.1201  -23.7649  -53.2997 H         1 UNK         0.0600 
    222 H222       -7.0215  -22.2550  -55.7428 H         1 UNK         0.0600 
    223 H223       -7.6843  -23.8888  -55.7655 H         1 UNK         0.0600 
    224 H224       -8.7229  -22.5279  -55.3854 H         1 UNK         0.0600 
    225 H225       -9.4752  -21.9112  -52.9001 H         1 UNK         0.3000 
    226 H226       -8.3887  -19.8064  -51.3087 H         1 UNK         0.0600 
    227 H227      -10.6872  -20.6974  -51.0126 H         1 UNK         0.0600 
    228 H228      -10.7425  -18.9736  -51.3419 H         1 UNK         0.0600 
    229 H229      -11.1455  -20.1190  -52.6153 H         1 UNK         0.0600 
    230 H230       -8.8524  -20.1105  -54.7402 H         1 UNK         0.3000 
    231 H231       -8.7803  -17.3382  -55.4888 H         1 UNK         0.0600 
    232 H232       -8.2955  -18.2896  -57.7495 H         1 UNK         0.0600 
    233 H233       -9.6424  -19.1229  -56.9913 H         1 UNK         0.0600 
    234 H234       -8.0506  -19.8822  -57.0429 H         1 UNK         0.0600 
    235 H235       -6.3265  -19.5613  -54.3903 H         1 UNK         0.3000 
    236 H236       -4.0827  -17.8002  -55.2457 H         1 UNK         0.0600 
    237 H237       -3.7072  -20.1973  -55.6354 H         1 UNK         0.0600 
    238 H238       -2.6697  -19.6533  -54.3303 H         1 UNK         0.0600 
    239 H239       -4.1140  -20.5981  -53.9756 H         1 UNK         0.0600 
    240 H240       -4.0025  -19.5860  -52.2578 H         1 UNK         0.3000 
    241 H241       -4.6580  -17.1991  -50.6182 H         1 UNK         0.0600 
    242 H242       -5.8070  -20.2572  -51.2473 H         1 UNK         0.3800 
    243 H243       -6.2704  -20.6307  -49.6110 H         1 UNK         0.3800 
    244 H244       -2.7154  -17.7521  -49.0963 H         1 UNK         0.0800 
    245 H245       -2.1322  -18.8924  -50.2733 H         1 UNK         0.0800 
    246 H246       -0.2715  -16.7658  -52.7912 H         1 UNK         0.0800 
    247 H247       -1.1619  -18.2504  -52.5974 H         1 UNK         0.0800 
@<TRIPOS>BOND
     1    1    2 1    
     2    1  127 1    
     3    1  128 1    
     4    1  129 1    
     5    2    3 2    
     6    2    4 am   BACKBONE|DICT|INTERRES
     7    4    5 1    
     8    4  130 1    
     9    5    6 1    
    10    5   65 1    
    11    5  131 1    
    12    6    7 1    
    13    6  132 1    
    14    6  133 1    
    15    7    8 1    
    16    8    9 1    
    17    8  134 1    
    18    8  135 1    
    19    9   10 ar   
    20    9   14 ar   
    21   10   11 ar   
    22   10  136 1    
    23   11   12 ar   
    24   11  126 1    
    25   12   13 ar   
    26   12  137 1    
    27   13   14 ar   
    28   13   15 1    
    29   14  138 1    
    30   15   16 1    
    31   15  139 1    
    32   15  140 1    
    33   16   17 1    
    34   17   18 1    
    35   17  141 1    
    36   17  142 1    
    37   18   19 1    
    38   18   67 1    
    39   18  143 1    
    40   19   20 am   BACKBONE|DICT|INTERRES
    41   19  144 1    
    42   20   21 2    
    43   20   22 1    
    44   22   23 1    
    45   22   24 1    
    46   22  145 1    
    47   23  146 1    
    48   23  147 1    
    49   23  148 1    
    50   24   25 am   BACKBONE|DICT|INTERRES
    51   24  149 1    
    52   25   26 2    
    53   25   27 1    
    54   27   28 1    
    55   27   29 1    
    56   27  150 1    
    57   28  151 1    
    58   28  152 1    
    59   28  153 1    
    60   29   30 am   BACKBONE|DICT|INTERRES
    61   29  154 1    
    62   30   31 2    
    63   30   32 1    
    64   32   33 1    
    65   32   34 1    
    66   32  155 1    
    67   33  156 1    
    68   33  157 1    
    69   33  158 1    
    70   34   35 am   BACKBONE|DICT|INTERRES
    71   34  159 1    
    72   35   36 2    
    73   35   37 1    
    74   37   38 1    
    75   37   39 1    
    76   37  160 1    
    77   38  161 1    
    78   38  162 1    
    79   38  163 1    
    80   39   40 am   BACKBONE|DICT|INTERRES
    81   39  164 1    
    82   40   41 2    
    83   40   42 1    
    84   42   43 1    
    85   42   44 1    
    86   42  165 1    
    87   43  166 1    
    88   43  167 1    
    89   43  168 1    
    90   44   45 am   BACKBONE|DICT|INTERRES
    91   44  169 1    
    92   45   46 2    
    93   45   47 1    
    94   47   48 1    
    95   47   49 1    
    96   47  170 1    
    97   48  171 1    
    98   48  172 1    
    99   48  173 1    
   100   49   50 am   BACKBONE|DICT|INTERRES
   101   49  174 1    
   102   50   51 2    
   103   50   52 1    
   104   52   53 1    
   105   52   54 1    
   106   52  175 1    
   107   53  176 1    
   108   53  177 1    
   109   53  178 1    
   110   54   55 am   BACKBONE|DICT|INTERRES
   111   54  179 1    
   112   55   56 2    
   113   55   57 1    
   114   57   58 1    
   115   57   59 1    
   116   57  180 1    
   117   58  181 1    
   118   58  182 1    
   119   58  183 1    
   120   59   60 am   BACKBONE|DICT|INTERRES
   121   59  184 1    
   122   60   61 2    
   123   60   62 1    
   124   62   63 1    
   125   62   64 1    
   126   62  185 1    
   127   63  186 1    
   128   63  187 1    
   129   63  188 1    
   130   64   65 am   BACKBONE|DICT|INTERRES
   131   64  189 1    
   132   65   66 2    
   133   67   68 2    
   134   67   69 am   BACKBONE|DICT|INTERRES
   135   69   70 1    
   136   69  190 1    
   137   70   71 1    
   138   70   72 1    
   139   70  191 1    
   140   71  192 1    
   141   71  193 1    
   142   71  194 1    
   143   72   73 2    
   144   72   74 am   BACKBONE|DICT|INTERRES
   145   74   75 1    
   146   74  195 1    
   147   75   76 1    
   148   75   77 1    
   149   75  196 1    
   150   76  197 1    
   151   76  198 1    
   152   76  199 1    
   153   77   78 2    
   154   77   79 am   BACKBONE|DICT|INTERRES
   155   79   80 1    
   156   79  200 1    
   157   80   81 1    
   158   80   82 1    
   159   80  201 1    
   160   81  202 1    
   161   81  203 1    
   162   81  204 1    
   163   82   83 2    
   164   82   84 am   BACKBONE|DICT|INTERRES
   165   84   85 1    
   166   84  205 1    
   167   85   86 1    
   168   85   87 1    
   169   85  206 1    
   170   86  207 1    
   171   86  208 1    
   172   86  209 1    
   173   87   88 2    
   174   87   89 am   BACKBONE|DICT|INTERRES
   175   89   90 1    
   176   89  210 1    
   177   90   91 1    
   178   90   92 1    
   179   90  211 1    
   180   91  212 1    
   181   91  213 1    
   182   91  214 1    
   183   92   93 2    
   184   92   94 am   BACKBONE|DICT|INTERRES
   185   94   95 1    
   186   94  215 1    
   187   95   96 1    
   188   95   97 1    
   189   95  216 1    
   190   96  217 1    
   191   96  218 1    
   192   96  219 1    
   193   97   98 2    
   194   97   99 am   BACKBONE|DICT|INTERRES
   195   99  100 1    
   196   99  220 1    
   197  100  101 1    
   198  100  102 1    
   199  100  221 1    
   200  101  222 1    
   201  101  223 1    
   202  101  224 1    
   203  102  103 2    
   204  102  104 am   BACKBONE|DICT|INTERRES
   205  104  105 1    
   206  104  225 1    
   207  105  106 1    
   208  105  107 1    
   209  105  226 1    
   210  106  227 1    
   211  106  228 1    
   212  106  229 1    
   213  107  108 2    
   214  107  109 am   BACKBONE|DICT|INTERRES
   215  109  110 1    
   216  109  230 1    
   217  110  111 1    
   218  110  112 1    
   219  110  231 1    
   220  111  232 1    
   221  111  233 1    
   222  111  234 1    
   223  112  113 2    
   224  112  114 am   BACKBONE|DICT|INTERRES
   225  114  115 1    
   226  114  235 1    
   227  115  116 1    
   228  115  117 1    
   229  115  236 1    
   230  116  237 1    
   231  116  238 1    
   232  116  239 1    
   233  117  118 2    
   234  117  119 am   BACKBONE|DICT|INTERRES
   235  119  120 1    
   236  119  240 1    
   237  120  121 1    
   238  120  124 1    
   239  120  241 1    
   240  121  122 am   BACKBONE|DICT|INTERRES
   241  121  123 2    
   242  122  242 1    
   243  122  243 1    
   244  124  125 1    
   245  124  244 1    
   246  124  245 1    
   247  125  126 1    
   248  126  246 1    
   249  126  247 1    
@<TRIPOS>SUBSTRUCTURE
     1 UNK         1 GROUP             0       ****    0 ROOT    
