@<TRIPOS>MOLECULE
3R540
247   249    1
SMALL
USER_CHARGES


@<TRIPOS>ATOM
      1 CA          2.0170  -14.8051  -47.5702 C.3       0 UNK        -0.1800 
      2 C           2.7390  -13.6223  -48.2001 C.2       0 UNK         0.5000 
      3 O           2.6677  -12.5138  -47.6699 O.2       0 UNK        -0.5000 
      4 N           3.4519  -13.8594  -49.3124 N.am      1 UNK        -0.5000 
      5 CA          4.1924  -12.8590  -50.1033 C.3       1 UNK         0.1400 
      6 C6          4.8665  -13.4900  -51.3499 C.3       23 UNK        -0.0398 
      7 S7          3.6932  -13.8097  -52.7074 S.3       23 UNK        -0.2404 
      8 C8          3.6542  -15.6302  -52.7850 C.3       23 UNK        -0.0205 
      9 C9          2.7541  -16.2342  -51.7176 C.ar      23 UNK        -0.0193 
     10 C10         1.4090  -15.8668  -51.6538 C.ar      23 UNK        -0.1150 
     11 C11         0.5688  -16.4113  -50.6836 C.ar      23 UNK        -0.0193 
     12 C12         1.0791  -17.3473  -49.7797 C.ar      23 UNK        -0.1150 
     13 C13         2.4211  -17.7537  -49.8441 C.ar      23 UNK        -0.0193 
     14 C14         3.2501  -17.1788  -50.8146 C.ar      23 UNK        -0.1150 
     15 C15         3.0359  -18.8095  -48.9167 C.3       23 UNK        -0.0205 
     16 S16         2.0198  -19.3682  -47.5033 S.3       23 UNK        -0.2404 
     17 C17         0.7466  -20.3939  -48.3130 C.3       23 UNK        -0.0398 
     18 CA          0.3979  -21.7064  -47.5639 C.3       11 UNK         0.1400 
     19 N           0.0167  -21.5184  -46.1558 N.am      11 UNK        -0.5000 
     20 C          -0.2674  -22.5152  -45.3006 C.2       10 UNK         0.5000 
     21 O          -0.1519  -23.7068  -45.5830 O.2       10 UNK        -0.5000 
     22 CA         -0.8368  -22.1389  -43.9203 C.3       10 UNK         0.1400 
     23 CB          0.2797  -21.9290  -42.8860 C.3       10 UNK        -0.1800 
     24 N          -1.7066  -20.9650  -43.9811 N.am      10 UNK        -0.5000 
     25 C          -2.9259  -20.9623  -44.5399 C.2       9 UNK         0.5000 
     26 O          -3.4588  -21.9667  -45.0125 O.2       9 UNK        -0.5000 
     27 CA         -3.6532  -19.6056  -44.6257 C.3       9 UNK         0.1400 
     28 CB         -4.4100  -19.3119  -43.3224 C.3       9 UNK        -0.1800 
     29 N          -2.7497  -18.4939  -44.9179 N.am      9 UNK        -0.5000 
     30 C          -2.0243  -18.3826  -46.0394 C.2       8 UNK         0.5000 
     31 O          -2.0882  -19.1811  -46.9755 O.2       8 UNK        -0.5000 
     32 CA         -0.9993  -17.2312  -46.0830 C.3       8 UNK         0.1400 
     33 CB         -1.6648  -15.9188  -46.5160 C.3       8 UNK        -0.1800 
     34 N          -0.3133  -17.0255  -44.8047 N.am      8 UNK        -0.5000 
     35 C           0.4040  -17.9564  -44.1591 C.2       7 UNK         0.5000 
     36 O           0.5741  -19.0963  -44.5807 O.2       7 UNK        -0.5000 
     37 CA          0.9855  -17.5726  -42.7913 C.3       7 UNK         0.1400 
     38 CB          2.3101  -16.8205  -42.9599 C.3       7 UNK        -0.1800 
     39 N           0.0459  -16.7520  -42.0317 N.am      7 UNK        -0.5000 
     40 C          -0.9976  -17.2423  -41.3493 C.2       6 UNK         0.5000 
     41 O          -1.2319  -18.4450  -41.2274 O.2       6 UNK        -0.5000 
     42 CA         -1.9559  -16.2118  -40.7215 C.3       6 UNK         0.1400 
     43 CB         -1.4700  -15.8043  -39.3225 C.3       6 UNK        -0.1800 
     44 N          -2.1210  -15.0103  -41.5433 N.am      6 UNK        -0.5000 
     45 C          -2.7030  -14.9947  -42.7505 C.2       5 UNK         0.5000 
     46 O          -3.1874  -15.9924  -43.2853 O.2       5 UNK        -0.5000 
     47 CA         -2.7122  -13.6477  -43.5018 C.3       5 UNK         0.1400 
     48 CB         -3.9615  -12.8378  -43.1244 C.3       5 UNK        -0.1800 
     49 N          -1.5204  -12.8143  -43.2988 N.am      5 UNK        -0.5000 
     50 C          -0.2502  -13.1863  -43.5115 C.2       4 UNK         0.5000 
     51 O           0.0843  -14.3302  -43.8313 O.2       4 UNK        -0.5000 
     52 CA          0.8218  -12.1034  -43.3082 C.3       4 UNK         0.1400 
     53 CB          0.8371  -11.5897  -41.8560 C.3       4 UNK        -0.1800 
     54 N           2.1362  -12.6490  -43.6360 N.am      4 UNK        -0.5000 
     55 C           3.1728  -11.9603  -44.1254 C.2       3 UNK         0.5000 
     56 O           3.1239  -10.7590  -44.3979 O.2       3 UNK        -0.5000 
     57 CA          4.5017  -12.7163  -44.3108 C.3       3 UNK         0.1400 
     58 CB          4.4139  -14.2452  -44.1308 C.3       3 UNK        -0.1800 
     59 N           5.0707  -12.4090  -45.6187 N.am      3 UNK        -0.5000 
     60 C           6.3822  -12.3506  -45.8838 C.2       2 UNK         0.5000 
     61 O           7.2550  -12.5269  -45.0315 O.2       2 UNK        -0.5000 
     62 CA          6.7827  -12.0763  -47.3447 C.3       2 UNK         0.1400 
     63 CB          8.1933  -12.5906  -47.6888 C.3       2 UNK        -0.1800 
     64 N           5.8153  -12.6826  -48.2583 N.am      2 UNK        -0.5000 
     65 C           5.2439  -12.0628  -49.2965 C.2       1 UNK         0.5000 
     66 O           5.5098  -10.9076  -49.6325 O.2       1 UNK        -0.5000 
     67 C          -0.7101  -22.4475  -48.3387 C.2       11 UNK         0.5000 
     68 O          -0.4227  -23.4401  -49.0056 O.2       11 UNK        -0.5000 
     69 N          -1.9578  -21.9722  -48.2007 N.am      12 UNK        -0.5000 
     70 CA         -3.1451  -22.5733  -48.8121 C.3       12 UNK         0.1400 
     71 CB         -4.3588  -21.6579  -48.5901 C.3       12 UNK        -0.1800 
     72 C          -3.4267  -23.9977  -48.2966 C.2       12 UNK         0.5000 
     73 O          -3.7854  -24.8697  -49.0885 O.2       12 UNK        -0.5000 
     74 N          -3.2289  -24.2227  -46.9893 N.am      13 UNK        -0.5000 
     75 CA         -3.3461  -25.5354  -46.3529 C.3       13 UNK         0.1400 
     76 CB         -3.2860  -25.3853  -44.8259 C.3       13 UNK        -0.1800 
     77 C          -2.2813  -26.5291  -46.8527 C.2       13 UNK         0.5000 
     78 O          -2.6286  -27.6529  -47.2165 O.2       13 UNK        -0.5000 
     79 N          -1.0155  -26.0889  -46.9088 N.am      14 UNK        -0.5000 
     80 CA          0.1198  -26.8634  -47.4206 C.3       14 UNK         0.1400 
     81 CB          1.4248  -26.1000  -47.1495 C.3       14 UNK        -0.1800 
     82 C          -0.0075  -27.2029  -48.9175 C.2       14 UNK         0.5000 
     83 O           0.3888  -28.2920  -49.3331 O.2       14 UNK        -0.5000 
     84 N          -0.5991  -26.2820  -49.6880 N.am      15 UNK        -0.5000 
     85 CA         -0.9375  -26.4439  -51.1016 C.3       15 UNK         0.1400 
     86 CB         -1.0747  -25.0489  -51.7297 C.3       15 UNK        -0.1800 
     87 C          -2.2065  -27.2914  -51.3448 C.2       15 UNK         0.5000 
     88 O          -2.5788  -27.4822  -52.5022 O.2       15 UNK        -0.5000 
     89 N          -2.8516  -27.7824  -50.2747 N.am      16 UNK        -0.5000 
     90 CA         -4.0493  -28.6283  -50.2698 C.3       16 UNK         0.1400 
     91 CB         -3.7477  -30.0110  -50.8853 C.3       16 UNK        -0.1800 
     92 C          -5.2731  -27.9321  -50.8993 C.2       16 UNK         0.5000 
     93 O          -5.9807  -28.5286  -51.7125 O.2       16 UNK        -0.5000 
     94 N          -5.4828  -26.6688  -50.5046 N.am      17 UNK        -0.5000 
     95 CA         -6.5584  -25.7566  -50.9074 C.3       17 UNK         0.1400 
     96 CB         -7.9564  -26.3605  -50.6582 C.3       17 UNK        -0.1800 
     97 C          -6.4073  -25.1737  -52.3266 C.2       17 UNK         0.5000 
     98 O          -7.2898  -24.4329  -52.7636 O.2       17 UNK        -0.5000 
     99 N          -5.2846  -25.4498  -53.0060 N.am      18 UNK        -0.5000 
    100 CA        -4.8477  -24.6907  -54.1780 C.3       18 UNK         0.1400 
    101 CB        -3.7809  -25.4858  -54.9436 C.3       18 UNK        -0.1800 
    102 C         -4.3093  -23.3170  -53.7338 C.2       18 UNK         0.5000 
    103 O         -3.8353  -23.1856  -52.6029 O.2       18 UNK        -0.5000 
    104 N         -4.4124  -22.3185  -54.6229 N.am      19 UNK        -0.5000 
    105 CA        -4.1433  -20.8978  -54.3564 C.3       19 UNK         0.1400 
    106 CB        -2.6448  -20.6489  -54.0796 C.3       19 UNK        -0.1800 
    107 C         -5.0656  -20.3475  -53.2465 C.2       19 UNK         0.5000 
    108 O         -4.6054  -19.6852  -52.3158 O.2       19 UNK        -0.5000 
    109 N         -6.3671  -20.6528  -53.3703 N.am      20 UNK        -0.5000 
    110 CA        -7.4242  -20.3657  -52.3932 C.3       20 UNK         0.1400 
    111 CB        -8.7539  -20.9276  -52.9177 C.3       20 UNK        -0.1800 
    112 C         -7.5803  -18.8786  -52.0186 C.2       20 UNK         0.5000 
    113 O         -8.0548  -18.5804  -50.9220 O.2       20 UNK        -0.5000 
    114 N         -7.1305  -17.9759  -52.9024 N.am      21 UNK        -0.5000 
    115 CA        -7.0246  -16.5327  -52.6720 C.3       21 UNK         0.1400 
    116 CB        -6.5278  -15.8602  -53.9608 C.3       21 UNK        -0.1800 
    117 C         -6.1171  -16.1527  -51.4815 C.2       21 UNK         0.5000 
    118 O         -6.3156  -15.0889  -50.8934 O.2       21 UNK        -0.5000 
    119 N         -5.1653  -17.0287  -51.1302 N.am      22 UNK        -0.5000 
    120 CA        -4.3457  -16.9278  -49.9134 C.3       22 UNK         0.1400 
    121 C         -5.1109  -17.2968  -48.6063 C.2       22 UNK         0.5000 
    122 N         -6.3000  -17.8875  -48.6554 N.am      22 UNK        -0.7600 
    123 O         -4.6297  -17.0104  -47.5164 O.2       22 UNK        -0.5000 
    124 C124       -3.0261  -17.7346  -50.0380 C.3       23 UNK        -0.0398 
    125 S125       -1.9868  -17.1708  -51.4301 S.3       23 UNK        -0.2404 
    126 C126       -0.8850  -15.9729  -50.6136 C.3       23 UNK        -0.0205 
    127 H127        1.8662  -14.6415  -46.5028 H         1 UNK         0.0600 
    128 H128        1.0393  -14.9353  -48.0328 H         1 UNK         0.0600 
    129 H129        2.5852  -15.7271  -47.6920 H         1 UNK         0.0600 
    130 H130        3.4372  -14.7902  -49.7056 H         1 UNK         0.3000 
    131 H131        3.4593  -12.1242  -50.4429 H         1 UNK         0.0600 
    132 H132        5.6213  -12.8210  -51.7690 H         1 UNK         0.0800 
    133 H133        5.4005  -14.4029  -51.0812 H         1 UNK         0.0800 
    134 H134        3.2732  -15.9271  -53.7630 H         1 UNK         0.0800 
    135 H135        4.6694  -16.0249  -52.7218 H         1 UNK         0.0800 
    136 H136        1.0184  -15.1461  -52.3588 H         1 UNK         0.1150 
    137 H137        0.4123  -17.7492  -49.0363 H         1 UNK         0.1150 
    138 H138        4.2867  -17.4806  -50.8751 H         1 UNK         0.1150 
    139 H139        3.3238  -19.6781  -49.5104 H         1 UNK         0.0800 
    140 H140        3.9615  -18.4040  -48.5057 H         1 UNK         0.0800 
    141 H141        1.0865  -20.6306  -49.3230 H         1 UNK         0.0800 
    142 H142       -0.1445  -19.7827  -48.4422 H         1 UNK         0.0800 
    143 H143        1.2861  -22.3416  -47.5708 H         1 UNK         0.0600 
    144 H144       -0.0295  -20.5621  -45.8182 H         1 UNK         0.3000 
    145 H145       -1.4429  -22.9779  -43.5737 H         1 UNK         0.0600 
    146 H146       -0.1268  -21.6322  -41.9190 H         1 UNK         0.0600 
    147 H147        0.8392  -22.8527  -42.7342 H         1 UNK         0.0600 
    148 H148        0.9951  -21.1694  -43.1969 H         1 UNK         0.0600 
    149 H149       -1.3073  -20.0891  -43.6731 H         1 UNK         0.3000 
    150 H150       -4.3786  -19.6671  -45.4398 H         1 UNK         0.0600 
    151 H151       -5.1078  -20.1160  -43.0854 H         1 UNK         0.0600 
    152 H152       -4.9882  -18.3911  -43.4027 H         1 UNK         0.0600 
    153 H153       -3.7287  -19.2055  -42.4772 H         1 UNK         0.0600 
    154 H154       -2.6863  -17.7564  -44.2240 H         1 UNK         0.3000 
    155 H155       -0.2374  -17.4868  -46.8194 H         1 UNK         0.0600 
    156 H156       -2.0616  -15.9963  -47.5254 H         1 UNK         0.0600 
    157 H157       -0.9642  -15.0840  -46.4987 H         1 UNK         0.0600 
    158 H158       -2.5065  -15.6725  -45.8717 H         1 UNK         0.0600 
    159 H159       -0.3609  -16.0929  -44.4051 H         1 UNK         0.3000 
    160 H160        1.1872  -18.4920  -42.2371 H         1 UNK         0.0600 
    161 H161        2.7366  -16.5448  -41.9954 H         1 UNK         0.0600 
    162 H162        2.1726  -15.9125  -43.5435 H         1 UNK         0.0600 
    163 H163        3.0448  -17.4362  -43.4803 H         1 UNK         0.0600 
    164 H164        0.1224  -15.7509  -42.1505 H         1 UNK         0.3000 
    165 H165       -2.9331  -16.6887  -40.6192 H         1 UNK         0.0600 
    166 H166       -2.1814  -15.1361  -38.8370 H         1 UNK         0.0600 
    167 H167       -1.3555  -16.6780  -38.6795 H         1 UNK         0.0600 
    168 H168       -0.5051  -15.2971  -39.3624 H         1 UNK         0.0600 
    169 H169       -1.7481  -14.1472  -41.1763 H         1 UNK         0.3000 
    170 H170       -2.7689  -13.8650  -44.5682 H         1 UNK         0.0600 
    171 H171       -4.8693  -13.4205  -43.2878 H         1 UNK         0.0600 
    172 H172       -3.9467  -12.5402  -42.0752 H         1 UNK         0.0600 
    173 H173       -4.0452  -11.9348  -43.7293 H         1 UNK         0.0600 
    174 H174       -1.6982  -11.8587  -43.0253 H         1 UNK         0.3000 
    175 H175        0.5870  -11.2801  -43.9860 H         1 UNK         0.0600 
    176 H176        1.6064  -10.8301  -41.7154 H         1 UNK         0.0600 
    177 H177       -0.1141  -11.1329  -41.5816 H         1 UNK         0.0600 
    178 H178        1.0330  -12.3960  -41.1479 H         1 UNK         0.0600 
    179 H179        2.2127  -13.6499  -43.5180 H         1 UNK         0.3000 
    180 H180        5.1636  -12.3261  -43.5348 H         1 UNK         0.0600 
    181 H181        3.7401  -14.6986  -44.8580 H         1 UNK         0.0600 
    182 H182        4.0724  -14.5039  -43.1284 H         1 UNK         0.0600 
    183 H183        5.3911  -14.7118  -44.2555 H         1 UNK         0.0600 
    184 H184        4.4004  -12.2028  -46.3521 H         1 UNK         0.3000 
    185 H185        6.7810  -10.9901  -47.4547 H         1 UNK         0.0600 
    186 H186        8.4505  -12.3687  -48.7246 H         1 UNK         0.0600 
    187 H187        8.9497  -12.1183  -47.0610 H         1 UNK         0.0600 
    188 H188        8.2718  -13.6692  -47.5477 H         1 UNK         0.0600 
    189 H189        5.5239  -13.6246  -48.0375 H         1 UNK         0.3000 
    190 H190       -2.1013  -21.1374  -47.6408 H         1 UNK         0.3000 
    191 H191       -2.9666  -22.6415  -49.8874 H         1 UNK         0.0600 
    192 H192       -4.5761  -21.5244  -47.5300 H         1 UNK         0.0600 
    193 H193       -5.2507  -22.0728  -49.0613 H         1 UNK         0.0600 
    194 H194       -4.1944  -20.6716  -49.0232 H         1 UNK         0.0600 
    195 H195       -2.9941  -23.4405  -46.3879 H         1 UNK         0.3000 
    196 H196       -4.3265  -25.9415  -46.6110 H         1 UNK         0.0600 
    197 H197       -2.3237  -24.9960  -44.4956 H         1 UNK         0.0600 
    198 H198       -3.4348  -26.3477  -44.3348 H         1 UNK         0.0600 
    199 H199       -4.0629  -24.7116  -44.4640 H         1 UNK         0.0600 
    200 H200       -0.8023  -25.1560  -46.5618 H         1 UNK         0.3000 
    201 H201        0.1552  -27.8056  -46.8701 H         1 UNK         0.0600 
    202 H202        1.4313  -25.1281  -47.6444 H         1 UNK         0.0600 
    203 H203        2.2889  -26.6597  -47.5096 H         1 UNK         0.0600 
    204 H204        1.5679  -25.9318  -46.0820 H         1 UNK         0.0600 
    205 H205       -0.8270  -25.3821  -49.2758 H         1 UNK         0.3000 
    206 H206       -0.1114  -26.9562  -51.5984 H         1 UNK         0.0600 
    207 H207       -0.1671  -24.4617  -51.5897 H         1 UNK         0.0600 
    208 H208       -1.2520  -25.1105  -52.8025 H         1 UNK         0.0600 
    209 H209       -1.9025  -24.4946  -51.2872 H         1 UNK         0.0600 
    210 H210       -2.4916  -27.5490  -49.3570 H         1 UNK         0.3000 
    211 H211       -4.3016  -28.7886  -49.2207 H         1 UNK         0.0600 
    212 H212       -3.5324  -29.9444  -51.9520 H         1 UNK         0.0600 
    213 H213       -4.5971  -30.6845  -50.7655 H         1 UNK         0.0600 
    214 H214       -2.8920  -30.4796  -50.3990 H         1 UNK         0.0600 
    215 H215       -4.7917  -26.2403  -49.8910 H         1 UNK         0.3000 
    216 H216       -6.4609  -24.9003  -50.2385 H         1 UNK         0.0600 
    217 H217       -8.0413  -26.7582  -49.6469 H         1 UNK         0.0600 
    218 H218       -8.7329  -25.6034  -50.7735 H         1 UNK         0.0600 
    219 H219       -8.1853  -27.1641  -51.3582 H         1 UNK         0.0600 
    220 H220       -4.5925  -26.0444  -52.5713 H         1 UNK         0.3000 
    221 H221       -5.7037  -24.5397  -54.8392 H         1 UNK         0.0600 
    222 H222       -2.8705  -25.6084  -54.3596 H         1 UNK         0.0600 
    223 H223       -4.1432  -26.4788  -55.2103 H         1 UNK         0.0600 
    224 H224       -3.5070  -24.9788  -55.8694 H         1 UNK         0.0600 
    225 H225       -4.7967  -22.5250  -55.5345 H         1 UNK         0.3000 
    226 H226       -4.4015  -20.3554  -55.2669 H         1 UNK         0.0600 
    227 H227       -2.0237  -21.0472  -54.8816 H         1 UNK         0.0600 
    228 H228       -2.4363  -19.5808  -54.0060 H         1 UNK         0.0600 
    229 H229       -2.3187  -21.1048  -53.1443 H         1 UNK         0.0600 
    230 H230       -6.6467  -21.2074  -54.1659 H         1 UNK         0.3000 
    231 H231       -7.1662  -20.9000  -51.4765 H         1 UNK         0.0600 
    232 H232       -8.6901  -22.0031  -53.0844 H         1 UNK         0.0600 
    233 H233       -9.0458  -20.4576  -53.8576 H         1 UNK         0.0600 
    234 H234       -9.5599  -20.7600  -52.2020 H         1 UNK         0.0600 
    235 H235       -6.7528  -18.3202  -53.7723 H         1 UNK         0.3000 
    236 H236       -8.0264  -16.1588  -52.4514 H         1 UNK         0.0600 
    237 H237       -6.4641  -14.7782  -53.8374 H         1 UNK         0.0600 
    238 H238       -5.5364  -16.2172  -54.2429 H         1 UNK         0.0600 
    239 H239       -7.2049  -16.0514  -54.7934 H         1 UNK         0.0600 
    240 H240       -5.0534  -17.8869  -51.6621 H         1 UNK         0.3000 
    241 H241       -4.0650  -15.8793  -49.7963 H         1 UNK         0.0600 
    242 H242       -6.7611  -18.0922  -49.5352 H         1 UNK         0.3800 
    243 H243       -6.7731  -18.0955  -47.7915 H         1 UNK         0.3800 
    244 H244       -2.4430  -17.6848  -49.1194 H         1 UNK         0.0800 
    245 H245       -3.2442  -18.7925  -50.1875 H         1 UNK         0.0800 
    246 H246       -1.1696  -15.8162  -49.5753 H         1 UNK         0.0800 
    247 H247       -1.0097  -15.0044  -51.1003 H         1 UNK         0.0800 
@<TRIPOS>BOND
     1    1    2 1    
     2    1  127 1    
     3    1  128 1    
     4    1  129 1    
     5    2    3 2    
     6    2    4 am   BACKBONE|DICT|INTERRES
     7    4    5 1    
     8    4  130 1    
     9    5    6 1    
    10    5   65 1    
    11    5  131 1    
    12    6    7 1    
    13    6  132 1    
    14    6  133 1    
    15    7    8 1    
    16    8    9 1    
    17    8  134 1    
    18    8  135 1    
    19    9   10 ar   
    20    9   14 ar   
    21   10   11 ar   
    22   10  136 1    
    23   11   12 ar   
    24   11  126 1    
    25   12   13 ar   
    26   12  137 1    
    27   13   14 ar   
    28   13   15 1    
    29   14  138 1    
    30   15   16 1    
    31   15  139 1    
    32   15  140 1    
    33   16   17 1    
    34   17   18 1    
    35   17  141 1    
    36   17  142 1    
    37   18   19 1    
    38   18   67 1    
    39   18  143 1    
    40   19   20 am   BACKBONE|DICT|INTERRES
    41   19  144 1    
    42   20   21 2    
    43   20   22 1    
    44   22   23 1    
    45   22   24 1    
    46   22  145 1    
    47   23  146 1    
    48   23  147 1    
    49   23  148 1    
    50   24   25 am   BACKBONE|DICT|INTERRES
    51   24  149 1    
    52   25   26 2    
    53   25   27 1    
    54   27   28 1    
    55   27   29 1    
    56   27  150 1    
    57   28  151 1    
    58   28  152 1    
    59   28  153 1    
    60   29   30 am   BACKBONE|DICT|INTERRES
    61   29  154 1    
    62   30   31 2    
    63   30   32 1    
    64   32   33 1    
    65   32   34 1    
    66   32  155 1    
    67   33  156 1    
    68   33  157 1    
    69   33  158 1    
    70   34   35 am   BACKBONE|DICT|INTERRES
    71   34  159 1    
    72   35   36 2    
    73   35   37 1    
    74   37   38 1    
    75   37   39 1    
    76   37  160 1    
    77   38  161 1    
    78   38  162 1    
    79   38  163 1    
    80   39   40 am   BACKBONE|DICT|INTERRES
    81   39  164 1    
    82   40   41 2    
    83   40   42 1    
    84   42   43 1    
    85   42   44 1    
    86   42  165 1    
    87   43  166 1    
    88   43  167 1    
    89   43  168 1    
    90   44   45 am   BACKBONE|DICT|INTERRES
    91   44  169 1    
    92   45   46 2    
    93   45   47 1    
    94   47   48 1    
    95   47   49 1    
    96   47  170 1    
    97   48  171 1    
    98   48  172 1    
    99   48  173 1    
   100   49   50 am   BACKBONE|DICT|INTERRES
   101   49  174 1    
   102   50   51 2    
   103   50   52 1    
   104   52   53 1    
   105   52   54 1    
   106   52  175 1    
   107   53  176 1    
   108   53  177 1    
   109   53  178 1    
   110   54   55 am   BACKBONE|DICT|INTERRES
   111   54  179 1    
   112   55   56 2    
   113   55   57 1    
   114   57   58 1    
   115   57   59 1    
   116   57  180 1    
   117   58  181 1    
   118   58  182 1    
   119   58  183 1    
   120   59   60 am   BACKBONE|DICT|INTERRES
   121   59  184 1    
   122   60   61 2    
   123   60   62 1    
   124   62   63 1    
   125   62   64 1    
   126   62  185 1    
   127   63  186 1    
   128   63  187 1    
   129   63  188 1    
   130   64   65 am   BACKBONE|DICT|INTERRES
   131   64  189 1    
   132   65   66 2    
   133   67   68 2    
   134   67   69 am   BACKBONE|DICT|INTERRES
   135   69   70 1    
   136   69  190 1    
   137   70   71 1    
   138   70   72 1    
   139   70  191 1    
   140   71  192 1    
   141   71  193 1    
   142   71  194 1    
   143   72   73 2    
   144   72   74 am   BACKBONE|DICT|INTERRES
   145   74   75 1    
   146   74  195 1    
   147   75   76 1    
   148   75   77 1    
   149   75  196 1    
   150   76  197 1    
   151   76  198 1    
   152   76  199 1    
   153   77   78 2    
   154   77   79 am   BACKBONE|DICT|INTERRES
   155   79   80 1    
   156   79  200 1    
   157   80   81 1    
   158   80   82 1    
   159   80  201 1    
   160   81  202 1    
   161   81  203 1    
   162   81  204 1    
   163   82   83 2    
   164   82   84 am   BACKBONE|DICT|INTERRES
   165   84   85 1    
   166   84  205 1    
   167   85   86 1    
   168   85   87 1    
   169   85  206 1    
   170   86  207 1    
   171   86  208 1    
   172   86  209 1    
   173   87   88 2    
   174   87   89 am   BACKBONE|DICT|INTERRES
   175   89   90 1    
   176   89  210 1    
   177   90   91 1    
   178   90   92 1    
   179   90  211 1    
   180   91  212 1    
   181   91  213 1    
   182   91  214 1    
   183   92   93 2    
   184   92   94 am   BACKBONE|DICT|INTERRES
   185   94   95 1    
   186   94  215 1    
   187   95   96 1    
   188   95   97 1    
   189   95  216 1    
   190   96  217 1    
   191   96  218 1    
   192   96  219 1    
   193   97   98 2    
   194   97   99 am   BACKBONE|DICT|INTERRES
   195   99  100 1    
   196   99  220 1    
   197  100  101 1    
   198  100  102 1    
   199  100  221 1    
   200  101  222 1    
   201  101  223 1    
   202  101  224 1    
   203  102  103 2    
   204  102  104 am   BACKBONE|DICT|INTERRES
   205  104  105 1    
   206  104  225 1    
   207  105  106 1    
   208  105  107 1    
   209  105  226 1    
   210  106  227 1    
   211  106  228 1    
   212  106  229 1    
   213  107  108 2    
   214  107  109 am   BACKBONE|DICT|INTERRES
   215  109  110 1    
   216  109  230 1    
   217  110  111 1    
   218  110  112 1    
   219  110  231 1    
   220  111  232 1    
   221  111  233 1    
   222  111  234 1    
   223  112  113 2    
   224  112  114 am   BACKBONE|DICT|INTERRES
   225  114  115 1    
   226  114  235 1    
   227  115  116 1    
   228  115  117 1    
   229  115  236 1    
   230  116  237 1    
   231  116  238 1    
   232  116  239 1    
   233  117  118 2    
   234  117  119 am   BACKBONE|DICT|INTERRES
   235  119  120 1    
   236  119  240 1    
   237  120  121 1    
   238  120  124 1    
   239  120  241 1    
   240  121  122 am   BACKBONE|DICT|INTERRES
   241  121  123 2    
   242  122  242 1    
   243  122  243 1    
   244  124  125 1    
   245  124  244 1    
   246  124  245 1    
   247  125  126 1    
   248  126  246 1    
   249  126  247 1    
@<TRIPOS>SUBSTRUCTURE
     1 UNK         1 GROUP             0       ****    0 ROOT    
