@<TRIPOS>MOLECULE
3R540
247   249    1
SMALL
USER_CHARGES


@<TRIPOS>ATOM
      1 CA         -2.4932  -13.1222  -46.4618 C.3       0 UNK        -0.1800 
      2 C          -1.4943  -13.0978  -47.6091 C.2       0 UNK         0.5000 
      3 O          -1.8142  -12.5988  -48.6886 O.2       0 UNK        -0.5000 
      4 N          -0.2845  -13.6208  -47.3760 N.am      1 UNK        -0.5000 
      5 CA          0.8480  -13.5145  -48.3014 C.3       1 UNK         0.1400 
      6 C6          1.8520  -14.6946  -48.1686 C.3       23 UNK        -0.0398 
      7 S7          1.1100  -16.3563  -48.1486 S.3       23 UNK        -0.2404 
      8 C8          0.3612  -16.5141  -49.7976 C.3       23 UNK        -0.0205 
      9 C9         -0.5955  -17.6949  -49.8143 C.ar      23 UNK        -0.0193 
     10 C10        -1.9414  -17.5078  -49.4885 C.ar      23 UNK        -0.1150 
     11 C11        -2.8219  -18.5929  -49.4454 C.ar      23 UNK        -0.0193 
     12 C12        -2.3377  -19.8750  -49.7150 C.ar      23 UNK        -0.1150 
     13 C13        -0.9947  -20.0781  -50.0430 C.ar      23 UNK        -0.0193 
     14 C14        -0.1310  -18.9794  -50.1083 C.ar      23 UNK        -0.1150 
     15 C15        -0.4949  -21.4934  -50.3061 C.3       23 UNK        -0.0205 
     16 S16         1.0540  -21.9151  -49.4388 S.3       23 UNK        -0.2404 
     17 C17         0.6551  -21.5038  -47.7084 C.3       23 UNK        -0.0398 
     18 CA          0.4111  -22.7274  -46.7962 C.3       11 UNK         0.1400 
     19 N           0.4885  -22.3409  -45.3879 N.am      11 UNK        -0.5000 
     20 C           0.5092  -23.1815  -44.3467 C.2       10 UNK         0.5000 
     21 O           0.5249  -24.4075  -44.4554 O.2       10 UNK        -0.5000 
     22 CA          0.4759  -22.5386  -42.9465 C.3       10 UNK         0.1400 
     23 CB          1.8838  -22.1042  -42.5125 C.3       10 UNK        -0.1800 
     24 N          -0.4336  -21.3926  -42.8665 N.am      10 UNK        -0.5000 
     25 C          -1.7630  -21.4697  -43.0268 C.2       9 UNK         0.5000 
     26 O          -2.3664  -22.5223  -43.2327 O.2       9 UNK        -0.5000 
     27 CA         -2.5462  -20.1445  -43.0036 C.3       9 UNK         0.1400 
     28 CB         -2.7166  -19.6265  -41.5677 C.3       9 UNK        -0.1800 
     29 N          -1.9245  -19.1103  -43.8290 N.am      9 UNK        -0.5000 
     30 C          -1.7427  -19.2027  -45.1535 C.2       8 UNK         0.5000 
     31 O          -2.1155  -20.1562  -45.8339 O.2       8 UNK        -0.5000 
     32 CA         -0.9683  -18.0601  -45.8240 C.3       8 UNK         0.1400 
     33 CB         -1.8882  -16.8556  -46.0646 C.3       8 UNK        -0.1800 
     34 N           0.2083  -17.6521  -45.0532 N.am      8 UNK        -0.5000 
     35 C           1.2565  -18.4486  -44.7946 C.2       7 UNK         0.5000 
     36 O           1.3518  -19.6086  -45.1897 O.2       7 UNK        -0.5000 
     37 CA          2.3532  -17.8770  -43.8818 C.3       7 UNK         0.1400 
     38 CB          3.3039  -16.9588  -44.6658 C.3       7 UNK        -0.1800 
     39 N           1.7832  -17.1545  -42.7463 N.am      7 UNK        -0.5000 
     40 C           1.0734  -17.7300  -41.7634 C.2       6 UNK         0.5000 
     41 O           0.8825  -18.9433  -41.6738 O.2       6 UNK        -0.5000 
     42 CA          0.4225  -16.7785  -40.7420 C.3       6 UNK         0.1400 
     43 CB          1.4054  -16.4450  -39.6101 C.3       6 UNK        -0.1800 
     44 N          -0.0449  -15.5354  -41.3602 N.am      6 UNK        -0.5000 
     45 C          -1.0226  -15.4639  -42.2758 C.2       5 UNK         0.5000 
     46 O          -1.6885  -16.4358  -42.6298 O.2       5 UNK        -0.5000 
     47 CA         -1.2592  -14.0955  -42.9445 C.3       5 UNK         0.1400 
     48 CB         -2.3951  -13.3363  -42.2449 C.3       5 UNK        -0.1800 
     49 N          -0.0514  -13.2643  -42.9580 N.am      5 UNK        -0.5000 
     50 C           1.0014  -13.4781  -43.7576 C.2       4 UNK         0.5000 
     51 O           1.0048  -14.3029  -44.6769 O.2       4 UNK        -0.5000 
     52 CA          2.2788  -12.6973  -43.4099 C.3       4 UNK         0.1400 
     53 CB          2.8821  -13.2529  -42.0997 C.3       4 UNK        -0.1800 
     54 N           3.2427  -12.8139  -44.5022 N.am      4 UNK        -0.5000 
     55 C           4.4075  -12.1566  -44.5941 C.2       3 UNK         0.5000 
     56 O           4.7943  -11.3247  -43.7722 O.2       3 UNK        -0.5000 
     57 CA          5.2889  -12.4748  -45.8168 C.3       3 UNK         0.1400 
     58 CB          5.6974  -13.9580  -45.8454 C.3       3 UNK        -0.1800 
     59 N           4.6236  -12.1290  -47.0701 N.am      3 UNK        -0.5000 
     60 C           4.3658  -10.8812  -47.4910 C.2       2 UNK         0.5000 
     61 O           4.7701   -9.8663  -46.9228 O.2       2 UNK        -0.5000 
     62 CA          3.4870  -10.7464  -48.7542 C.3       2 UNK         0.1400 
     63 CB          4.3623  -10.6144  -50.0099 C.3       2 UNK        -0.1800 
     64 N           2.5582  -11.8691  -48.9302 N.am      2 UNK        -0.5000 
     65 C           1.5753  -12.1722  -48.0700 C.2       1 UNK         0.5000 
     66 O           1.2916  -11.4671  -47.0971 O.2       1 UNK        -0.5000 
     67 C          -0.9217  -23.4388  -47.1091 C.2       11 UNK         0.5000 
     68 O          -0.9089  -24.5411  -47.6561 O.2       11 UNK        -0.5000 
     69 N          -2.0462  -22.8264  -46.7113 N.am      12 UNK        -0.5000 
     70 CA         -3.3942  -23.3589  -46.9086 C.3       12 UNK         0.1400 
     71 CB         -4.4312  -22.2809  -46.5647 C.3       12 UNK        -0.1800 
     72 C          -3.6694  -24.6560  -46.1274 C.2       12 UNK         0.5000 
     73 O          -4.4149  -25.5034  -46.6182 O.2       12 UNK        -0.5000 
     74 N          -3.0300  -24.8287  -44.9616 N.am      13 UNK        -0.5000 
     75 CA         -3.0618  -26.0652  -44.1729 C.3       13 UNK         0.1400 
     76 CB         -2.4041  -25.8208  -42.8065 C.3       13 UNK        -0.1800 
     77 C          -2.4072  -27.2683  -44.8858 C.2       13 UNK         0.5000 
     78 O          -2.7630  -28.4096  -44.5908 O.2       13 UNK        -0.5000 
     79 N          -1.4961  -26.9959  -45.8295 N.am      14 UNK        -0.5000 
     80 CA         -0.8694  -27.9779  -46.7157 C.3       14 UNK         0.1400 
     81 CB          0.6166  -27.6106  -46.8720 C.3       14 UNK        -0.1800 
     82 C          -1.5724  -28.0528  -48.0895 C.2       14 UNK         0.5000 
     83 O          -1.0445  -28.6961  -48.9986 O.2       14 UNK        -0.5000 
     84 N          -2.7299  -27.3863  -48.2289 N.am      15 UNK        -0.5000 
     85 CA         -3.5139  -27.1388  -49.4427 C.3       15 UNK         0.1400 
     86 CB         -3.9784  -28.4425  -50.1233 C.3       15 UNK        -0.1800 
     87 C          -2.7837  -26.1886  -50.4062 C.2       15 UNK         0.5000 
     88 O          -3.2064  -25.0415  -50.5524 O.2       15 UNK        -0.5000 
     89 N          -1.6894  -26.6779  -51.0065 N.am      16 UNK        -0.5000 
     90 CA         -0.7308  -25.9734  -51.8604 C.3       16 UNK         0.1400 
     91 CB          0.2185  -25.1362  -50.9797 C.3       16 UNK        -0.1800 
     92 C          -1.3967  -25.1649  -52.9945 C.2       16 UNK         0.5000 
     93 O          -1.7493  -25.7467  -54.0216 O.2       16 UNK        -0.5000 
     94 N          -1.5561  -23.8532  -52.7836 N.am      17 UNK        -0.5000 
     95 CA         -2.1598  -22.9030  -53.7144 C.3       17 UNK         0.1400 
     96 CB         -1.0516  -22.0672  -54.3829 C.3       17 UNK        -0.1800 
     97 C          -3.2278  -22.0391  -53.0174 C.2       17 UNK         0.5000 
     98 O          -3.3895  -20.8674  -53.3660 O.2       17 UNK        -0.5000 
     99 N          -3.9594  -22.6170  -52.0528 N.am      18 UNK        -0.5000 
    100 CA        -5.1411  -22.0028  -51.4408 C.3       18 UNK         0.1400 
    101 CB        -5.7124  -22.9315  -50.3607 C.3       18 UNK        -0.1800 
    102 C         -6.2147  -21.6678  -52.4933 C.2       18 UNK         0.5000 
    103 O         -6.5795  -22.5358  -53.2892 O.2       18 UNK        -0.5000 
    104 N         -6.6589  -20.4045  -52.4897 N.am      19 UNK        -0.5000 
    105 CA        -7.5725  -19.7775  -53.4521 C.3       19 UNK         0.1400 
    106 CB        -8.9582  -20.4573  -53.4342 C.3       19 UNK        -0.1800 
    107 C         -6.9917  -19.6384  -54.8795 C.2       19 UNK         0.5000 
    108 O         -7.7543  -19.4036  -55.8192 O.2       19 UNK        -0.5000 
    109 N         -5.6643  -19.7585  -55.0207 N.am      20 UNK        -0.5000 
    110 CA        -4.9222  -19.5059  -56.2547 C.3       20 UNK         0.1400 
    111 CB        -4.3207  -20.8185  -56.7823 C.3       20 UNK        -0.1800 
    112 C         -3.8399  -18.4418  -56.0138 C.2       20 UNK         0.5000 
    113 O         -3.7466  -17.4913  -56.7917 O.2       20 UNK        -0.5000 
    114 N         -3.0592  -18.5982  -54.9346 N.am      21 UNK        -0.5000 
    115 CA        -2.0966  -17.6057  -54.4568 C.3       21 UNK         0.1400 
    116 CB        -1.1000  -18.2744  -53.4968 C.3       21 UNK        -0.1800 
    117 C         -2.8216  -16.4290  -53.7824 C.2       21 UNK         0.5000 
    118 O         -2.6340  -15.2794  -54.1833 O.2       21 UNK        -0.5000 
    119 N         -3.6672  -16.7525  -52.7981 N.am      22 UNK        -0.5000 
    120 CA        -4.6544  -15.8431  -52.2039 C.3       22 UNK         0.1400 
    121 C         -5.9100  -15.6689  -53.1040 C.2       22 UNK         0.5000 
    122 N         -6.6112  -14.5493  -52.9863 N.am      22 UNK        -0.7600 
    123 O         -6.2752  -16.5436  -53.8851 O.2       22 UNK        -0.5000 
    124 C124       -5.0372  -16.2545  -50.7561 C.3       23 UNK        -0.0398 
    125 S125       -5.3392  -18.0437  -50.5061 S.3       23 UNK        -0.2404 
    126 C126       -4.2829  -18.3973  -49.0636 C.3       23 UNK        -0.0205 
    127 H127       -2.0664  -12.6470  -45.5789 H         1 UNK         0.0600 
    128 H128       -2.7766  -14.1434  -46.2131 H         1 UNK         0.0600 
    129 H129       -3.3989  -12.5775  -46.7286 H         1 UNK         0.0600 
    130 H130       -0.0515  -13.9762  -46.4556 H         1 UNK         0.3000 
    131 H131        0.4738  -13.5032  -49.3265 H         1 UNK         0.0600 
    132 H132        2.4183  -14.6058  -47.2402 H         1 UNK         0.0800 
    133 H133        2.5857  -14.6710  -48.9757 H         1 UNK         0.0800 
    134 H134        1.1428  -16.6427  -50.5476 H         1 UNK         0.0800 
    135 H135       -0.1797  -15.6040  -50.0575 H         1 UNK         0.0800 
    136 H136       -2.2894  -16.5164  -49.2402 H         1 UNK         0.1150 
    137 H137       -3.0048  -20.7217  -49.6508 H         1 UNK         0.1150 
    138 H138        0.9112  -19.1279  -50.3526 H         1 UNK         0.1150 
    139 H139       -1.2564  -22.2233  -50.0266 H         1 UNK         0.0800 
    140 H140       -0.3272  -21.6037  -51.3756 H         1 UNK         0.0800 
    141 H141       -0.1764  -20.8019  -47.6486 H         1 UNK         0.0800 
    142 H142        1.5226  -20.9534  -47.3451 H         1 UNK         0.0800 
    143 H143        1.2150  -23.4454  -46.9722 H         1 UNK         0.0600 
    144 H144        0.5421  -21.3428  -45.2030 H         1 UNK         0.3000 
    145 H145        0.1216  -23.2955  -42.2437 H         1 UNK         0.0600 
    146 H146        2.2812  -21.3216  -43.1596 H         1 UNK         0.0600 
    147 H147        1.8803  -21.7220  -41.4915 H         1 UNK         0.0600 
    148 H148        2.5795  -22.9435  -42.5443 H         1 UNK         0.0600 
    149 H149       -0.0133  -20.4890  -42.6738 H         1 UNK         0.3000 
    150 H150       -3.5394  -20.3399  -43.4133 H         1 UNK         0.0600 
    151 H151       -3.2129  -20.3691  -40.9418 H         1 UNK         0.0600 
    152 H152       -3.3245  -18.7219  -41.5451 H         1 UNK         0.0600 
    153 H153       -1.7575  -19.3949  -41.1045 H         1 UNK         0.0600 
    154 H154       -1.6311  -18.2601  -43.3572 H         1 UNK         0.3000 
    155 H155       -0.6236  -18.4237  -46.7942 H         1 UNK         0.0600 
    156 H156       -2.7651  -17.1473  -46.6411 H         1 UNK         0.0600 
    157 H157       -1.3756  -16.0794  -46.6279 H         1 UNK         0.0600 
    158 H158       -2.2471  -16.4183  -45.1350 H         1 UNK         0.0600 
    159 H159        0.2184  -16.7069  -44.6984 H         1 UNK         0.3000 
    160 H160        2.9357  -18.7140  -43.4907 H         1 UNK         0.0600 
    161 H161        2.7766  -16.1252  -45.1274 H         1 UNK         0.0600 
    162 H162        3.7985  -17.5094  -45.4669 H         1 UNK         0.0600 
    163 H163        4.0831  -16.5500  -44.0223 H         1 UNK         0.0600 
    164 H164        1.8653  -16.1502  -42.7603 H         1 UNK         0.3000 
    165 H165       -0.4402  -17.2902  -40.3102 H         1 UNK         0.0600 
    166 H166        0.9323  -15.8279  -38.8461 H         1 UNK         0.0600 
    167 H167        1.7576  -17.3537  -39.1199 H         1 UNK         0.0600 
    168 H168        2.2816  -15.9103  -39.9793 H         1 UNK         0.0600 
    169 H169        0.4370  -14.6889  -41.1002 H         1 UNK         0.3000 
    170 H170       -1.5618  -14.2913  -43.9737 H         1 UNK         0.0600 
    171 H171       -3.3131  -13.9257  -42.2406 H         1 UNK         0.0600 
    172 H172       -2.1481  -13.1048  -41.2081 H         1 UNK         0.0600 
    173 H173       -2.6149  -12.3989  -42.7563 H         1 UNK         0.0600 
    174 H174        0.0110  -12.5528  -42.2436 H         1 UNK         0.3000 
    175 H175        2.0162  -11.6451  -43.2842 H         1 UNK         0.0600 
    176 H176        3.1949  -14.2917  -42.2116 H         1 UNK         0.0600 
    177 H177        3.7516  -12.6802  -41.7789 H         1 UNK         0.0600 
    178 H178        2.1670  -13.2100  -41.2779 H         1 UNK         0.0600 
    179 H179        2.9596  -13.4570  -45.2284 H         1 UNK         0.3000 
    180 H180        6.2000  -11.8778  -45.7363 H         1 UNK         0.0600 
    181 H181        4.8432  -14.6170  -46.0028 H         1 UNK         0.0600 
    182 H182        6.1690  -14.2509  -44.9064 H         1 UNK         0.0600 
    183 H183        6.4165  -14.1505  -46.6418 H         1 UNK         0.0600 
    184 H184        4.2765  -12.8953  -47.6244 H         1 UNK         0.3000 
    185 H185        2.8975   -9.8330  -48.6496 H         1 UNK         0.0600 
    186 H186        3.7548  -10.4437  -50.8988 H         1 UNK         0.0600 
    187 H187        5.0482   -9.7709  -49.9202 H         1 UNK         0.0600 
    188 H188        4.9631  -11.5090  -50.1787 H         1 UNK         0.0600 
    189 H189        2.7277  -12.4672  -49.7261 H         1 UNK         0.3000 
    190 H190       -1.9873  -21.9065  -46.2769 H         1 UNK         0.3000 
    191 H191       -3.4881  -23.6012  -47.9679 H         1 UNK         0.0600 
    192 H192       -4.2981  -21.3958  -47.1868 H         1 UNK         0.0600 
    193 H193       -5.4459  -22.6453  -46.7299 H         1 UNK         0.0600 
    194 H194       -4.3552  -21.9718  -45.5213 H         1 UNK         0.0600 
    195 H195       -2.4924  -24.0576  -44.5787 H         1 UNK         0.3000 
    196 H196       -4.1091  -26.3219  -44.0013 H         1 UNK         0.0600 
    197 H197       -2.4304  -26.7219  -42.1925 H         1 UNK         0.0600 
    198 H198       -2.9231  -25.0379  -42.2535 H         1 UNK         0.0600 
    199 H199       -1.3605  -25.5242  -42.9087 H         1 UNK         0.0600 
    200 H200       -1.2726  -26.0268  -46.0249 H         1 UNK         0.3000 
    201 H201       -0.9252  -28.9730  -46.2703 H         1 UNK         0.0600 
    202 H202        1.1108  -27.5458  -45.9024 H         1 UNK         0.0600 
    203 H203        0.7441  -26.6520  -47.3761 H         1 UNK         0.0600 
    204 H204        1.1487  -28.3618  -47.4568 H         1 UNK         0.0600 
    205 H205       -3.0662  -26.8760  -47.4208 H         1 UNK         0.3000 
    206 H206       -4.4128  -26.6158  -49.1131 H         1 UNK         0.0600 
    207 H207       -3.1488  -29.0406  -50.4996 H         1 UNK         0.0600 
    208 H208       -4.5479  -29.0625  -49.4310 H         1 UNK         0.0600 
    209 H209       -4.6280  -28.2227  -50.9712 H         1 UNK         0.0600 
    210 H210       -1.4270  -27.6229  -50.7494 H         1 UNK         0.3000 
    211 H211       -0.1285  -26.7410  -52.3485 H         1 UNK         0.0600 
    212 H212        0.9202  -24.5578  -51.5822 H         1 UNK         0.0600 
    213 H213        0.8081  -25.7791  -50.3258 H         1 UNK         0.0600 
    214 H214       -0.3281  -24.4452  -50.3399 H         1 UNK         0.0600 
    215 H215       -1.2969  -23.4894  -51.8792 H         1 UNK         0.3000 
    216 H216       -2.6914  -23.4411  -54.5015 H         1 UNK         0.0600 
    217 H217       -1.4611  -21.3822  -55.1255 H         1 UNK         0.0600 
    218 H218       -0.3357  -22.7071  -54.8985 H         1 UNK         0.0600 
    219 H219       -0.5012  -21.4691  -53.6579 H         1 UNK         0.0600 
    220 H220       -3.7527  -23.5719  -51.7747 H         1 UNK         0.3000 
    221 H221       -4.8236  -21.0769  -50.9603 H         1 UNK         0.0600 
    222 H222       -5.9972  -23.9004  -50.7727 H         1 UNK         0.0600 
    223 H223       -4.9853  -23.1057  -49.5710 H         1 UNK         0.0600 
    224 H224       -6.5975  -22.4955  -49.8959 H         1 UNK         0.0600 
    225 H225       -6.2799  -19.7693  -51.7979 H         1 UNK         0.3000 
    226 H226       -7.7132  -18.7569  -53.0942 H         1 UNK         0.0600 
    227 H227       -9.3424  -20.5442  -52.4179 H         1 UNK         0.0600 
    228 H228       -9.6846  -19.8777  -54.0047 H         1 UNK         0.0600 
    229 H229       -8.9275  -21.4562  -53.8696 H         1 UNK         0.0600 
    230 H230       -5.1078  -19.9706  -54.2022 H         1 UNK         0.3000 
    231 H231       -5.5876  -19.1108  -57.0251 H         1 UNK         0.0600 
    232 H232       -3.6657  -21.2898  -56.0514 H         1 UNK         0.0600 
    233 H233       -3.7356  -20.6447  -57.6861 H         1 UNK         0.0600 
    234 H234       -5.1046  -21.5330  -57.0335 H         1 UNK         0.0600 
    235 H235       -3.1720  -19.4288  -54.3560 H         1 UNK         0.3000 
    236 H236       -1.5362  -17.2161  -55.3092 H         1 UNK         0.0600 
    237 H237       -0.5008  -19.0230  -54.0140 H         1 UNK         0.0600 
    238 H238       -0.4111  -17.5430  -53.0725 H         1 UNK         0.0600 
    239 H239       -1.6071  -18.7681  -52.6673 H         1 UNK         0.0600 
    240 H240       -3.7674  -17.7235  -52.5424 H         1 UNK         0.3000 
    241 H241       -4.1881  -14.8579  -52.1375 H         1 UNK         0.0600 
    242 H242       -7.4335  -14.4289  -53.5572 H         1 UNK         0.3800 
    243 H243       -6.3387  -13.8130  -52.3536 H         1 UNK         0.3800 
    244 H244       -4.2439  -15.9289  -50.0869 H         1 UNK         0.0800 
    245 H245       -5.9197  -15.7105  -50.4150 H         1 UNK         0.0800 
    246 H246       -4.6558  -19.2979  -48.5740 H         1 UNK         0.0800 
    247 H247       -4.3838  -17.5977  -48.3290 H         1 UNK         0.0800 
@<TRIPOS>BOND
     1    1    2 1    
     2    1  127 1    
     3    1  128 1    
     4    1  129 1    
     5    2    3 2    
     6    2    4 am   BACKBONE|DICT|INTERRES
     7    4    5 1    
     8    4  130 1    
     9    5    6 1    
    10    5   65 1    
    11    5  131 1    
    12    6    7 1    
    13    6  132 1    
    14    6  133 1    
    15    7    8 1    
    16    8    9 1    
    17    8  134 1    
    18    8  135 1    
    19    9   10 ar   
    20    9   14 ar   
    21   10   11 ar   
    22   10  136 1    
    23   11   12 ar   
    24   11  126 1    
    25   12   13 ar   
    26   12  137 1    
    27   13   14 ar   
    28   13   15 1    
    29   14  138 1    
    30   15   16 1    
    31   15  139 1    
    32   15  140 1    
    33   16   17 1    
    34   17   18 1    
    35   17  141 1    
    36   17  142 1    
    37   18   19 1    
    38   18   67 1    
    39   18  143 1    
    40   19   20 am   BACKBONE|DICT|INTERRES
    41   19  144 1    
    42   20   21 2    
    43   20   22 1    
    44   22   23 1    
    45   22   24 1    
    46   22  145 1    
    47   23  146 1    
    48   23  147 1    
    49   23  148 1    
    50   24   25 am   BACKBONE|DICT|INTERRES
    51   24  149 1    
    52   25   26 2    
    53   25   27 1    
    54   27   28 1    
    55   27   29 1    
    56   27  150 1    
    57   28  151 1    
    58   28  152 1    
    59   28  153 1    
    60   29   30 am   BACKBONE|DICT|INTERRES
    61   29  154 1    
    62   30   31 2    
    63   30   32 1    
    64   32   33 1    
    65   32   34 1    
    66   32  155 1    
    67   33  156 1    
    68   33  157 1    
    69   33  158 1    
    70   34   35 am   BACKBONE|DICT|INTERRES
    71   34  159 1    
    72   35   36 2    
    73   35   37 1    
    74   37   38 1    
    75   37   39 1    
    76   37  160 1    
    77   38  161 1    
    78   38  162 1    
    79   38  163 1    
    80   39   40 am   BACKBONE|DICT|INTERRES
    81   39  164 1    
    82   40   41 2    
    83   40   42 1    
    84   42   43 1    
    85   42   44 1    
    86   42  165 1    
    87   43  166 1    
    88   43  167 1    
    89   43  168 1    
    90   44   45 am   BACKBONE|DICT|INTERRES
    91   44  169 1    
    92   45   46 2    
    93   45   47 1    
    94   47   48 1    
    95   47   49 1    
    96   47  170 1    
    97   48  171 1    
    98   48  172 1    
    99   48  173 1    
   100   49   50 am   BACKBONE|DICT|INTERRES
   101   49  174 1    
   102   50   51 2    
   103   50   52 1    
   104   52   53 1    
   105   52   54 1    
   106   52  175 1    
   107   53  176 1    
   108   53  177 1    
   109   53  178 1    
   110   54   55 am   BACKBONE|DICT|INTERRES
   111   54  179 1    
   112   55   56 2    
   113   55   57 1    
   114   57   58 1    
   115   57   59 1    
   116   57  180 1    
   117   58  181 1    
   118   58  182 1    
   119   58  183 1    
   120   59   60 am   BACKBONE|DICT|INTERRES
   121   59  184 1    
   122   60   61 2    
   123   60   62 1    
   124   62   63 1    
   125   62   64 1    
   126   62  185 1    
   127   63  186 1    
   128   63  187 1    
   129   63  188 1    
   130   64   65 am   BACKBONE|DICT|INTERRES
   131   64  189 1    
   132   65   66 2    
   133   67   68 2    
   134   67   69 am   BACKBONE|DICT|INTERRES
   135   69   70 1    
   136   69  190 1    
   137   70   71 1    
   138   70   72 1    
   139   70  191 1    
   140   71  192 1    
   141   71  193 1    
   142   71  194 1    
   143   72   73 2    
   144   72   74 am   BACKBONE|DICT|INTERRES
   145   74   75 1    
   146   74  195 1    
   147   75   76 1    
   148   75   77 1    
   149   75  196 1    
   150   76  197 1    
   151   76  198 1    
   152   76  199 1    
   153   77   78 2    
   154   77   79 am   BACKBONE|DICT|INTERRES
   155   79   80 1    
   156   79  200 1    
   157   80   81 1    
   158   80   82 1    
   159   80  201 1    
   160   81  202 1    
   161   81  203 1    
   162   81  204 1    
   163   82   83 2    
   164   82   84 am   BACKBONE|DICT|INTERRES
   165   84   85 1    
   166   84  205 1    
   167   85   86 1    
   168   85   87 1    
   169   85  206 1    
   170   86  207 1    
   171   86  208 1    
   172   86  209 1    
   173   87   88 2    
   174   87   89 am   BACKBONE|DICT|INTERRES
   175   89   90 1    
   176   89  210 1    
   177   90   91 1    
   178   90   92 1    
   179   90  211 1    
   180   91  212 1    
   181   91  213 1    
   182   91  214 1    
   183   92   93 2    
   184   92   94 am   BACKBONE|DICT|INTERRES
   185   94   95 1    
   186   94  215 1    
   187   95   96 1    
   188   95   97 1    
   189   95  216 1    
   190   96  217 1    
   191   96  218 1    
   192   96  219 1    
   193   97   98 2    
   194   97   99 am   BACKBONE|DICT|INTERRES
   195   99  100 1    
   196   99  220 1    
   197  100  101 1    
   198  100  102 1    
   199  100  221 1    
   200  101  222 1    
   201  101  223 1    
   202  101  224 1    
   203  102  103 2    
   204  102  104 am   BACKBONE|DICT|INTERRES
   205  104  105 1    
   206  104  225 1    
   207  105  106 1    
   208  105  107 1    
   209  105  226 1    
   210  106  227 1    
   211  106  228 1    
   212  106  229 1    
   213  107  108 2    
   214  107  109 am   BACKBONE|DICT|INTERRES
   215  109  110 1    
   216  109  230 1    
   217  110  111 1    
   218  110  112 1    
   219  110  231 1    
   220  111  232 1    
   221  111  233 1    
   222  111  234 1    
   223  112  113 2    
   224  112  114 am   BACKBONE|DICT|INTERRES
   225  114  115 1    
   226  114  235 1    
   227  115  116 1    
   228  115  117 1    
   229  115  236 1    
   230  116  237 1    
   231  116  238 1    
   232  116  239 1    
   233  117  118 2    
   234  117  119 am   BACKBONE|DICT|INTERRES
   235  119  120 1    
   236  119  240 1    
   237  120  121 1    
   238  120  124 1    
   239  120  241 1    
   240  121  122 am   BACKBONE|DICT|INTERRES
   241  121  123 2    
   242  122  242 1    
   243  122  243 1    
   244  124  125 1    
   245  124  244 1    
   246  124  245 1    
   247  125  126 1    
   248  126  246 1    
   249  126  247 1    
@<TRIPOS>SUBSTRUCTURE
     1 UNK         1 GROUP             0       ****    0 ROOT    
