@<TRIPOS>MOLECULE
3R540
247   249    1
SMALL
USER_CHARGES


@<TRIPOS>ATOM
      1 CA         -5.9811  -15.0382  -50.4672 C.3       0 UNK        -0.1800 
      2 C          -4.8044  -14.3394  -49.8032 C.2       0 UNK         0.5000 
      3 O          -4.9638  -13.2407  -49.2719 O.2       0 UNK        -0.5000 
      4 N          -3.6291  -14.9759  -49.8277 N.am      1 UNK        -0.5000 
      5 CA         -2.3846  -14.4871  -49.2228 C.3       1 UNK         0.1400 
      6 C6         -1.1659  -14.7051  -50.1576 C.3       23 UNK        -0.0398 
      7 S7         -0.8690  -16.4468  -50.6222 S.3       23 UNK        -0.2404 
      8 C8          0.8598  -16.6807  -50.0923 C.3       23 UNK        -0.0205 
      9 C9          1.3247  -18.1331  -50.1723 C.ar      23 UNK        -0.0193 
     10 C10         1.0423  -18.9212  -51.2933 C.ar      23 UNK        -0.1150 
     11 C11         1.4985  -20.2398  -51.3725 C.ar      23 UNK        -0.0193 
     12 C12         2.2422  -20.7744  -50.3181 C.ar      23 UNK        -0.1150 
     13 C13         2.5163  -20.0096  -49.1805 C.ar      23 UNK        -0.0193 
     14 C14         2.0674  -18.6861  -49.1236 C.ar      23 UNK        -0.1150 
     15 C15         3.2905  -20.6077  -48.0081 C.3       23 UNK        -0.0205 
     16 S16         2.5878  -22.1779  -47.3858 S.3       23 UNK        -0.2404 
     17 C17         0.7975  -21.8299  -47.3764 C.3       23 UNK        -0.0398 
     18 CA          0.0067  -22.7131  -46.3862 C.3       11 UNK         0.1400 
     19 N           0.3883  -22.4398  -44.9952 N.am      11 UNK        -0.5000 
     20 C           0.1564  -23.2329  -43.9414 C.2       10 UNK         0.5000 
     21 O          -0.4103  -24.3223  -44.0193 O.2       10 UNK        -0.5000 
     22 CA          0.5588  -22.6697  -42.5661 C.3       10 UNK         0.1400 
     23 CB          2.0441  -22.9353  -42.2777 C.3       10 UNK        -0.1800 
     24 N           0.2831  -21.2318  -42.4826 N.am      10 UNK        -0.5000 
     25 C          -0.9465  -20.7198  -42.3089 C.2       9 UNK         0.5000 
     26 O          -1.9394  -21.4131  -42.0930 O.2       9 UNK        -0.5000 
     27 CA         -1.1144  -19.1903  -42.4297 C.3       9 UNK         0.1400 
     28 CB         -1.0326  -18.5224  -41.0498 C.3       9 UNK        -0.1800 
     29 N          -0.1366  -18.5686  -43.3215 N.am      9 UNK        -0.5000 
     30 C          -0.0431  -18.8054  -44.6367 C.2       8 UNK         0.5000 
     31 O          -0.8365  -19.5053  -45.2611 O.2       8 UNK        -0.5000 
     32 CA          1.1734  -18.2143  -45.3683 C.3       8 UNK         0.1400 
     33 CB          0.7897  -16.9541  -46.1473 C.3       8 UNK        -0.1800 
     34 N           2.2850  -17.9087  -44.4707 N.am      8 UNK        -0.5000 
     35 C           3.0267  -18.8248  -43.8353 C.2       7 UNK         0.5000 
     36 O           2.8239  -20.0359  -43.9368 O.2       7 UNK        -0.5000 
     37 CA          4.1381  -18.2918  -42.9055 C.3       7 UNK         0.1400 
     38 CB          5.2483  -19.3314  -42.6475 C.3       7 UNK        -0.1800 
     39 N           4.7051  -17.0122  -43.3516 N.am      7 UNK        -0.5000 
     40 C           5.3543  -16.7631  -44.4985 C.2       6 UNK         0.5000 
     41 O           5.5920  -17.6175  -45.3540 O.2       6 UNK        -0.5000 
     42 CA          5.7674  -15.2945  -44.7324 C.3       6 UNK         0.1400 
     43 CB          6.5841  -15.1041  -46.0236 C.3       6 UNK        -0.1800 
     44 N           4.5963  -14.4175  -44.7875 N.am      6 UNK        -0.5000 
     45 C           3.9239  -13.9443  -43.7306 C.2       5 UNK         0.5000 
     46 O           4.2587  -14.1729  -42.5652 O.2       5 UNK        -0.5000 
     47 CA          2.6747  -13.0777  -44.0152 C.3       5 UNK         0.1400 
     48 CB          2.1162  -13.2368  -45.4472 C.3       5 UNK        -0.1800 
     49 N           1.5985  -13.2827  -43.0403 N.am      5 UNK        -0.5000 
     50 C           1.0098  -14.4406  -42.7081 C.2       4 UNK         0.5000 
     51 O           1.3382  -15.5396  -43.1564 O.2       4 UNK        -0.5000 
     52 CA         -0.1574  -14.3702  -41.7074 C.3       4 UNK         0.1400 
     53 CB         -0.0183  -13.2445  -40.6587 C.3       4 UNK        -0.1800 
     54 N          -1.4503  -14.3122  -42.3953 N.am      4 UNK        -0.5000 
     55 C          -1.9292  -13.3369  -43.1804 C.2       3 UNK         0.5000 
     56 O          -1.3278  -12.2900  -43.4273 O.2       3 UNK        -0.5000 
     57 CA         -3.3260  -13.5881  -43.7908 C.3       3 UNK         0.1400 
     58 CB         -3.9881  -12.2937  -44.2961 C.3       3 UNK        -0.1800 
     59 N          -3.2838  -14.5462  -44.8948 N.am      3 UNK        -0.5000 
     60 C          -3.0573  -15.8611  -44.7894 C.2       2 UNK         0.5000 
     61 O          -2.8975  -16.4295  -43.7081 O.2       2 UNK        -0.5000 
     62 CA         -3.0277  -16.6973  -46.0880 C.3       2 UNK         0.1400 
     63 CB         -4.1762  -17.7201  -46.0875 C.3       2 UNK        -0.1800 
     64 N          -3.0721  -15.9468  -47.3500 N.am      2 UNK        -0.5000 
     65 C          -2.1623  -15.0716  -47.8091 C.2       1 UNK         0.5000 
     66 O          -1.1855  -14.7047  -47.1593 O.2       1 UNK        -0.5000 
     67 C          -1.5167  -22.5995  -46.6433 C.2       11 UNK         0.5000 
     68 O          -1.9576  -22.8242  -47.7716 O.2       11 UNK        -0.5000 
     69 N          -2.3120  -22.2740  -45.6141 N.am      12 UNK        -0.5000 
     70 CA         -3.7700  -22.3872  -45.6338 C.3       12 UNK         0.1400 
     71 CB         -4.3560  -21.6493  -44.4231 C.3       12 UNK        -0.1800 
     72 C          -4.2360  -23.8582  -45.6585 C.2       12 UNK         0.5000 
     73 O          -5.3462  -24.1297  -46.1175 O.2       12 UNK        -0.5000 
     74 N          -3.3763  -24.7875  -45.2075 N.am      13 UNK        -0.5000 
     75 CA         -3.5442  -26.2303  -45.3774 C.3       13 UNK         0.1400 
     76 CB         -2.4192  -26.9676  -44.6369 C.3       13 UNK        -0.1800 
     77 C          -3.5490  -26.5973  -46.8730 C.2       13 UNK         0.5000 
     78 O          -2.6675  -26.1535  -47.6116 O.2       13 UNK        -0.5000 
     79 N          -4.5756  -27.3494  -47.2920 N.am      14 UNK        -0.5000 
     80 CA         -4.9161  -27.6831  -48.6832 C.3       14 UNK         0.1400 
     81 CB         -3.7992  -28.5116  -49.3530 C.3       14 UNK        -0.1800 
     82 C          -5.3401  -26.4624  -49.5354 C.2       14 UNK         0.5000 
     83 O          -5.4134  -26.5765  -50.7595 O.2       14 UNK        -0.5000 
     84 N          -5.6356  -25.3299  -48.8758 N.am      15 UNK        -0.5000 
     85 CA         -6.1278  -24.0632  -49.4252 C.3       15 UNK         0.1400 
     86 CB         -7.5417  -24.2458  -50.0169 C.3       15 UNK        -0.1800 
     87 C          -5.1673  -23.3612  -50.4086 C.2       15 UNK         0.5000 
     88 O          -5.6190  -22.5116  -51.1765 O.2       15 UNK        -0.5000 
     89 N          -3.8672  -23.6886  -50.3678 N.am      16 UNK        -0.5000 
     90 CA         -2.8619  -23.1873  -51.3099 C.3       16 UNK         0.1400 
     91 CB         -1.5291  -23.9184  -51.0911 C.3       16 UNK        -0.1800 
     92 C          -2.6844  -21.6599  -51.2483 C.2       16 UNK         0.5000 
     93 O          -2.7614  -20.9957  -52.2832 O.2       16 UNK        -0.5000 
     94 N          -2.5091  -21.1228  -50.0344 N.am      17 UNK        -0.5000 
     95 CA         -2.4384  -19.6800  -49.7976 C.3       17 UNK         0.1400 
     96 CB         -1.6775  -19.3978  -48.5003 C.3       17 UNK        -0.1800 
     97 C          -3.8203  -19.0093  -49.7583 C.2       17 UNK         0.5000 
     98 O          -3.9114  -17.8112  -50.0191 O.2       17 UNK        -0.5000 
     99 N          -4.8742  -19.7765  -49.4479 N.am      18 UNK        -0.5000 
    100 CA        -6.2576  -19.2928  -49.4210 C.3       18 UNK         0.1400 
    101 CB        -7.1484  -20.3084  -48.6918 C.3       18 UNK        -0.1800 
    102 C         -6.7918  -18.9939  -50.8345 C.2       18 UNK         0.5000 
    103 O         -7.4878  -17.9973  -51.0254 O.2       18 UNK        -0.5000 
    104 N         -6.4160  -19.8375  -51.8048 N.am      19 UNK        -0.5000 
    105 CA        -6.6332  -19.6139  -53.2344 C.3       19 UNK         0.1400 
    106 CB        -6.5934  -20.9721  -53.9526 C.3       19 UNK        -0.1800 
    107 C         -5.5864  -18.6624  -53.8492 C.2       19 UNK         0.5000 
    108 O         -5.8157  -18.1458  -54.9431 O.2       19 UNK        -0.5000 
    109 N         -4.4551  -18.4777  -53.1499 N.am      20 UNK        -0.5000 
    110 CA        -3.2422  -17.7653  -53.5649 C.3       20 UNK         0.1400 
    111 CB        -3.4985  -16.2500  -53.6863 C.3       20 UNK        -0.1800 
    112 C         -2.6203  -18.3912  -54.8304 C.2       20 UNK         0.5000 
    113 O         -2.2449  -17.6827  -55.7670 O.2       20 UNK        -0.5000 
    114 N         -2.5324  -19.7292  -54.8279 N.am      21 UNK        -0.5000 
    115 CA        -2.1201  -20.5738  -55.9534 C.3       21 UNK         0.1400 
    116 CB        -2.3058  -22.0454  -55.5510 C.3       21 UNK        -0.1800 
    117 C         -0.6794  -20.3277  -56.4420 C.2       21 UNK         0.5000 
    118 O         -0.3716  -20.6111  -57.6003 O.2       21 UNK        -0.5000 
    119 N          0.1644  -19.7957  -55.5528 N.am      22 UNK        -0.5000 
    120 CA         1.5472  -19.3839  -55.8278 C.3       22 UNK         0.1400 
    121 C          1.6620  -17.9896  -56.5148 C.2       22 UNK         0.5000 
    122 N          0.5857  -17.2293  -56.6886 N.am      22 UNK        -0.7600 
    123 O          2.7542  -17.5911  -56.9100 O.2       22 UNK        -0.5000 
    124 C124        2.4200  -19.4487  -54.5478 C.3       23 UNK        -0.0398 
    125 S125        2.5005  -21.1237  -53.8186 S.3       23 UNK        -0.2404 
    126 C126        1.1634  -21.1013  -52.5792 C.3       23 UNK        -0.0205 
    127 H127       -6.7066  -15.3512  -49.7165 H         1 UNK         0.0600 
    128 H128       -5.6640  -15.9213  -51.0221 H         1 UNK         0.0600 
    129 H129       -6.4772  -14.3634  -51.1646 H         1 UNK         0.0600 
    130 H130       -3.5827  -15.9190  -50.2077 H         1 UNK         0.3000 
    131 H131       -2.4649  -13.4080  -49.0769 H         1 UNK         0.0600 
    132 H132       -1.3202  -14.1445  -51.0803 H         1 UNK         0.0800 
    133 H133       -0.2656  -14.2802  -49.7105 H         1 UNK         0.0800 
    134 H134        0.9643  -16.3063  -49.0735 H         1 UNK         0.0800 
    135 H135        1.5103  -16.0691  -50.7184 H         1 UNK         0.0800 
    136 H136        0.4641  -18.5058  -52.1057 H         1 UNK         0.1150 
    137 H137        2.5913  -21.7960  -50.3731 H         1 UNK         0.1150 
    138 H138        2.3005  -18.0832  -48.2591 H         1 UNK         0.1150 
    139 H139        3.3486  -19.9012  -47.1792 H         1 UNK         0.0800 
    140 H140        4.3193  -20.7863  -48.3227 H         1 UNK         0.0800 
    141 H141        0.4394  -21.9721  -48.3978 H         1 UNK         0.0800 
    142 H142        0.6451  -20.7804  -47.1351 H         1 UNK         0.0800 
    143 H143        0.2604  -23.7541  -46.5972 H         1 UNK         0.0600 
    144 H144        0.8559  -21.5594  -44.8331 H         1 UNK         0.3000 
    145 H145       -0.0283  -23.1865  -41.8038 H         1 UNK         0.0600 
    146 H146        2.2473  -24.0066  -42.2541 H         1 UNK         0.0600 
    147 H147        2.3386  -22.5269  -41.3109 H         1 UNK         0.0600 
    148 H148        2.6921  -22.4994  -43.0382 H         1 UNK         0.0600 
    149 H149        1.0551  -20.6103  -42.6867 H         1 UNK         0.3000 
    150 H150       -2.1083  -19.0036  -42.8421 H         1 UNK         0.0600 
    151 H151       -0.0376  -18.6168  -40.6132 H         1 UNK         0.0600 
    152 H152       -1.7421  -18.9731  -40.3545 H         1 UNK         0.0600 
    153 H153       -1.2758  -17.4622  -41.1146 H         1 UNK         0.0600 
    154 H154        0.5356  -17.9396  -42.9055 H         1 UNK         0.3000 
    155 H155        1.5218  -18.9593  -46.0819 H         1 UNK         0.0600 
    156 H156        1.6607  -16.4855  -46.6041 H         1 UNK         0.0600 
    157 H157        0.3078  -16.2156  -45.5062 H         1 UNK         0.0600 
    158 H158        0.0948  -17.1968  -46.9507 H         1 UNK         0.0600 
    159 H159        2.4188  -16.9301  -44.2424 H         1 UNK         0.3000 
    160 H160        3.6530  -18.0878  -41.9500 H         1 UNK         0.0600 
    161 H161        5.7351  -19.6429  -43.5721 H         1 UNK         0.0600 
    162 H162        4.8428  -20.2276  -42.1762 H         1 UNK         0.0600 
    163 H163        6.0140  -18.9344  -41.9813 H         1 UNK         0.0600 
    164 H164        4.5247  -16.2153  -42.7490 H         1 UNK         0.3000 
    165 H165        6.4005  -14.9962  -43.8940 H         1 UNK         0.0600 
    166 H166        7.4826  -15.7225  -46.0127 H         1 UNK         0.0600 
    167 H167        6.0086  -15.3747  -46.9098 H         1 UNK         0.0600 
    168 H168        6.9063  -14.0688  -46.1366 H         1 UNK         0.0600 
    169 H169        4.2438  -14.2079  -45.7101 H         1 UNK         0.3000 
    170 H170        2.9952  -12.0418  -43.8985 H         1 UNK         0.0600 
    171 H171        1.2174  -12.6348  -45.5840 H         1 UNK         0.0600 
    172 H172        1.8501  -14.2703  -45.6654 H         1 UNK         0.0600 
    173 H173        2.8342  -12.9073  -46.1986 H         1 UNK         0.0600 
    174 H174        1.2354  -12.4428  -42.6130 H         1 UNK         0.3000 
    175 H175       -0.1445  -15.3146  -41.1622 H         1 UNK         0.0600 
    176 H176        0.9392  -13.3131  -40.1407 H         1 UNK         0.0600 
    177 H177       -0.0839  -12.2480  -41.0952 H         1 UNK         0.0600 
    178 H178       -0.7991  -13.3222  -39.9021 H         1 UNK         0.0600 
    179 H179       -1.9891  -15.1721  -42.3762 H         1 UNK         0.3000 
    180 H180       -3.9614  -13.9973  -43.0024 H         1 UNK         0.0600 
    181 H181       -3.4304  -11.8501  -45.1220 H         1 UNK         0.0600 
    182 H182       -4.0474  -11.5492  -43.5011 H         1 UNK         0.0600 
    183 H183       -5.0053  -12.4801  -44.6412 H         1 UNK         0.0600 
    184 H184       -3.3645  -14.1609  -45.8237 H         1 UNK         0.3000 
    185 H185       -2.0908  -17.2509  -46.0752 H         1 UNK         0.0600 
    186 H186       -4.0853  -18.4213  -46.9147 H         1 UNK         0.0600 
    187 H187       -5.1487  -17.2328  -46.1636 H         1 UNK         0.0600 
    188 H188       -4.1757  -18.3121  -45.1717 H         1 UNK         0.0600 
    189 H189       -3.8344  -16.1745  -47.9724 H         1 UNK         0.3000 
    190 H190       -1.8844  -22.0371  -44.7308 H         1 UNK         0.3000 
    191 H191       -4.1388  -21.9023  -46.5402 H         1 UNK         0.0600 
    192 H192       -3.9923  -20.6232  -44.3696 H         1 UNK         0.0600 
    193 H193       -5.4442  -21.6088  -44.4829 H         1 UNK         0.0600 
    194 H194       -4.0986  -22.1462  -43.4873 H         1 UNK         0.0600 
    195 H195       -2.4714  -24.4850  -44.8688 H         1 UNK         0.3000 
    196 H196       -4.4986  -26.5138  -44.9290 H         1 UNK         0.0600 
    197 H197       -2.5456  -28.0483  -44.7120 H         1 UNK         0.0600 
    198 H198       -2.4098  -26.7125  -43.5770 H         1 UNK         0.0600 
    199 H199       -1.4391  -26.7221  -45.0483 H         1 UNK         0.0600 
    200 H200       -5.2504  -27.6569  -46.6046 H         1 UNK         0.3000 
    201 H201       -5.7996  -28.3204  -48.6254 H         1 UNK         0.0600 
    202 H202       -4.1330  -28.9146  -50.3098 H         1 UNK         0.0600 
    203 H203       -3.5076  -29.3578  -48.7310 H         1 UNK         0.0600 
    204 H204       -2.9084  -27.9142  -49.5482 H         1 UNK         0.0600 
    205 H205       -5.5225  -25.3272  -47.8685 H         1 UNK         0.3000 
    206 H206       -6.2177  -23.3879  -48.5741 H         1 UNK         0.0600 
    207 H207       -8.2145  -24.7070  -49.2939 H         1 UNK         0.0600 
    208 H208       -7.9822  -23.2893  -50.2997 H         1 UNK         0.0600 
    209 H209       -7.5283  -24.8713  -50.9098 H         1 UNK         0.0600 
    210 H210       -3.5540  -24.3583  -49.6784 H         1 UNK         0.3000 
    211 H211       -3.2119  -23.4315  -52.3151 H         1 UNK         0.0600 
    212 H212       -1.6552  -24.9983  -51.1713 H         1 UNK         0.0600 
    213 H213       -0.7979  -23.6229  -51.8433 H         1 UNK         0.0600 
    214 H214       -1.0997  -23.7051  -50.1122 H         1 UNK         0.0600 
    215 H215       -2.4218  -21.7399  -49.2293 H         1 UNK         0.3000 
    216 H216       -1.8791  -19.2205  -50.6142 H         1 UNK         0.0600 
    217 H217       -2.1325  -19.8913  -47.6421 H         1 UNK         0.0600 
    218 H218       -1.6465  -18.3294  -48.2887 H         1 UNK         0.0600 
    219 H219       -0.6467  -19.7284  -48.5901 H         1 UNK         0.0600 
    220 H220       -4.7220  -20.7585  -49.2785 H         1 UNK         0.3000 
    221 H221       -6.2780  -18.3597  -48.8533 H         1 UNK         0.0600 
    222 H222       -7.2210  -21.2462  -49.2397 H         1 UNK         0.0600 
    223 H223       -6.7680  -20.5266  -47.6936 H         1 UNK         0.0600 
    224 H224       -8.1614  -19.9210  -48.5768 H         1 UNK         0.0600 
    225 H225       -5.9259  -20.6933  -51.5542 H         1 UNK         0.3000 
    226 H226       -7.6204  -19.1719  -53.3843 H         1 UNK         0.0600 
    227 H227       -7.3455  -21.6523  -53.5522 H         1 UNK         0.0600 
    228 H228       -6.7908  -20.8585  -55.0193 H         1 UNK         0.0600 
    229 H229       -5.6193  -21.4524  -53.8474 H         1 UNK         0.0600 
    230 H230       -4.3847  -18.9667  -52.2698 H         1 UNK         0.3000 
    231 H231       -2.5146  -17.9112  -52.7659 H         1 UNK         0.0600 
    232 H232       -4.1957  -16.0173  -54.4914 H         1 UNK         0.0600 
    233 H233       -2.5707  -15.7144  -53.8902 H         1 UNK         0.0600 
    234 H234       -3.9056  -15.8461  -52.7602 H         1 UNK         0.0600 
    235 H235       -2.8026  -20.2205  -53.9781 H         1 UNK         0.3000 
    236 H236       -2.7888  -20.3572  -56.7887 H         1 UNK         0.0600 
    237 H237       -1.6748  -22.3108  -54.7015 H         1 UNK         0.0600 
    238 H238       -3.3404  -22.2520  -55.2760 H         1 UNK         0.0600 
    239 H239       -2.0484  -22.7131  -56.3741 H         1 UNK         0.0600 
    240 H240       -0.1933  -19.5812  -54.6359 H         1 UNK         0.3000 
    241 H241        1.9693  -20.0949  -56.5406 H         1 UNK         0.0600 
    242 H242       -0.3334  -17.5295  -56.3815 H         1 UNK         0.3800 
    243 H243        0.6857  -16.3347  -57.1412 H         1 UNK         0.3800 
    244 H244        3.4465  -19.1603  -54.7808 H         1 UNK         0.0800 
    245 H245        2.0751  -18.7281  -53.8080 H         1 UNK         0.0800 
    246 H246        0.2246  -20.7801  -53.0298 H         1 UNK         0.0800 
    247 H247        0.9946  -22.1258  -52.2472 H         1 UNK         0.0800 
@<TRIPOS>BOND
     1    1    2 1    
     2    1  127 1    
     3    1  128 1    
     4    1  129 1    
     5    2    3 2    
     6    2    4 am   BACKBONE|DICT|INTERRES
     7    4    5 1    
     8    4  130 1    
     9    5    6 1    
    10    5   65 1    
    11    5  131 1    
    12    6    7 1    
    13    6  132 1    
    14    6  133 1    
    15    7    8 1    
    16    8    9 1    
    17    8  134 1    
    18    8  135 1    
    19    9   10 ar   
    20    9   14 ar   
    21   10   11 ar   
    22   10  136 1    
    23   11   12 ar   
    24   11  126 1    
    25   12   13 ar   
    26   12  137 1    
    27   13   14 ar   
    28   13   15 1    
    29   14  138 1    
    30   15   16 1    
    31   15  139 1    
    32   15  140 1    
    33   16   17 1    
    34   17   18 1    
    35   17  141 1    
    36   17  142 1    
    37   18   19 1    
    38   18   67 1    
    39   18  143 1    
    40   19   20 am   BACKBONE|DICT|INTERRES
    41   19  144 1    
    42   20   21 2    
    43   20   22 1    
    44   22   23 1    
    45   22   24 1    
    46   22  145 1    
    47   23  146 1    
    48   23  147 1    
    49   23  148 1    
    50   24   25 am   BACKBONE|DICT|INTERRES
    51   24  149 1    
    52   25   26 2    
    53   25   27 1    
    54   27   28 1    
    55   27   29 1    
    56   27  150 1    
    57   28  151 1    
    58   28  152 1    
    59   28  153 1    
    60   29   30 am   BACKBONE|DICT|INTERRES
    61   29  154 1    
    62   30   31 2    
    63   30   32 1    
    64   32   33 1    
    65   32   34 1    
    66   32  155 1    
    67   33  156 1    
    68   33  157 1    
    69   33  158 1    
    70   34   35 am   BACKBONE|DICT|INTERRES
    71   34  159 1    
    72   35   36 2    
    73   35   37 1    
    74   37   38 1    
    75   37   39 1    
    76   37  160 1    
    77   38  161 1    
    78   38  162 1    
    79   38  163 1    
    80   39   40 am   BACKBONE|DICT|INTERRES
    81   39  164 1    
    82   40   41 2    
    83   40   42 1    
    84   42   43 1    
    85   42   44 1    
    86   42  165 1    
    87   43  166 1    
    88   43  167 1    
    89   43  168 1    
    90   44   45 am   BACKBONE|DICT|INTERRES
    91   44  169 1    
    92   45   46 2    
    93   45   47 1    
    94   47   48 1    
    95   47   49 1    
    96   47  170 1    
    97   48  171 1    
    98   48  172 1    
    99   48  173 1    
   100   49   50 am   BACKBONE|DICT|INTERRES
   101   49  174 1    
   102   50   51 2    
   103   50   52 1    
   104   52   53 1    
   105   52   54 1    
   106   52  175 1    
   107   53  176 1    
   108   53  177 1    
   109   53  178 1    
   110   54   55 am   BACKBONE|DICT|INTERRES
   111   54  179 1    
   112   55   56 2    
   113   55   57 1    
   114   57   58 1    
   115   57   59 1    
   116   57  180 1    
   117   58  181 1    
   118   58  182 1    
   119   58  183 1    
   120   59   60 am   BACKBONE|DICT|INTERRES
   121   59  184 1    
   122   60   61 2    
   123   60   62 1    
   124   62   63 1    
   125   62   64 1    
   126   62  185 1    
   127   63  186 1    
   128   63  187 1    
   129   63  188 1    
   130   64   65 am   BACKBONE|DICT|INTERRES
   131   64  189 1    
   132   65   66 2    
   133   67   68 2    
   134   67   69 am   BACKBONE|DICT|INTERRES
   135   69   70 1    
   136   69  190 1    
   137   70   71 1    
   138   70   72 1    
   139   70  191 1    
   140   71  192 1    
   141   71  193 1    
   142   71  194 1    
   143   72   73 2    
   144   72   74 am   BACKBONE|DICT|INTERRES
   145   74   75 1    
   146   74  195 1    
   147   75   76 1    
   148   75   77 1    
   149   75  196 1    
   150   76  197 1    
   151   76  198 1    
   152   76  199 1    
   153   77   78 2    
   154   77   79 am   BACKBONE|DICT|INTERRES
   155   79   80 1    
   156   79  200 1    
   157   80   81 1    
   158   80   82 1    
   159   80  201 1    
   160   81  202 1    
   161   81  203 1    
   162   81  204 1    
   163   82   83 2    
   164   82   84 am   BACKBONE|DICT|INTERRES
   165   84   85 1    
   166   84  205 1    
   167   85   86 1    
   168   85   87 1    
   169   85  206 1    
   170   86  207 1    
   171   86  208 1    
   172   86  209 1    
   173   87   88 2    
   174   87   89 am   BACKBONE|DICT|INTERRES
   175   89   90 1    
   176   89  210 1    
   177   90   91 1    
   178   90   92 1    
   179   90  211 1    
   180   91  212 1    
   181   91  213 1    
   182   91  214 1    
   183   92   93 2    
   184   92   94 am   BACKBONE|DICT|INTERRES
   185   94   95 1    
   186   94  215 1    
   187   95   96 1    
   188   95   97 1    
   189   95  216 1    
   190   96  217 1    
   191   96  218 1    
   192   96  219 1    
   193   97   98 2    
   194   97   99 am   BACKBONE|DICT|INTERRES
   195   99  100 1    
   196   99  220 1    
   197  100  101 1    
   198  100  102 1    
   199  100  221 1    
   200  101  222 1    
   201  101  223 1    
   202  101  224 1    
   203  102  103 2    
   204  102  104 am   BACKBONE|DICT|INTERRES
   205  104  105 1    
   206  104  225 1    
   207  105  106 1    
   208  105  107 1    
   209  105  226 1    
   210  106  227 1    
   211  106  228 1    
   212  106  229 1    
   213  107  108 2    
   214  107  109 am   BACKBONE|DICT|INTERRES
   215  109  110 1    
   216  109  230 1    
   217  110  111 1    
   218  110  112 1    
   219  110  231 1    
   220  111  232 1    
   221  111  233 1    
   222  111  234 1    
   223  112  113 2    
   224  112  114 am   BACKBONE|DICT|INTERRES
   225  114  115 1    
   226  114  235 1    
   227  115  116 1    
   228  115  117 1    
   229  115  236 1    
   230  116  237 1    
   231  116  238 1    
   232  116  239 1    
   233  117  118 2    
   234  117  119 am   BACKBONE|DICT|INTERRES
   235  119  120 1    
   236  119  240 1    
   237  120  121 1    
   238  120  124 1    
   239  120  241 1    
   240  121  122 am   BACKBONE|DICT|INTERRES
   241  121  123 2    
   242  122  242 1    
   243  122  243 1    
   244  124  125 1    
   245  124  244 1    
   246  124  245 1    
   247  125  126 1    
   248  126  246 1    
   249  126  247 1    
@<TRIPOS>SUBSTRUCTURE
     1 UNK         1 GROUP             0       ****    0 ROOT    
