@<TRIPOS>MOLECULE
3R540
247   249    1
SMALL
USER_CHARGES


@<TRIPOS>ATOM
      1 CA         -1.1656   -8.2199  -50.1892 C.3       0 UNK        -0.1800 
      2 C          -0.4471   -9.5578  -50.0855 C.2       0 UNK         0.5000 
      3 O           0.3889   -9.8709  -50.9330 O.2       0 UNK        -0.5000 
      4 N          -0.7699  -10.3466  -49.0513 N.am      1 UNK        -0.5000 
      5 CA         -0.1692  -11.6589  -48.7762 C.3       1 UNK         0.1400 
      6 C6         -1.0484  -12.4765  -47.7933 C.3       23 UNK        -0.0398 
      7 S7         -0.8202  -14.2838  -47.9142 S.3       23 UNK        -0.2404 
      8 C8         -1.7614  -14.6463  -49.4328 C.3       23 UNK        -0.0205 
      9 C9         -1.9695  -16.1401  -49.6365 C.ar      23 UNK        -0.0193 
     10 C10        -3.2616  -16.6777  -49.6351 C.ar      23 UNK        -0.1150 
     11 C11        -3.4689  -18.0451  -49.8423 C.ar      23 UNK        -0.0193 
     12 C12        -2.3582  -18.8777  -50.0117 C.ar      23 UNK        -0.1150 
     13 C13        -1.0639  -18.3552  -50.0345 C.ar      23 UNK        -0.0193 
     14 C14        -0.8750  -16.9824  -49.8572 C.ar      23 UNK        -0.1150 
     15 C15         0.1122  -19.2883  -50.2851 C.3       23 UNK        -0.0205 
     16 S16         1.3647  -19.2855  -48.9630 S.3       23 UNK        -0.2404 
     17 C17         0.3757  -19.4611  -47.4428 C.3       23 UNK        -0.0398 
     18 CA          0.0094  -20.9279  -47.0869 C.3       11 UNK         0.1400 
     19 N           0.1826  -21.1919  -45.6549 N.am      11 UNK        -0.5000 
     20 C           0.0319  -22.3780  -45.0506 C.2       10 UNK         0.5000 
     21 O          -0.2040  -23.4263  -45.6509 O.2       10 UNK        -0.5000 
     22 CA          0.0969  -22.3795  -43.5101 C.3       10 UNK         0.1400 
     23 CB          1.5488  -22.4530  -43.0151 C.3       10 UNK        -0.1800 
     24 N          -0.5721  -21.2159  -42.9207 N.am      10 UNK        -0.5000 
     25 C          -1.8907  -20.9862  -43.0099 C.2       9 UNK         0.5000 
     26 O          -2.6808  -21.7664  -43.5380 O.2       9 UNK        -0.5000 
     27 CA         -2.4136  -19.6429  -42.4707 C.3       9 UNK         0.1400 
     28 CB         -2.6148  -19.7050  -40.9497 C.3       9 UNK        -0.1800 
     29 N          -1.5455  -18.5172  -42.8193 N.am      9 UNK        -0.5000 
     30 C          -1.3025  -18.1097  -44.0744 C.2       8 UNK         0.5000 
     31 O          -1.8339  -18.6070  -45.0663 O.2       8 UNK        -0.5000 
     32 CA         -0.2448  -17.0071  -44.2614 C.3       8 UNK         0.1400 
     33 CB         -0.8512  -15.6164  -44.0233 C.3       8 UNK        -0.1800 
     34 N           0.9126  -17.1933  -43.3875 N.am      8 UNK        -0.5000 
     35 C           1.7460  -18.2411  -43.4203 C.2       7 UNK         0.5000 
     36 O           1.6599  -19.1561  -44.2364 O.2       7 UNK        -0.5000 
     37 CA          2.8152  -18.3118  -42.3177 C.3       7 UNK         0.1400 
     38 CB          4.0219  -17.4181  -42.6404 C.3       7 UNK        -0.1800 
     39 N           2.2703  -17.9491  -41.0110 N.am      7 UNK        -0.5000 
     40 C           1.4228  -18.7114  -40.3080 C.2       6 UNK         0.5000 
     41 O           1.0349  -19.8203  -40.6776 O.2       6 UNK        -0.5000 
     42 CA          0.9037  -18.1206  -38.9835 C.3       6 UNK         0.1400 
     43 CB          1.9016  -18.3848  -37.8461 C.3       6 UNK        -0.1800 
     44 N           0.6348  -16.6827  -39.0682 N.am      6 UNK        -0.5000 
     45 C          -0.3657  -16.1487  -39.7819 C.2       5 UNK         0.5000 
     46 O          -1.1656  -16.8143  -40.4386 O.2       5 UNK        -0.5000 
     47 CA         -0.4635  -14.6103  -39.8057 C.3       5 UNK         0.1400 
     48 CB         -1.1618  -14.0946  -38.5383 C.3       5 UNK        -0.1800 
     49 N           0.8162  -13.9099  -39.9765 N.am      5 UNK        -0.5000 
     50 C           1.6896  -14.1352  -40.9667 C.2       4 UNK         0.5000 
     51 O           1.5820  -15.0624  -41.7693 O.2       4 UNK        -0.5000 
     52 CA          2.9026  -13.1912  -41.0665 C.3       4 UNK         0.1400 
     53 CB          3.9926  -13.6202  -40.0721 C.3       4 UNK        -0.1800 
     54 N           3.4710  -13.1991  -42.4174 N.am      4 UNK        -0.5000 
     55 C           2.8471  -12.7429  -43.5119 C.2       3 UNK         0.5000 
     56 O           1.7775  -12.1270  -43.4881 O.2       3 UNK        -0.5000 
     57 CA          3.5168  -13.0844  -44.8577 C.3       3 UNK         0.1400 
     58 CB          3.0852  -14.4843  -45.3265 C.3       3 UNK        -0.1800 
     59 N           3.1820  -12.1333  -45.9135 N.am      3 UNK        -0.5000 
     60 C           3.5022  -10.8363  -45.9481 C.2       2 UNK         0.5000 
     61 O           4.2060  -10.2881  -45.0983 O.2       2 UNK        -0.5000 
     62 CA          2.9437   -9.9967  -47.1180 C.3       2 UNK         0.1400 
     63 CB          3.9781   -9.8780  -48.2536 C.3       2 UNK        -0.1800 
     64 N           1.6328  -10.4197  -47.6404 N.am      2 UNK        -0.5000 
     65 C           1.2945  -11.5458  -48.2908 C.2       1 UNK         0.5000 
     66 O           2.0792  -12.4677  -48.5141 O.2       1 UNK        -0.5000 
     67 C          -1.4201  -21.2802  -47.5542 C.2       11 UNK         0.5000 
     68 O          -1.5894  -22.0029  -48.5363 O.2       11 UNK        -0.5000 
     69 N          -2.4240  -20.7984  -46.8087 N.am      12 UNK        -0.5000 
     70 CA         -3.8414  -21.0608  -47.0494 C.3       12 UNK         0.1400 
     71 CB         -4.6872  -20.1257  -46.1735 C.3       12 UNK        -0.1800 
     72 C          -4.2387  -22.5312  -46.8280 C.2       12 UNK         0.5000 
     73 O          -5.1106  -23.0259  -47.5402 O.2       12 UNK        -0.5000 
     74 N          -3.5892  -23.2091  -45.8709 N.am      13 UNK        -0.5000 
     75 CA         -3.7527  -24.6408  -45.6122 C.3       13 UNK         0.1400 
     76 CB         -3.1225  -25.0027  -44.2590 C.3       13 UNK        -0.1800 
     77 C          -3.1708  -25.5136  -46.7398 C.2       13 UNK         0.5000 
     78 O          -3.7712  -26.5329  -47.0827 O.2       13 UNK        -0.5000 
     79 N          -2.0341  -25.0902  -47.3137 N.am      14 UNK        -0.5000 
     80 CA         -1.4387  -25.6890  -48.5115 C.3       14 UNK         0.1400 
     81 CB         -0.0114  -25.1560  -48.7003 C.3       14 UNK        -0.1800 
     82 C          -2.2965  -25.4552  -49.7711 C.2       14 UNK         0.5000 
     83 O          -2.3601  -26.3335  -50.6328 O.2       14 UNK        -0.5000 
     84 N          -2.9771  -24.3008  -49.8268 N.am      15 UNK        -0.5000 
     85 CA         -4.0114  -23.9294  -50.7937 C.3       15 UNK         0.1400 
     86 CB         -5.2746  -24.7917  -50.5640 C.3       15 UNK        -0.1800 
     87 C          -3.4757  -23.9738  -52.2374 C.2       15 UNK         0.5000 
     88 O          -2.5228  -23.2582  -52.5447 O.2       15 UNK        -0.5000 
     89 N          -4.0482  -24.8425  -53.0813 N.am      16 UNK        -0.5000 
     90 CA         -3.6658  -25.0734  -54.4771 C.3       16 UNK         0.1400 
     91 CB         -4.6572  -26.0722  -55.0950 C.3       16 UNK        -0.1800 
     92 C          -2.2144  -25.5613  -54.6871 C.2       16 UNK         0.5000 
     93 O          -1.7200  -25.4980  -55.8131 O.2       16 UNK        -0.5000 
     94 N          -1.5538  -26.0468  -53.6254 N.am      17 UNK        -0.5000 
     95 CA         -0.1438  -26.4368  -53.6533 C.3       17 UNK         0.1400 
     96 CB          0.1157  -27.4762  -52.5516 C.3       17 UNK        -0.1800 
     97 C           0.8181  -25.2405  -53.5001 C.2       17 UNK         0.5000 
     98 O           1.9984  -25.3924  -53.8186 O.2       17 UNK        -0.5000 
     99 N           0.3257  -24.0953  -53.0043 N.am      18 UNK        -0.5000 
    100 CA         1.1313  -22.9074  -52.7049 C.3       18 UNK         0.1400 
    101 CB         1.1393  -22.6889  -51.1851 C.3       18 UNK        -0.1800 
    102 C          0.6412  -21.6469  -53.4404 C.2       18 UNK         0.5000 
    103 O          1.4638  -20.7950  -53.7792 O.2       18 UNK        -0.5000 
    104 N         -0.6682  -21.5468  -53.6861 N.am      19 UNK        -0.5000 
    105 CA        -1.3270  -20.4794  -54.4342 C.3       19 UNK         0.1400 
    106 CB        -2.0938  -19.5812  -53.4488 C.3       19 UNK        -0.1800 
    107 C         -2.2402  -21.0931  -55.5108 C.2       19 UNK         0.5000 
    108 O         -2.0813  -22.2650  -55.8556 O.2       19 UNK        -0.5000 
    109 N         -3.1606  -20.2867  -56.0561 N.am      20 UNK        -0.5000 
    110 CA        -4.0728  -20.6805  -57.1312 C.3       20 UNK         0.1400 
    111 CB        -4.7741  -19.4315  -57.6881 C.3       20 UNK        -0.1800 
    112 C         -5.1061  -21.7388  -56.7027 C.2       20 UNK         0.5000 
    113 O         -5.3150  -22.7042  -57.4380 O.2       20 UNK        -0.5000 
    114 N         -5.7210  -21.5418  -55.5277 N.am      21 UNK        -0.5000 
    115 CA        -6.7474  -22.4188  -54.9554 C.3       21 UNK         0.1400 
    116 CB        -8.0038  -22.4880  -55.8509 C.3       21 UNK        -0.1800 
    117 C         -7.1589  -21.9725  -53.5456 C.2       21 UNK         0.5000 
    118 O         -7.4293  -22.8300  -52.7069 O.2       21 UNK        -0.5000 
    119 N         -7.2263  -20.6515  -53.3193 N.am      22 UNK        -0.5000 
    120 CA        -7.7062  -20.0087  -52.0755 C.3       22 UNK         0.1400 
    121 C         -9.2432  -20.1360  -51.8313 C.2       22 UNK         0.5000 
    122 N        -10.0432  -20.5260  -52.8165 N.am      22 UNK        -0.7600 
    123 O         -9.7301  -19.8441  -50.7422 O.2       22 UNK        -0.5000 
    124 C124       -6.8799  -20.3809  -50.8091 C.3       23 UNK        -0.0398 
    125 S125       -5.1055  -20.0196  -51.0018 S.3       23 UNK        -0.2404 
    126 C126       -4.8932  -18.5981  -49.8728 C.3       23 UNK        -0.0205 
    127 H127       -1.8789   -8.0778  -49.3770 H         1 UNK         0.0600 
    128 H128       -1.7081   -8.1577  -51.1326 H         1 UNK         0.0600 
    129 H129       -0.4443   -7.4034  -50.1551 H         1 UNK         0.0600 
    130 H130       -1.4717  -10.0334  -48.3951 H         1 UNK         0.3000 
    131 H131       -0.1405  -12.1919  -49.7285 H         1 UNK         0.0600 
    132 H132       -2.1048  -12.2737  -47.9757 H         1 UNK         0.0800 
    133 H133       -0.8699  -12.1702  -46.7608 H         1 UNK         0.0800 
    134 H134       -1.2306  -14.2432  -50.2960 H         1 UNK         0.0800 
    135 H135       -2.7229  -14.1322  -49.3924 H         1 UNK         0.0800 
    136 H136       -4.1116  -16.0271  -49.4839 H         1 UNK         0.1150 
    137 H137       -2.4982  -19.9399  -50.1529 H         1 UNK         0.1150 
    138 H138        0.1247  -16.5713  -49.8763 H         1 UNK         0.1150 
    139 H139       -0.2440  -20.3091  -50.4193 H         1 UNK         0.0800 
    140 H140        0.5933  -19.0096  -51.2236 H         1 UNK         0.0800 
    141 H141        1.0068  -19.0355  -46.6650 H         1 UNK         0.0800 
    142 H142       -0.4947  -18.8037  -47.4686 H         1 UNK         0.0800 
    143 H143        0.6958  -21.6016  -47.6043 H         1 UNK         0.0600 
    144 H144        0.4441  -20.3966  -45.0794 H         1 UNK         0.3000 
    145 H145       -0.4212  -23.2738  -43.1583 H         1 UNK         0.0600 
    146 H146        1.5914  -22.5044  -41.9269 H         1 UNK         0.0600 
    147 H147        2.0470  -23.3421  -43.4034 H         1 UNK         0.0600 
    148 H148        2.1312  -21.5880  -43.3306 H         1 UNK         0.0600 
    149 H149        0.0127  -20.5455  -42.4352 H         1 UNK         0.3000 
    150 H150       -3.3876  -19.4620  -42.9299 H         1 UNK         0.0600 
    151 H151       -3.2615  -20.5391  -40.6750 H         1 UNK         0.0600 
    152 H152       -3.0851  -18.7947  -40.5778 H         1 UNK         0.0600 
    153 H153       -1.6703  -19.8339  -40.4214 H         1 UNK         0.0600 
    154 H154       -1.1179  -18.0166  -42.0468 H         1 UNK         0.3000 
    155 H155        0.1067  -17.0510  -45.2942 H         1 UNK         0.0600 
    156 H156       -0.1184  -14.8296  -44.2042 H         1 UNK         0.0600 
    157 H157       -1.2132  -15.5051  -43.0009 H         1 UNK         0.0600 
    158 H158       -1.6923  -15.4380  -44.6944 H         1 UNK         0.0600 
    159 H159        1.0852  -16.4595  -42.7007 H         1 UNK         0.3000 
    160 H160        3.1678  -19.3444  -42.2689 H         1 UNK         0.0600 
    161 H161        3.7672  -16.3602  -42.5928 H         1 UNK         0.0600 
    162 H162        4.4062  -17.6226  -43.6406 H         1 UNK         0.0600 
    163 H163        4.8362  -17.5935  -41.9373 H         1 UNK         0.0600 
    164 H164        2.4741  -17.0185  -40.6773 H         1 UNK         0.3000 
    165 H165       -0.0316  -18.6287  -38.7388 H         1 UNK         0.0600 
    166 H166        2.8535  -17.8808  -38.0184 H         1 UNK         0.0600 
    167 H167        1.5081  -18.0419  -36.8891 H         1 UNK         0.0600 
    168 H168        2.1077  -19.4515  -37.7482 H         1 UNK         0.0600 
    169 H169        1.2561  -16.0655  -38.5663 H         1 UNK         0.3000 
    170 H170       -1.0862  -14.3447  -40.6623 H         1 UNK         0.0600 
    171 H171       -2.1244  -14.5871  -38.3941 H         1 UNK         0.0600 
    172 H172       -0.5625  -14.2767  -37.6454 H         1 UNK         0.0600 
    173 H173       -1.3539  -13.0234  -38.6014 H         1 UNK         0.0600 
    174 H174        0.9908  -13.1442  -39.3419 H         1 UNK         0.3000 
    175 H175        2.5786  -12.1755  -40.8306 H         1 UNK         0.0600 
    176 H176        4.8532  -12.9525  -40.1183 H         1 UNK         0.0600 
    177 H177        3.6215  -13.5969  -39.0467 H         1 UNK         0.0600 
    178 H178        4.3433  -14.6339  -40.2712 H         1 UNK         0.0600 
    179 H179        4.3303  -13.7156  -42.5309 H         1 UNK         0.3000 
    180 H180        4.6002  -13.0724  -44.7229 H         1 UNK         0.0600 
    181 H181        3.5929  -14.7666  -46.2490 H         1 UNK         0.0600 
    182 H182        3.3222  -15.2430  -44.5820 H         1 UNK         0.0600 
    183 H183        2.0107  -14.5328  -45.5090 H         1 UNK         0.0600 
    184 H184        2.6422  -12.4917  -46.6943 H         1 UNK         0.3000 
    185 H185        2.7847   -8.9934  -46.7198 H         1 UNK         0.0600 
    186 H186        3.6152   -9.2296  -49.0512 H         1 UNK         0.0600 
    187 H187        4.9116   -9.4502  -47.8860 H         1 UNK         0.0600 
    188 H188        4.2162  -10.8477  -48.6913 H         1 UNK         0.0600 
    189 H189        0.8929   -9.7464  -47.4994 H         1 UNK         0.3000 
    190 H190       -2.2037  -20.1673  -46.0417 H         1 UNK         0.3000 
    191 H191       -4.0442  -20.8283  -48.0959 H         1 UNK         0.0600 
    192 H192       -5.7514  -20.2650  -46.3675 H         1 UNK         0.0600 
    193 H193       -4.4526  -19.0798  -46.3733 H         1 UNK         0.0600 
    194 H194       -4.5181  -20.3087  -45.1120 H         1 UNK         0.0600 
    195 H195       -2.9560  -22.7034  -45.2596 H         1 UNK         0.3000 
    196 H196       -4.8226  -24.8502  -45.5501 H         1 UNK         0.0600 
    197 H197       -3.2701  -26.0589  -44.0309 H         1 UNK         0.0600 
    198 H198       -3.5722  -24.4293  -43.4483 H         1 UNK         0.0600 
    199 H199       -2.0496  -24.8130  -44.2490 H         1 UNK         0.0600 
    200 H200       -1.5647  -24.2780  -46.9267 H         1 UNK         0.3000 
    201 H201       -1.3760  -26.7679  -48.3553 H         1 UNK         0.0600 
    202 H202        0.6222  -25.4250  -47.8550 H         1 UNK         0.0600 
    203 H203        0.0048  -24.0710  -48.7920 H         1 UNK         0.0600 
    204 H204        0.4482  -25.5705  -49.5981 H         1 UNK         0.0600 
    205 H205       -2.7567  -23.5959  -49.1317 H         1 UNK         0.3000 
    206 H206       -4.2711  -22.8906  -50.5885 H         1 UNK         0.0600 
    207 H207       -5.6393  -24.6831  -49.5433 H         1 UNK         0.0600 
    208 H208       -6.0879  -24.4893  -51.2223 H         1 UNK         0.0600 
    209 H209       -5.0885  -25.8536  -50.7283 H         1 UNK         0.0600 
    210 H210       -4.7975  -25.4178  -52.7253 H         1 UNK         0.3000 
    211 H211       -3.7676  -24.1235  -55.0038 H         1 UNK         0.0600 
    212 H212       -4.5992  -27.0466  -54.6083 H         1 UNK         0.0600 
    213 H213       -4.4501  -26.2219  -56.1556 H         1 UNK         0.0600 
    214 H214       -5.6848  -25.7186  -55.0157 H         1 UNK         0.0600 
    215 H215       -2.0206  -26.0924  -52.7257 H         1 UNK         0.3000 
    216 H216        0.0734  -26.9120  -54.6123 H         1 UNK         0.0600 
    217 H217        1.1295  -27.8721  -52.6222 H         1 UNK         0.0600 
    218 H218       -0.5691  -28.3205  -52.6326 H         1 UNK         0.0600 
    219 H219        0.0048  -27.0469  -51.5563 H         1 UNK         0.0600 
    220 H220       -0.6664  -24.0331  -52.8043 H         1 UNK         0.3000 
    221 H221        2.1659  -23.0584  -53.0193 H         1 UNK         0.0600 
    222 H222        0.1275  -22.5932  -50.7891 H         1 UNK         0.0600 
    223 H223        1.6209  -23.5228  -50.6750 H         1 UNK         0.0600 
    224 H224        1.6928  -21.7879  -50.9192 H         1 UNK         0.0600 
    225 H225       -1.2954  -22.2855  -53.3731 H         1 UNK         0.3000 
    226 H226       -0.5889  -19.8720  -54.9612 H         1 UNK         0.0600 
    227 H227       -1.4110  -19.1400  -52.7262 H         1 UNK         0.0600 
    228 H228       -2.5945  -18.7515  -53.9475 H         1 UNK         0.0600 
    229 H229       -2.8459  -20.1470  -52.8991 H         1 UNK         0.0600 
    230 H230       -3.2244  -19.3316  -55.7355 H         1 UNK         0.3000 
    231 H231       -3.4735  -21.1135  -57.9353 H         1 UNK         0.0600 
    232 H232       -5.4521  -19.6948  -58.5011 H         1 UNK         0.0600 
    233 H233       -4.0519  -18.7193  -58.0878 H         1 UNK         0.0600 
    234 H234       -5.3613  -18.9212  -56.9238 H         1 UNK         0.0600 
    235 H235       -5.4250  -20.7658  -54.9532 H         1 UNK         0.3000 
    236 H236       -6.3233  -23.4198  -54.8664 H         1 UNK         0.0600 
    237 H237       -8.3861  -21.4936  -56.0835 H         1 UNK         0.0600 
    238 H238       -7.8051  -22.9979  -56.7927 H         1 UNK         0.0600 
    239 H239       -8.8056  -23.0424  -55.3610 H         1 UNK         0.0600 
    240 H240       -7.0446  -20.0182  -54.0834 H         1 UNK         0.3000 
    241 H241       -7.5574  -18.9408  -52.2384 H         1 UNK         0.0600 
    242 H242      -11.0353  -20.5927  -52.6501 H         1 UNK         0.3800 
    243 H243       -9.6714  -20.7548  -53.7235 H         1 UNK         0.3800 
    244 H244       -6.9915  -21.4383  -50.5669 H         1 UNK         0.0800 
    245 H245       -7.2495  -19.8404  -49.9364 H         1 UNK         0.0800 
    246 H246       -5.1812  -18.8864  -48.8623 H         1 UNK         0.0800 
    247 H247       -5.5855  -17.8136  -50.1824 H         1 UNK         0.0800 
@<TRIPOS>BOND
     1    1    2 1    
     2    1  127 1    
     3    1  128 1    
     4    1  129 1    
     5    2    3 2    
     6    2    4 am   BACKBONE|DICT|INTERRES
     7    4    5 1    
     8    4  130 1    
     9    5    6 1    
    10    5   65 1    
    11    5  131 1    
    12    6    7 1    
    13    6  132 1    
    14    6  133 1    
    15    7    8 1    
    16    8    9 1    
    17    8  134 1    
    18    8  135 1    
    19    9   10 ar   
    20    9   14 ar   
    21   10   11 ar   
    22   10  136 1    
    23   11   12 ar   
    24   11  126 1    
    25   12   13 ar   
    26   12  137 1    
    27   13   14 ar   
    28   13   15 1    
    29   14  138 1    
    30   15   16 1    
    31   15  139 1    
    32   15  140 1    
    33   16   17 1    
    34   17   18 1    
    35   17  141 1    
    36   17  142 1    
    37   18   19 1    
    38   18   67 1    
    39   18  143 1    
    40   19   20 am   BACKBONE|DICT|INTERRES
    41   19  144 1    
    42   20   21 2    
    43   20   22 1    
    44   22   23 1    
    45   22   24 1    
    46   22  145 1    
    47   23  146 1    
    48   23  147 1    
    49   23  148 1    
    50   24   25 am   BACKBONE|DICT|INTERRES
    51   24  149 1    
    52   25   26 2    
    53   25   27 1    
    54   27   28 1    
    55   27   29 1    
    56   27  150 1    
    57   28  151 1    
    58   28  152 1    
    59   28  153 1    
    60   29   30 am   BACKBONE|DICT|INTERRES
    61   29  154 1    
    62   30   31 2    
    63   30   32 1    
    64   32   33 1    
    65   32   34 1    
    66   32  155 1    
    67   33  156 1    
    68   33  157 1    
    69   33  158 1    
    70   34   35 am   BACKBONE|DICT|INTERRES
    71   34  159 1    
    72   35   36 2    
    73   35   37 1    
    74   37   38 1    
    75   37   39 1    
    76   37  160 1    
    77   38  161 1    
    78   38  162 1    
    79   38  163 1    
    80   39   40 am   BACKBONE|DICT|INTERRES
    81   39  164 1    
    82   40   41 2    
    83   40   42 1    
    84   42   43 1    
    85   42   44 1    
    86   42  165 1    
    87   43  166 1    
    88   43  167 1    
    89   43  168 1    
    90   44   45 am   BACKBONE|DICT|INTERRES
    91   44  169 1    
    92   45   46 2    
    93   45   47 1    
    94   47   48 1    
    95   47   49 1    
    96   47  170 1    
    97   48  171 1    
    98   48  172 1    
    99   48  173 1    
   100   49   50 am   BACKBONE|DICT|INTERRES
   101   49  174 1    
   102   50   51 2    
   103   50   52 1    
   104   52   53 1    
   105   52   54 1    
   106   52  175 1    
   107   53  176 1    
   108   53  177 1    
   109   53  178 1    
   110   54   55 am   BACKBONE|DICT|INTERRES
   111   54  179 1    
   112   55   56 2    
   113   55   57 1    
   114   57   58 1    
   115   57   59 1    
   116   57  180 1    
   117   58  181 1    
   118   58  182 1    
   119   58  183 1    
   120   59   60 am   BACKBONE|DICT|INTERRES
   121   59  184 1    
   122   60   61 2    
   123   60   62 1    
   124   62   63 1    
   125   62   64 1    
   126   62  185 1    
   127   63  186 1    
   128   63  187 1    
   129   63  188 1    
   130   64   65 am   BACKBONE|DICT|INTERRES
   131   64  189 1    
   132   65   66 2    
   133   67   68 2    
   134   67   69 am   BACKBONE|DICT|INTERRES
   135   69   70 1    
   136   69  190 1    
   137   70   71 1    
   138   70   72 1    
   139   70  191 1    
   140   71  192 1    
   141   71  193 1    
   142   71  194 1    
   143   72   73 2    
   144   72   74 am   BACKBONE|DICT|INTERRES
   145   74   75 1    
   146   74  195 1    
   147   75   76 1    
   148   75   77 1    
   149   75  196 1    
   150   76  197 1    
   151   76  198 1    
   152   76  199 1    
   153   77   78 2    
   154   77   79 am   BACKBONE|DICT|INTERRES
   155   79   80 1    
   156   79  200 1    
   157   80   81 1    
   158   80   82 1    
   159   80  201 1    
   160   81  202 1    
   161   81  203 1    
   162   81  204 1    
   163   82   83 2    
   164   82   84 am   BACKBONE|DICT|INTERRES
   165   84   85 1    
   166   84  205 1    
   167   85   86 1    
   168   85   87 1    
   169   85  206 1    
   170   86  207 1    
   171   86  208 1    
   172   86  209 1    
   173   87   88 2    
   174   87   89 am   BACKBONE|DICT|INTERRES
   175   89   90 1    
   176   89  210 1    
   177   90   91 1    
   178   90   92 1    
   179   90  211 1    
   180   91  212 1    
   181   91  213 1    
   182   91  214 1    
   183   92   93 2    
   184   92   94 am   BACKBONE|DICT|INTERRES
   185   94   95 1    
   186   94  215 1    
   187   95   96 1    
   188   95   97 1    
   189   95  216 1    
   190   96  217 1    
   191   96  218 1    
   192   96  219 1    
   193   97   98 2    
   194   97   99 am   BACKBONE|DICT|INTERRES
   195   99  100 1    
   196   99  220 1    
   197  100  101 1    
   198  100  102 1    
   199  100  221 1    
   200  101  222 1    
   201  101  223 1    
   202  101  224 1    
   203  102  103 2    
   204  102  104 am   BACKBONE|DICT|INTERRES
   205  104  105 1    
   206  104  225 1    
   207  105  106 1    
   208  105  107 1    
   209  105  226 1    
   210  106  227 1    
   211  106  228 1    
   212  106  229 1    
   213  107  108 2    
   214  107  109 am   BACKBONE|DICT|INTERRES
   215  109  110 1    
   216  109  230 1    
   217  110  111 1    
   218  110  112 1    
   219  110  231 1    
   220  111  232 1    
   221  111  233 1    
   222  111  234 1    
   223  112  113 2    
   224  112  114 am   BACKBONE|DICT|INTERRES
   225  114  115 1    
   226  114  235 1    
   227  115  116 1    
   228  115  117 1    
   229  115  236 1    
   230  116  237 1    
   231  116  238 1    
   232  116  239 1    
   233  117  118 2    
   234  117  119 am   BACKBONE|DICT|INTERRES
   235  119  120 1    
   236  119  240 1    
   237  120  121 1    
   238  120  124 1    
   239  120  241 1    
   240  121  122 am   BACKBONE|DICT|INTERRES
   241  121  123 2    
   242  122  242 1    
   243  122  243 1    
   244  124  125 1    
   245  124  244 1    
   246  124  245 1    
   247  125  126 1    
   248  126  246 1    
   249  126  247 1    
@<TRIPOS>SUBSTRUCTURE
     1 UNK         1 GROUP             0       ****    0 ROOT    
