@<TRIPOS>MOLECULE
3R540
247   249    1
SMALL
USER_CHARGES


@<TRIPOS>ATOM
      1 CA         -2.8372  -10.9071  -51.6323 C.3       0 UNK        -0.1800 
      2 C          -1.6496  -11.8157  -51.3471 C.2       0 UNK         0.5000 
      3 O          -1.2730  -12.6181  -52.2009 O.2       0 UNK        -0.5000 
      4 N          -1.0598  -11.6922  -50.1548 N.am      1 UNK        -0.5000 
      5 CA          0.1124  -12.4369  -49.6994 C.3       1 UNK         0.1400 
      6 C6         -0.2065  -13.9205  -49.3614 C.3       23 UNK        -0.0398 
      7 S7          1.2279  -15.0099  -49.6443 S.3       23 UNK        -0.2404 
      8 C8          0.5060  -16.6100  -49.1888 C.3       23 UNK        -0.0205 
      9 C9          1.4031  -17.7560  -49.6226 C.ar      23 UNK        -0.0193 
     10 C10         1.2912  -18.2716  -50.9151 C.ar      23 UNK        -0.1150 
     11 C11         2.1200  -19.3113  -51.3415 C.ar      23 UNK        -0.0193 
     12 C12         3.0679  -19.8393  -50.4615 C.ar      23 UNK        -0.1150 
     13 C13         3.1940  -19.3289  -49.1655 C.ar      23 UNK        -0.0193 
     14 C14         2.3550  -18.2891  -48.7492 C.ar      23 UNK        -0.1150 
     15 C15         4.2681  -19.8755  -48.2369 C.3       23 UNK        -0.0205 
     16 S16         3.8114  -21.4833  -47.5175 S.3       23 UNK        -0.2404 
     17 C17         2.5380  -20.9867  -46.3113 C.3       23 UNK        -0.0398 
     18 CA          1.2824  -21.8883  -46.3281 C.3       11 UNK         0.1400 
     19 N           0.4820  -21.6901  -45.1178 N.am      11 UNK        -0.5000 
     20 C          -0.5611  -22.4432  -44.7441 C.2       10 UNK         0.5000 
     21 O          -0.9491  -23.4336  -45.3627 O.2       10 UNK        -0.5000 
     22 CA         -1.3264  -21.9806  -43.4910 C.3       10 UNK         0.1400 
     23 CB         -0.6057  -22.4275  -42.2103 C.3       10 UNK        -0.1800 
     24 N          -1.5187  -20.5306  -43.4625 N.am      10 UNK        -0.5000 
     25 C          -2.2520  -19.8425  -44.3478 C.2       9 UNK         0.5000 
     26 O          -2.8983  -20.3687  -45.2521 O.2       9 UNK        -0.5000 
     27 CA         -2.2157  -18.3084  -44.2389 C.3       9 UNK         0.1400 
     28 CB         -3.1696  -17.8044  -43.1448 C.3       9 UNK        -0.1800 
     29 N          -0.8648  -17.8052  -43.9896 N.am      9 UNK        -0.5000 
     30 C           0.1382  -17.8595  -44.8770 C.2       8 UNK         0.5000 
     31 O           0.0250  -18.3261  -46.0096 O.2       8 UNK        -0.5000 
     32 CA          1.5095  -17.3445  -44.4035 C.3       8 UNK         0.1400 
     33 CB          1.6122  -15.8239  -44.5977 C.3       8 UNK        -0.1800 
     34 N           1.7936  -17.6871  -43.0075 N.am      8 UNK        -0.5000 
     35 C           1.9422  -18.9395  -42.5547 C.2       7 UNK         0.5000 
     36 O           1.8675  -19.9365  -43.2721 O.2       7 UNK        -0.5000 
     37 CA          2.1514  -19.1144  -41.0396 C.3       7 UNK         0.1400 
     38 CB          3.5892  -18.7538  -40.6361 C.3       7 UNK        -0.1800 
     39 N           1.2015  -18.3545  -40.2209 N.am      7 UNK        -0.5000 
     40 C          -0.1325  -18.4819  -40.2728 C.2       6 UNK         0.5000 
     41 O          -0.7103  -19.2150  -41.0730 O.2       6 UNK        -0.5000 
     42 CA         -0.9799  -17.6635  -39.2786 C.3       6 UNK         0.1400 
     43 CB         -1.6996  -18.6051  -38.3007 C.3       6 UNK        -0.1800 
     44 N          -0.2017  -16.6956  -38.4997 N.am      6 UNK        -0.5000 
     45 C           0.1781  -15.4617  -38.8592 C.2       5 UNK         0.5000 
     46 O           0.8324  -14.7548  -38.0913 O.2       5 UNK        -0.5000 
     47 CA         -0.2281  -14.8928  -40.2400 C.3       5 UNK         0.1400 
     48 CB         -1.5710  -14.1516  -40.1519 C.3       5 UNK        -0.1800 
     49 N           0.7845  -13.9650  -40.7360 N.am      5 UNK        -0.5000 
     50 C           2.0017  -14.3182  -41.1589 C.2       4 UNK         0.5000 
     51 O           2.3389  -15.4934  -41.3109 O.2       4 UNK        -0.5000 
     52 CA          2.9917  -13.1728  -41.4671 C.3       4 UNK         0.1400 
     53 CB          4.3518  -13.6914  -41.9692 C.3       4 UNK        -0.1800 
     54 N           2.4769  -12.2076  -42.4408 N.am      4 UNK        -0.5000 
     55 C           1.5233  -11.2886  -42.2348 C.2       3 UNK         0.5000 
     56 O           0.9361  -11.1541  -41.1598 O.2       3 UNK        -0.5000 
     57 CA          1.1687  -10.3518  -43.4094 C.3       3 UNK         0.1400 
     58 CB          1.4376   -8.8853  -43.0333 C.3       3 UNK        -0.1800 
     59 N           1.8926  -10.6526  -44.6485 N.am      3 UNK        -0.5000 
     60 C           1.5836  -11.6368  -45.5006 C.2       2 UNK         0.5000 
     61 O           0.6684  -12.4425  -45.3181 O.2       2 UNK        -0.5000 
     62 CA          2.4908  -11.7599  -46.7402 C.3       2 UNK         0.1400 
     63 CB          3.6767  -12.6903  -46.4385 C.3       2 UNK        -0.1800 
     64 N           1.7813  -12.2705  -47.9124 N.am      2 UNK        -0.5000 
     65 C           0.7506  -11.6721  -48.5220 C.2       1 UNK         0.5000 
     66 O           0.3103  -10.5648  -48.1953 O.2       1 UNK        -0.5000 
     67 C           0.4415  -21.7217  -47.6144 C.2       11 UNK         0.5000 
     68 O           0.5845  -22.5266  -48.5349 O.2       11 UNK        -0.5000 
     69 N          -0.4622  -20.7301  -47.6308 N.am      12 UNK        -0.5000 
     70 CA         -1.4543  -20.5402  -48.6881 C.3       12 UNK         0.1400 
     71 CB         -2.1807  -19.2014  -48.4870 C.3       12 UNK        -0.1800 
     72 C          -2.4626  -21.7014  -48.7420 C.2       12 UNK         0.5000 
     73 O          -2.6397  -22.3009  -49.8007 O.2       12 UNK        -0.5000 
     74 N          -3.0752  -22.0226  -47.5919 N.am      13 UNK        -0.5000 
     75 CA         -4.0925  -23.0665  -47.4350 C.3       13 UNK         0.1400 
     76 CB         -4.6195  -23.0578  -45.9932 C.3       13 UNK        -0.1800 
     77 C          -3.6197  -24.4786  -47.8259 C.2       13 UNK         0.5000 
     78 O          -4.4289  -25.2737  -48.3054 O.2       13 UNK        -0.5000 
     79 N          -2.3169  -24.7519  -47.6684 N.am      14 UNK        -0.5000 
     80 CA         -1.6488  -25.9897  -48.0789 C.3       14 UNK         0.1400 
     81 CB         -0.1860  -25.9528  -47.6115 C.3       14 UNK        -0.1800 
     82 C          -1.7291  -26.2901  -49.5918 C.2       14 UNK         0.5000 
     83 O          -1.5483  -27.4450  -49.9795 O.2       14 UNK        -0.5000 
     84 N          -2.0320  -25.2759  -50.4173 N.am      15 UNK        -0.5000 
     85 CA         -2.3129  -25.4239  -51.8471 C.3       15 UNK         0.1400 
     86 CB         -2.1047  -24.0726  -52.5430 C.3       15 UNK        -0.1800 
     87 C          -3.7113  -26.0124  -52.1493 C.2       15 UNK         0.5000 
     88 O          -3.9917  -26.2979  -53.3144 O.2       15 UNK        -0.5000 
     89 N          -4.5474  -26.2076  -51.1149 N.am      16 UNK        -0.5000 
     90 CA         -5.8131  -26.9496  -51.0951 C.3       16 UNK         0.1400 
     91 CB         -5.5419  -28.4624  -51.2397 C.3       16 UNK        -0.1800 
     92 C          -6.8515  -26.4215  -52.1027 C.2       16 UNK         0.5000 
     93 O          -7.5795  -25.4811  -51.7869 O.2       16 UNK        -0.5000 
     94 N          -6.8955  -27.0133  -53.3038 N.am      17 UNK        -0.5000 
     95 CA         -7.7435  -26.5859  -54.4195 C.3       17 UNK         0.1400 
     96 CB         -7.6415  -27.6231  -55.5480 C.3       17 UNK        -0.1800 
     97 C          -7.3973  -25.1778  -54.9464 C.2       17 UNK         0.5000 
     98 O          -8.2650  -24.5174  -55.5185 O.2       17 UNK        -0.5000 
     99 N          -6.1511  -24.7410  -54.7247 N.am      18 UNK        -0.5000 
    100 CA        -5.6367  -23.4200  -55.0729 C.3       18 UNK         0.1400 
    101 CB        -4.4508  -23.5927  -56.0387 C.3       18 UNK        -0.1800 
    102 C         -5.2575  -22.6289  -53.8059 C.2       18 UNK         0.5000 
    103 O         -4.2915  -21.8691  -53.8329 O.2       18 UNK        -0.5000 
    104 N         -6.0168  -22.8032  -52.7109 N.am      19 UNK        -0.5000 
    105 CA        -5.7833  -22.1780  -51.3985 C.3       19 UNK         0.1400 
    106 CB        -6.8294  -22.6801  -50.3912 C.3       19 UNK        -0.1800 
    107 C         -5.7279  -20.6346  -51.3858 C.2       19 UNK         0.5000 
    108 O         -5.1866  -20.0562  -50.4422 O.2       19 UNK        -0.5000 
    109 N         -6.2638  -19.9892  -52.4298 N.am      20 UNK        -0.5000 
    110 CA        -6.1633  -18.5553  -52.6952 C.3       20 UNK         0.1400 
    111 CB        -7.2299  -18.1743  -53.7372 C.3       20 UNK        -0.1800 
    112 C         -4.7361  -18.1624  -53.1383 C.2       20 UNK         0.5000 
    113 O         -4.5098  -17.8622  -54.3125 O.2       20 UNK        -0.5000 
    114 N         -3.7956  -18.2096  -52.1840 N.am      21 UNK        -0.5000 
    115 CA        -2.3798  -17.8356  -52.2949 C.3       21 UNK         0.1400 
    116 CB        -2.2387  -16.3014  -52.3697 C.3       21 UNK        -0.1800 
    117 C         -1.6260  -18.5687  -53.4261 C.2       21 UNK         0.5000 
    118 O         -0.8012  -17.9646  -54.1136 O.2       21 UNK        -0.5000 
    119 N         -1.9320  -19.8612  -53.5913 N.am      22 UNK        -0.5000 
    120 CA        -1.3875  -20.7675  -54.6178 C.3       22 UNK         0.1400 
    121 C         -1.9205  -20.4990  -56.0591 C.2       22 UNK         0.5000 
    122 N         -2.9266  -19.6540  -56.2583 N.am      22 UNK        -0.7600 
    123 O         -1.4300  -21.0871  -57.0194 O.2       22 UNK        -0.5000 
    124 C124        0.1612  -20.9283  -54.5820 C.3       23 UNK        -0.0398 
    125 S125        0.8368  -21.2068  -52.9032 S.3       23 UNK        -0.2404 
    126 C126        2.0142  -19.8241  -52.7674 C.3       23 UNK        -0.0205 
    127 H127       -3.0531  -10.2464  -50.7920 H         1 UNK         0.0600 
    128 H128       -3.7266  -11.5046  -51.8324 H         1 UNK         0.0600 
    129 H129       -2.6356  -10.2894  -52.5076 H         1 UNK         0.0600 
    130 H130       -1.3589  -10.9766  -49.5028 H         1 UNK         0.3000 
    131 H131        0.8390  -12.4023  -50.5143 H         1 UNK         0.0600 
    132 H132       -1.0109  -14.2904  -49.9982 H         1 UNK         0.0800 
    133 H133       -0.5653  -14.0328  -48.3362 H         1 UNK         0.0800 
    134 H134       -0.4704  -16.7085  -49.6643 H         1 UNK         0.0800 
    135 H135        0.3372  -16.6409  -48.1116 H         1 UNK         0.0800 
    136 H136        0.5731  -17.8453  -51.5995 H         1 UNK         0.1150 
    137 H137        3.7176  -20.6391  -50.7886 H         1 UNK         0.1150 
    138 H138        2.4501  -17.8815  -47.7527 H         1 UNK         0.1150 
    139 H139        5.1969  -19.9951  -48.7967 H         1 UNK         0.0800 
    140 H140        4.4879  -19.1664  -47.4371 H         1 UNK         0.0800 
    141 H141        2.2596  -19.9420  -46.4472 H         1 UNK         0.0800 
    142 H142        3.0150  -21.0414  -45.3325 H         1 UNK         0.0800 
    143 H143        1.6205  -22.9266  -46.3022 H         1 UNK         0.0600 
    144 H144        0.7659  -20.9250  -44.5123 H         1 UNK         0.3000 
    145 H145       -2.3118  -22.4500  -43.5076 H         1 UNK         0.0600 
    146 H146       -1.1795  -22.1599  -41.3228 H         1 UNK         0.0600 
    147 H147        0.3792  -21.9685  -42.1200 H         1 UNK         0.0600 
    148 H148       -0.4681  -23.5093  -42.1966 H         1 UNK         0.0600 
    149 H149       -1.0583  -20.0241  -42.7098 H         1 UNK         0.3000 
    150 H150       -2.5545  -17.9012  -45.1941 H         1 UNK         0.0600 
    151 H151       -4.1922  -18.1265  -43.3453 H         1 UNK         0.0600 
    152 H152       -3.1760  -16.7153  -43.0978 H         1 UNK         0.0600 
    153 H153       -2.8975  -18.1815  -42.1592 H         1 UNK         0.0600 
    154 H154       -0.6677  -17.4625  -43.0624 H         1 UNK         0.3000 
    155 H155        2.2724  -17.8168  -45.0255 H         1 UNK         0.0600 
    156 H156        1.4256  -15.5474  -45.6366 H         1 UNK         0.0600 
    157 H157        2.6065  -15.4605  -44.3393 H         1 UNK         0.0600 
    158 H158        0.8896  -15.2870  -43.9818 H         1 UNK         0.0600 
    159 H159        1.9149  -16.9145  -42.3545 H         1 UNK         0.3000 
    160 H160        1.9967  -20.1714  -40.8136 H         1 UNK         0.0600 
    161 H161        3.8018  -17.6960  -40.7927 H         1 UNK         0.0600 
    162 H162        4.3127  -19.3233  -41.2208 H         1 UNK         0.0600 
    163 H163        3.7721  -18.9801  -39.5856 H         1 UNK         0.0600 
    164 H164        1.5983  -17.7103  -39.5526 H         1 UNK         0.3000 
    165 H165       -1.7485  -17.1439  -39.8521 H         1 UNK         0.0600 
    166 H166       -2.3500  -18.0497  -37.6246 H         1 UNK         0.0600 
    167 H167       -2.3266  -19.3215  -38.8337 H         1 UNK         0.0600 
    168 H168       -0.9933  -19.1748  -37.6953 H         1 UNK         0.0600 
    169 H169        0.0782  -17.0184  -37.5850 H         1 UNK         0.3000 
    170 H170       -0.3177  -15.6950  -40.9724 H         1 UNK         0.0600 
    171 H171       -2.3660  -14.8103  -39.8015 H         1 UNK         0.0600 
    172 H172       -1.5184  -13.3076  -39.4628 H         1 UNK         0.0600 
    173 H173       -1.8734  -13.7683  -41.1268 H         1 UNK         0.0600 
    174 H174        0.5925  -12.9724  -40.6394 H         1 UNK         0.3000 
    175 H175        3.1659  -12.6474  -40.5260 H         1 UNK         0.0600 
    176 H176        4.2566  -14.2197  -42.9184 H         1 UNK         0.0600 
    177 H177        5.0586  -12.8735  -42.1100 H         1 UNK         0.0600 
    178 H178        4.7975  -14.3819  -41.2520 H         1 UNK         0.0600 
    179 H179        2.8791  -12.2543  -43.3641 H         1 UNK         0.3000 
    180 H180        0.0983  -10.4628  -43.5950 H         1 UNK         0.0600 
    181 H181        1.1366   -8.2107  -43.8351 H         1 UNK         0.0600 
    182 H182        2.4938   -8.7105  -42.8249 H         1 UNK         0.0600 
    183 H183        0.8757   -8.5974  -42.1437 H         1 UNK         0.0600 
    184 H184        2.6720  -10.0467  -44.8632 H         1 UNK         0.3000 
    185 H185        2.8764  -10.7695  -46.9911 H         1 UNK         0.0600 
    186 H186        3.3442  -13.7024  -46.2043 H         1 UNK         0.0600 
    187 H187        4.3571  -12.7501  -47.2882 H         1 UNK         0.0600 
    188 H188        4.2553  -12.3292  -45.5873 H         1 UNK         0.0600 
    189 H189        2.0540  -13.1894  -48.2341 H         1 UNK         0.3000 
    190 H190       -0.4805  -20.0660  -46.8638 H         1 UNK         0.3000 
    191 H191       -0.9246  -20.5016  -49.6428 H         1 UNK         0.0600 
    192 H192       -1.4765  -18.3757  -48.4302 H         1 UNK         0.0600 
    193 H193       -2.7704  -19.1876  -47.5715 H         1 UNK         0.0600 
    194 H194       -2.8633  -19.0006  -49.3120 H         1 UNK         0.0600 
    195 H195       -2.8783  -21.4642  -46.7642 H         1 UNK         0.3000 
    196 H196       -4.9188  -22.8095  -48.0987 H         1 UNK         0.0600 
    197 H197       -5.0519  -22.0905  -45.7368 H         1 UNK         0.0600 
    198 H198       -3.8263  -23.2720  -45.2768 H         1 UNK         0.0600 
    199 H199       -5.3990  -23.8083  -45.8560 H         1 UNK         0.0600 
    200 H200       -1.7379  -24.0584  -47.2071 H         1 UNK         0.3000 
    201 H201       -2.1482  -26.8123  -47.5634 H         1 UNK         0.0600 
    202 H202       -0.1182  -25.8206  -46.5316 H         1 UNK         0.0600 
    203 H203        0.3658  -25.1409  -48.0849 H         1 UNK         0.0600 
    204 H204        0.3271  -26.8836  -47.8564 H         1 UNK         0.0600 
    205 H205       -2.1585  -24.3462  -50.0299 H         1 UNK         0.3000 
    206 H206       -1.5844  -26.1210  -52.2660 H         1 UNK         0.0600 
    207 H207       -2.8095  -23.3253  -52.1842 H         1 UNK         0.0600 
    208 H208       -1.0990  -23.6895  -52.3701 H         1 UNK         0.0600 
    209 H209       -2.2369  -24.1602  -53.6211 H         1 UNK         0.0600 
    210 H210       -4.2535  -25.8713  -50.2033 H         1 UNK         0.3000 
    211 H211       -6.2424  -26.7898  -50.1048 H         1 UNK         0.0600 
    212 H212       -5.0176  -28.7048  -52.1645 H         1 UNK         0.0600 
    213 H213       -6.4722  -29.0318  -51.2256 H         1 UNK         0.0600 
    214 H214       -4.9303  -28.8254  -50.4135 H         1 UNK         0.0600 
    215 H215       -6.2312  -27.7491  -53.4965 H         1 UNK         0.3000 
    216 H216       -8.7766  -26.5604  -54.0669 H         1 UNK         0.0600 
    217 H217       -8.2829  -27.3517  -56.3876 H         1 UNK         0.0600 
    218 H218       -7.9551  -28.6100  -55.2071 H         1 UNK         0.0600 
    219 H219       -6.6218  -27.7056  -55.9267 H         1 UNK         0.0600 
    220 H220       -5.5032  -25.3541  -54.2372 H         1 UNK         0.3000 
    221 H221       -6.4004  -22.8315  -55.5847 H         1 UNK         0.0600 
    222 H222       -3.6271  -24.1333  -55.5724 H         1 UNK         0.0600 
    223 H223       -4.7486  -24.1441  -56.9306 H         1 UNK         0.0600 
    224 H224       -4.0690  -22.6271  -56.3713 H         1 UNK         0.0600 
    225 H225       -6.7800  -23.4660  -52.7560 H         1 UNK         0.3000 
    226 H226       -4.8086  -22.5226  -51.0576 H         1 UNK         0.0600 
    227 H227       -6.6494  -23.7224  -50.1299 H         1 UNK         0.0600 
    228 H228       -6.7942  -22.1138  -49.4597 H         1 UNK         0.0600 
    229 H229       -7.8425  -22.5961  -50.7854 H         1 UNK         0.0600 
    230 H230       -6.6619  -20.5506  -53.1672 H         1 UNK         0.3000 
    231 H231       -6.3865  -18.0110  -51.7752 H         1 UNK         0.0600 
    232 H232       -7.1947  -17.1070  -53.9593 H         1 UNK         0.0600 
    233 H233       -8.2331  -18.3964  -53.3732 H         1 UNK         0.0600 
    234 H234       -7.0877  -18.7107  -54.6764 H         1 UNK         0.0600 
    235 H235       -4.0891  -18.5751  -51.2835 H         1 UNK         0.3000 
    236 H236       -1.9059  -18.1606  -51.3685 H         1 UNK         0.0600 
    237 H237       -2.6626  -15.9029  -53.2920 H         1 UNK         0.0600 
    238 H238       -2.7419  -15.8169  -51.5330 H         1 UNK         0.0600 
    239 H239       -1.1914  -15.9984  -52.3322 H         1 UNK         0.0600 
    240 H240       -2.6680  -20.2634  -53.0271 H         1 UNK         0.3000 
    241 H241       -1.7916  -21.7457  -54.3620 H         1 UNK         0.0600 
    242 H242       -3.2626  -19.4982  -57.1948 H         1 UNK         0.3800 
    243 H243       -3.3511  -19.1552  -55.4850 H         1 UNK         0.3800 
    244 H244        0.6375  -20.0630  -55.0434 H         1 UNK         0.0800 
    245 H245        0.4570  -21.7820  -55.1937 H         1 UNK         0.0800 
    246 H246        1.7127  -18.9984  -53.4129 H         1 UNK         0.0800 
    247 H247        2.9912  -20.1493  -53.1277 H         1 UNK         0.0800 
@<TRIPOS>BOND
     1    1    2 1    
     2    1  127 1    
     3    1  128 1    
     4    1  129 1    
     5    2    3 2    
     6    2    4 am   BACKBONE|DICT|INTERRES
     7    4    5 1    
     8    4  130 1    
     9    5    6 1    
    10    5   65 1    
    11    5  131 1    
    12    6    7 1    
    13    6  132 1    
    14    6  133 1    
    15    7    8 1    
    16    8    9 1    
    17    8  134 1    
    18    8  135 1    
    19    9   10 ar   
    20    9   14 ar   
    21   10   11 ar   
    22   10  136 1    
    23   11   12 ar   
    24   11  126 1    
    25   12   13 ar   
    26   12  137 1    
    27   13   14 ar   
    28   13   15 1    
    29   14  138 1    
    30   15   16 1    
    31   15  139 1    
    32   15  140 1    
    33   16   17 1    
    34   17   18 1    
    35   17  141 1    
    36   17  142 1    
    37   18   19 1    
    38   18   67 1    
    39   18  143 1    
    40   19   20 am   BACKBONE|DICT|INTERRES
    41   19  144 1    
    42   20   21 2    
    43   20   22 1    
    44   22   23 1    
    45   22   24 1    
    46   22  145 1    
    47   23  146 1    
    48   23  147 1    
    49   23  148 1    
    50   24   25 am   BACKBONE|DICT|INTERRES
    51   24  149 1    
    52   25   26 2    
    53   25   27 1    
    54   27   28 1    
    55   27   29 1    
    56   27  150 1    
    57   28  151 1    
    58   28  152 1    
    59   28  153 1    
    60   29   30 am   BACKBONE|DICT|INTERRES
    61   29  154 1    
    62   30   31 2    
    63   30   32 1    
    64   32   33 1    
    65   32   34 1    
    66   32  155 1    
    67   33  156 1    
    68   33  157 1    
    69   33  158 1    
    70   34   35 am   BACKBONE|DICT|INTERRES
    71   34  159 1    
    72   35   36 2    
    73   35   37 1    
    74   37   38 1    
    75   37   39 1    
    76   37  160 1    
    77   38  161 1    
    78   38  162 1    
    79   38  163 1    
    80   39   40 am   BACKBONE|DICT|INTERRES
    81   39  164 1    
    82   40   41 2    
    83   40   42 1    
    84   42   43 1    
    85   42   44 1    
    86   42  165 1    
    87   43  166 1    
    88   43  167 1    
    89   43  168 1    
    90   44   45 am   BACKBONE|DICT|INTERRES
    91   44  169 1    
    92   45   46 2    
    93   45   47 1    
    94   47   48 1    
    95   47   49 1    
    96   47  170 1    
    97   48  171 1    
    98   48  172 1    
    99   48  173 1    
   100   49   50 am   BACKBONE|DICT|INTERRES
   101   49  174 1    
   102   50   51 2    
   103   50   52 1    
   104   52   53 1    
   105   52   54 1    
   106   52  175 1    
   107   53  176 1    
   108   53  177 1    
   109   53  178 1    
   110   54   55 am   BACKBONE|DICT|INTERRES
   111   54  179 1    
   112   55   56 2    
   113   55   57 1    
   114   57   58 1    
   115   57   59 1    
   116   57  180 1    
   117   58  181 1    
   118   58  182 1    
   119   58  183 1    
   120   59   60 am   BACKBONE|DICT|INTERRES
   121   59  184 1    
   122   60   61 2    
   123   60   62 1    
   124   62   63 1    
   125   62   64 1    
   126   62  185 1    
   127   63  186 1    
   128   63  187 1    
   129   63  188 1    
   130   64   65 am   BACKBONE|DICT|INTERRES
   131   64  189 1    
   132   65   66 2    
   133   67   68 2    
   134   67   69 am   BACKBONE|DICT|INTERRES
   135   69   70 1    
   136   69  190 1    
   137   70   71 1    
   138   70   72 1    
   139   70  191 1    
   140   71  192 1    
   141   71  193 1    
   142   71  194 1    
   143   72   73 2    
   144   72   74 am   BACKBONE|DICT|INTERRES
   145   74   75 1    
   146   74  195 1    
   147   75   76 1    
   148   75   77 1    
   149   75  196 1    
   150   76  197 1    
   151   76  198 1    
   152   76  199 1    
   153   77   78 2    
   154   77   79 am   BACKBONE|DICT|INTERRES
   155   79   80 1    
   156   79  200 1    
   157   80   81 1    
   158   80   82 1    
   159   80  201 1    
   160   81  202 1    
   161   81  203 1    
   162   81  204 1    
   163   82   83 2    
   164   82   84 am   BACKBONE|DICT|INTERRES
   165   84   85 1    
   166   84  205 1    
   167   85   86 1    
   168   85   87 1    
   169   85  206 1    
   170   86  207 1    
   171   86  208 1    
   172   86  209 1    
   173   87   88 2    
   174   87   89 am   BACKBONE|DICT|INTERRES
   175   89   90 1    
   176   89  210 1    
   177   90   91 1    
   178   90   92 1    
   179   90  211 1    
   180   91  212 1    
   181   91  213 1    
   182   91  214 1    
   183   92   93 2    
   184   92   94 am   BACKBONE|DICT|INTERRES
   185   94   95 1    
   186   94  215 1    
   187   95   96 1    
   188   95   97 1    
   189   95  216 1    
   190   96  217 1    
   191   96  218 1    
   192   96  219 1    
   193   97   98 2    
   194   97   99 am   BACKBONE|DICT|INTERRES
   195   99  100 1    
   196   99  220 1    
   197  100  101 1    
   198  100  102 1    
   199  100  221 1    
   200  101  222 1    
   201  101  223 1    
   202  101  224 1    
   203  102  103 2    
   204  102  104 am   BACKBONE|DICT|INTERRES
   205  104  105 1    
   206  104  225 1    
   207  105  106 1    
   208  105  107 1    
   209  105  226 1    
   210  106  227 1    
   211  106  228 1    
   212  106  229 1    
   213  107  108 2    
   214  107  109 am   BACKBONE|DICT|INTERRES
   215  109  110 1    
   216  109  230 1    
   217  110  111 1    
   218  110  112 1    
   219  110  231 1    
   220  111  232 1    
   221  111  233 1    
   222  111  234 1    
   223  112  113 2    
   224  112  114 am   BACKBONE|DICT|INTERRES
   225  114  115 1    
   226  114  235 1    
   227  115  116 1    
   228  115  117 1    
   229  115  236 1    
   230  116  237 1    
   231  116  238 1    
   232  116  239 1    
   233  117  118 2    
   234  117  119 am   BACKBONE|DICT|INTERRES
   235  119  120 1    
   236  119  240 1    
   237  120  121 1    
   238  120  124 1    
   239  120  241 1    
   240  121  122 am   BACKBONE|DICT|INTERRES
   241  121  123 2    
   242  122  242 1    
   243  122  243 1    
   244  124  125 1    
   245  124  244 1    
   246  124  245 1    
   247  125  126 1    
   248  126  246 1    
   249  126  247 1    
@<TRIPOS>SUBSTRUCTURE
     1 UNK         1 GROUP             0       ****    0 ROOT    
