@<TRIPOS>MOLECULE
3R540
247   249    1
SMALL
USER_CHARGES


@<TRIPOS>ATOM
      1 CA          4.9139  -12.6873  -51.3129 C.3       0 UNK        -0.1800 
      2 C           5.6063  -13.3389  -50.1244 C.2       0 UNK         0.5000 
      3 O           6.1147  -12.6367  -49.2510 O.2       0 UNK        -0.5000 
      4 N           5.6257  -14.6777  -50.0902 N.am      1 UNK        -0.5000 
      5 CA          6.2377  -15.4933  -49.0337 C.3       1 UNK         0.1400 
      6 C6          6.2741  -16.9981  -49.4038 C.3       23 UNK        -0.0398 
      7 S7          7.0791  -17.3895  -51.0008 S.3       23 UNK        -0.2404 
      8 C8          5.7607  -17.2627  -52.2684 C.3       23 UNK        -0.0205 
      9 C9          4.3676  -17.6395  -51.7777 C.ar      23 UNK        -0.0193 
     10 C10         3.3604  -16.6726  -51.7197 C.ar      23 UNK        -0.1150 
     11 C11         2.0864  -16.9845  -51.2374 C.ar      23 UNK        -0.0193 
     12 C12         1.8250  -18.2959  -50.8153 C.ar      23 UNK        -0.1150 
     13 C13         2.8179  -19.2776  -50.8820 C.ar      23 UNK        -0.0193 
     14 C14         4.0843  -18.9460  -51.3723 C.ar      23 UNK        -0.1150 
     15 C15         2.5299  -20.6994  -50.4267 C.3       23 UNK        -0.0205 
     16 S16         3.0551  -20.9677  -48.7046 S.3       23 UNK        -0.2404 
     17 C17         1.5779  -20.4535  -47.7619 C.3       23 UNK        -0.0398 
     18 CA          0.7785  -21.6712  -47.2339 C.3       11 UNK         0.1400 
     19 N           0.0050  -21.3632  -46.0288 N.am      11 UNK        -0.5000 
     20 C          -0.5869  -22.2841  -45.2542 C.2       10 UNK         0.5000 
     21 O          -0.5141  -23.4959  -45.4593 O.2       10 UNK        -0.5000 
     22 CA         -1.4375  -21.7673  -44.0804 C.3       10 UNK         0.1400 
     23 CB         -0.5477  -21.3602  -42.8970 C.3       10 UNK        -0.1800 
     24 N          -2.3063  -20.6510  -44.4581 N.am      10 UNK        -0.5000 
     25 C          -3.3108  -20.7411  -45.3423 C.2       9 UNK         0.5000 
     26 O          -3.6204  -21.7846  -45.9169 O.2       9 UNK        -0.5000 
     27 CA         -4.0715  -19.4439  -45.6703 C.3       9 UNK         0.1400 
     28 CB         -5.1082  -19.1218  -44.5850 C.3       9 UNK        -0.1800 
     29 N          -3.1715  -18.3055  -45.8424 N.am      9 UNK        -0.5000 
     30 C          -2.3124  -18.1722  -46.8610 C.2       8 UNK         0.5000 
     31 O          -2.2565  -18.9470  -47.8171 O.2       8 UNK        -0.5000 
     32 CA         -1.3362  -16.9879  -46.7891 C.3       8 UNK         0.1400 
     33 CB         -1.9970  -15.6959  -47.2890 C.3       8 UNK        -0.1800 
     34 N          -0.8172  -16.7692  -45.4409 N.am      8 UNK        -0.5000 
     35 C          -0.0425  -17.6288  -44.7672 C.2       7 UNK         0.5000 
     36 O           0.3397  -18.7038  -45.2231 O.2       7 UNK        -0.5000 
     37 CA          0.3319  -17.2424  -43.3270 C.3       7 UNK         0.1400 
     38 CB          1.5564  -16.3173  -43.3059 C.3       7 UNK        -0.1800 
     39 N          -0.7790  -16.6028  -42.6248 N.am      7 UNK        -0.5000 
     40 C          -1.9149  -17.2258  -42.2807 C.2       6 UNK         0.5000 
     41 O          -2.1319  -18.4203  -42.4850 O.2       6 UNK        -0.5000 
     42 CA         -3.0092  -16.3455  -41.6527 C.3       6 UNK         0.1400 
     43 CB         -2.7361  -16.1175  -40.1585 C.3       6 UNK        -0.1800 
     44 N          -3.1321  -15.0533  -42.3306 N.am      6 UNK        -0.5000 
     45 C          -3.5635  -14.9047  -43.5910 C.2       5 UNK         0.5000 
     46 O          -3.9331  -15.8407  -44.3003 O.2       5 UNK        -0.5000 
     47 CA         -3.5378  -13.4763  -44.1662 C.3       5 UNK         0.1400 
     48 CB         -4.8202  -12.7198  -43.7898 C.3       5 UNK        -0.1800 
     49 N          -2.3685  -12.6955  -43.7460 N.am      5 UNK        -0.5000 
     50 C          -1.1042  -12.9927  -44.0723 C.2       4 UNK         0.5000 
     51 O          -0.7806  -13.9963  -44.7111 O.2       4 UNK        -0.5000 
     52 CA         -0.0133  -12.0324  -43.5842 C.3       4 UNK         0.1400 
     53 CB          0.4830  -12.4460  -42.1865 C.3       4 UNK        -0.1800 
     54 N           1.0843  -12.0676  -44.5459 N.am      4 UNK        -0.5000 
     55 C           2.0649  -11.1645  -44.6670 C.2       3 UNK         0.5000 
     56 O           2.1517  -10.1678  -43.9474 O.2       3 UNK        -0.5000 
     57 CA          3.1047  -11.3814  -45.7949 C.3       3 UNK         0.1400 
     58 CB          4.5278  -10.9610  -45.3713 C.3       3 UNK        -0.1800 
     59 N           3.1136  -12.7317  -46.3771 N.am      3 UNK        -0.5000 
     60 C           3.4121  -13.8835  -45.7574 C.2       2 UNK         0.5000 
     61 O           3.7550  -13.9712  -44.5788 O.2       2 UNK        -0.5000 
     62 CA          3.2712  -15.1571  -46.6070 C.3       2 UNK         0.1400 
     63 CB          1.8355  -15.3274  -47.1257 C.3       2 UNK        -0.1800 
     64 N           4.1804  -15.1860  -47.7467 N.am      2 UNK        -0.5000 
     65 C           5.5097  -15.3393  -47.6808 C.2       1 UNK         0.5000 
     66 O           6.1485  -15.4061  -46.6303 O.2       1 UNK        -0.5000 
     67 C          -0.1058  -22.2982  -48.3293 C.2       11 UNK         0.5000 
     68 O           0.3184  -23.2623  -48.9653 O.2       11 UNK        -0.5000 
     69 N          -1.3353  -21.7859  -48.4945 N.am      12 UNK        -0.5000 
     70 CA         -2.3390  -22.3614  -49.3881 C.3       12 UNK         0.1400 
     71 CB         -3.5806  -21.4696  -49.4387 C.3       12 UNK        -0.1800 
     72 C          -2.7342  -23.7918  -48.9930 C.2       12 UNK         0.5000 
     73 O          -2.7531  -24.6662  -49.8563 O.2       12 UNK        -0.5000 
     74 N          -2.9964  -24.0148  -47.6978 N.am      13 UNK        -0.5000 
     75 CA         -3.3131  -25.3280  -47.1355 C.3       13 UNK         0.1400 
     76 CB         -3.6990  -25.1783  -45.6565 C.3       13 UNK        -0.1800 
     77 C          -2.1692  -26.3448  -47.3113 C.2       13 UNK         0.5000 
     78 O          -2.4321  -27.4904  -47.6779 O.2       13 UNK        -0.5000 
     79 N          -0.9229  -25.8978  -47.0992 N.am      14 UNK        -0.5000 
     80 CA          0.2939  -26.6829  -47.3197 C.3       14 UNK         0.1400 
     81 CB          1.5022  -25.9232  -46.7515 C.3       14 UNK        -0.1800 
     82 C           0.5214  -27.0403  -48.8022 C.2       14 UNK         0.5000 
     83 O           0.9361  -28.1609  -49.1003 O.2       14 UNK        -0.5000 
     84 N           0.2233  -26.0947  -49.7031 N.am      15 UNK        -0.5000 
     85 CA          0.3011  -26.2608  -51.1569 C.3       15 UNK         0.1400 
     86 CB          0.3632  -24.8685  -51.8069 C.3       15 UNK        -0.1800 
     87 C          -0.8648  -27.0761  -51.7557 C.2       15 UNK         0.5000 
     88 O          -0.7906  -27.4477  -52.9276 O.2       15 UNK        -0.5000 
     89 N          -1.9190  -27.3144  -50.9609 N.am      16 UNK        -0.5000 
     90 CA         -3.2060  -27.9146  -51.3311 C.3       16 UNK         0.1400 
     91 CB         -3.0349  -29.3796  -51.7844 C.3       16 UNK        -0.1800 
     92 C          -3.9987  -27.0479  -52.3359 C.2       16 UNK         0.5000 
     93 O          -4.6998  -27.5763  -53.2014 O.2       16 UNK        -0.5000 
     94 N          -3.8728  -25.7250  -52.1888 N.am      17 UNK        -0.5000 
     95 CA         -4.6109  -24.6998  -52.9185 C.3       17 UNK         0.1400 
     96 CB         -3.6556  -23.5214  -53.1804 C.3       17 UNK        -0.1800 
     97 C          -5.8351  -24.2446  -52.1008 C.2       17 UNK         0.5000 
     98 O          -6.0359  -24.6971  -50.9698 O.2       17 UNK        -0.5000 
     99 N          -6.6356  -23.3428  -52.6845 N.am      18 UNK        -0.5000 
    100 CA        -7.7687  -22.6929  -52.0245 C.3       18 UNK         0.1400 
    101 CB        -8.5514  -21.8645  -53.0551 C.3       18 UNK        -0.1800 
    102 C         -7.2942  -21.8044  -50.8600 C.2       18 UNK         0.5000 
    103 O         -6.4506  -20.9307  -51.0690 O.2       18 UNK        -0.5000 
    104 N         -7.8485  -22.0392  -49.6634 N.am      19 UNK        -0.5000 
    105 CA        -7.4425  -21.4167  -48.3976 C.3       19 UNK         0.1400 
    106 CB        -8.1512  -22.1376  -47.2406 C.3       19 UNK        -0.1800 
    107 C         -7.6698  -19.8938  -48.3080 C.2       19 UNK         0.5000 
    108 O         -7.1552  -19.2633  -47.3838 O.2       19 UNK        -0.5000 
    109 N         -8.4117  -19.3189  -49.2631 N.am      20 UNK        -0.5000 
    110 CA        -8.6772  -17.8882  -49.4195 C.3       20 UNK         0.1400 
    111 CB        -9.9013  -17.7201  -50.3383 C.3       20 UNK        -0.1800 
    112 C         -7.4413  -17.1003  -49.9171 C.2       20 UNK         0.5000 
    113 O         -7.5124  -16.4325  -50.9495 O.2       20 UNK        -0.5000 
    114 N         -6.3487  -17.1906  -49.1471 N.am      21 UNK        -0.5000 
    115 CA        -5.0470  -16.5393  -49.2954 C.3       21 UNK         0.1400 
    116 CB        -5.1784  -15.0069  -49.1811 C.3       21 UNK        -0.1800 
    117 C         -4.2773  -16.9624  -50.5639 C.2       21 UNK         0.5000 
    118 O         -4.5295  -16.4343  -51.6480 O.2       21 UNK        -0.5000 
    119 N         -3.3115  -17.8743  -50.3853 N.am      22 UNK        -0.5000 
    120 CA        -2.3192  -18.3027  -51.3920 C.3       22 UNK         0.1400 
    121 C         -2.8905  -19.1234  -52.5904 C.2       22 UNK         0.5000 
    122 N         -4.0969  -19.6709  -52.5175 N.am      22 UNK        -0.7600 
    123 O         -2.2165  -19.2981  -53.6017 O.2       22 UNK        -0.5000 
    124 C124       -1.3879  -17.1457  -51.8621 C.3       23 UNK        -0.0398 
    125 S125       -0.5731  -16.2750  -50.4783 S.3       23 UNK        -0.2404 
    126 C126        1.0513  -15.8584  -51.1931 C.3       23 UNK        -0.0205 
    127 H127        4.6002  -13.4216  -52.0548 H         1 UNK         0.0600 
    128 H128        5.5884  -11.9830  -51.7998 H         1 UNK         0.0600 
    129 H129        4.0319  -12.1407  -50.9791 H         1 UNK         0.0600 
    130 H130        5.2169  -15.2008  -50.8490 H         1 UNK         0.3000 
    131 H131        7.2648  -15.1466  -48.9010 H         1 UNK         0.0600 
    132 H132        5.2763  -17.4350  -49.3682 H         1 UNK         0.0800 
    133 H133        6.8384  -17.5381  -48.6411 H         1 UNK         0.0800 
    134 H134        5.7642  -16.2483  -52.6695 H         1 UNK         0.0800 
    135 H135        6.0243  -17.9100  -53.1060 H         1 UNK         0.0800 
    136 H136        3.5636  -15.6648  -52.0524 H         1 UNK         0.1150 
    137 H137        0.8529  -18.5676  -50.4336 H         1 UNK         0.1150 
    138 H138        4.8588  -19.6992  -51.4156 H         1 UNK         0.1150 
    139 H139        1.4719  -20.9385  -50.5438 H         1 UNK         0.0800 
    140 H140        3.0672  -21.4007  -51.0669 H         1 UNK         0.0800 
    141 H141        0.9513  -19.7740  -48.3416 H         1 UNK         0.0800 
    142 H142        1.9511  -19.8657  -46.9230 H         1 UNK         0.0800 
    143 H143        1.4988  -22.4354  -46.9328 H         1 UNK         0.0600 
    144 H144       -0.0526  -20.3817  -45.7624 H         1 UNK         0.3000 
    145 H145       -2.0785  -22.5880  -43.7517 H         1 UNK         0.0600 
    146 H146       -1.1474  -21.0582  -42.0383 H         1 UNK         0.0600 
    147 H147        0.0814  -22.1922  -42.5781 H         1 UNK         0.0600 
    148 H148        0.1109  -20.5309  -43.1537 H         1 UNK         0.0600 
    149 H149       -2.1416  -19.7665  -43.9885 H         1 UNK         0.3000 
    150 H150       -4.6020  -19.6006  -46.6113 H         1 UNK         0.0600 
    151 H151       -5.8063  -19.9498  -44.4557 H         1 UNK         0.0600 
    152 H152       -5.6945  -18.2426  -44.8534 H         1 UNK         0.0600 
    153 H153       -4.6386  -18.9290  -43.6199 H         1 UNK         0.0600 
    154 H154       -3.1996  -17.5855  -45.1280 H         1 UNK         0.3000 
    155 H155       -0.4950  -17.2202  -47.4441 H         1 UNK         0.0600 
    156 H156       -2.8535  -15.4136  -46.6791 H         1 UNK         0.0600 
    157 H157       -2.3510  -15.8090  -48.3108 H         1 UNK         0.0600 
    158 H158       -1.2926  -14.8643  -47.2861 H         1 UNK         0.0600 
    159 H159       -1.0272  -15.8699  -45.0177 H         1 UNK         0.3000 
    160 H160        0.5904  -18.1578  -42.7913 H         1 UNK         0.0600 
    161 H161        1.3587  -15.3711  -43.8088 H         1 UNK         0.0600 
    162 H162        2.4060  -16.7837  -43.8058 H         1 UNK         0.0600 
    163 H163        1.8650  -16.0937  -42.2847 H         1 UNK         0.0600 
    164 H164       -0.7020  -15.6112  -42.4586 H         1 UNK         0.3000 
    165 H165       -3.9597  -16.8748  -41.7502 H         1 UNK         0.0600 
    166 H166       -3.5461  -15.5572  -39.6914 H         1 UNK         0.0600 
    167 H167       -2.6517  -17.0673  -39.6287 H         1 UNK         0.0600 
    168 H168       -1.8089  -15.5668  -39.9953 H         1 UNK         0.0600 
    169 H169       -2.8490  -14.2329  -41.8155 H         1 UNK         0.3000 
    170 H170       -3.5055  -13.5617  -45.2542 H         1 UNK         0.0600 
    171 H171       -5.7061  -13.2704  -44.1094 H         1 UNK         0.0600 
    172 H172       -4.8986  -12.5682  -42.7125 H         1 UNK         0.0600 
    173 H173       -4.8568  -11.7420  -44.2705 H         1 UNK         0.0600 
    174 H174       -2.5545  -11.8605  -43.2092 H         1 UNK         0.3000 
    175 H175       -0.4246  -11.0216  -43.5475 H         1 UNK         0.0600 
    176 H176       -0.3369  -12.4667  -41.4677 H         1 UNK         0.0600 
    177 H177        0.9368  -13.4375  -42.1989 H         1 UNK         0.0600 
    178 H178        1.2265  -11.7458  -41.8059 H         1 UNK         0.0600 
    179 H179        1.0471  -12.8521  -45.1834 H         1 UNK         0.3000 
    180 H180        2.7995  -10.7154  -46.6031 H         1 UNK         0.0600 
    181 H181        4.8792  -11.5293  -44.5099 H         1 UNK         0.0600 
    182 H182        4.5615   -9.9052  -45.1003 H         1 UNK         0.0600 
    183 H183        5.2399  -11.1082  -46.1837 H         1 UNK         0.0600 
    184 H184        2.8477  -12.7792  -47.3502 H         1 UNK         0.3000 
    185 H185        3.5005  -16.0096  -45.9642 H         1 UNK         0.0600 
    186 H186        1.1154  -15.1797  -46.3233 H         1 UNK         0.0600 
    187 H187        1.5908  -14.6136  -47.9127 H         1 UNK         0.0600 
    188 H188        1.6851  -16.3290  -47.5284 H         1 UNK         0.0600 
    189 H189        3.7585  -15.1323  -48.6613 H         1 UNK         0.3000 
    190 H190       -1.6176  -20.9766  -47.9538 H         1 UNK         0.3000 
    191 H191       -1.9072  -22.3992  -50.3901 H         1 UNK         0.0600 
    192 H192       -4.0188  -21.3186  -48.4540 H         1 UNK         0.0600 
    193 H193       -4.3404  -21.9201  -50.0751 H         1 UNK         0.0600 
    194 H194       -3.3463  -20.4939  -49.8505 H         1 UNK         0.0600 
    195 H195       -3.0006  -23.2291  -47.0531 H         1 UNK         0.3000 
    196 H196       -4.1817  -25.7130  -47.6739 H         1 UNK         0.0600 
    197 H197       -3.9670  -26.1427  -45.2233 H         1 UNK         0.0600 
    198 H198       -4.5586  -24.5181  -45.5393 H         1 UNK         0.0600 
    199 H199       -2.8807  -24.7680  -45.0647 H         1 UNK         0.0600 
    200 H200       -0.7985  -24.9522  -46.7487 H         1 UNK         0.3000 
    201 H201        0.1912  -27.6182  -46.7657 H         1 UNK         0.0600 
    202 H202        1.3776  -25.7241  -45.6869 H         1 UNK         0.0600 
    203 H203        1.6502  -24.9675  -47.2547 H         1 UNK         0.0600 
    204 H204        2.4187  -26.5023  -46.8699 H         1 UNK         0.0600 
    205 H205       -0.0485  -25.1737  -49.3715 H         1 UNK         0.3000 
    206 H206        1.2259  -26.7895  -51.3963 H         1 UNK         0.0600 
    207 H207        1.2181  -24.2995  -51.4410 H         1 UNK         0.0600 
    208 H208        0.4633  -24.9433  -52.8903 H         1 UNK         0.0600 
    209 H209       -0.5376  -24.2894  -51.5999 H         1 UNK         0.0600 
    210 H210       -1.8810  -26.9257  -50.0275 H         1 UNK         0.3000 
    211 H211       -3.7995  -27.9252  -50.4158 H         1 UNK         0.0600 
    212 H212       -2.5183  -29.4531  -52.7416 H         1 UNK         0.0600 
    213 H213       -4.0038  -29.8665  -51.9003 H         1 UNK         0.0600 
    214 H214       -2.4692  -29.9549  -51.0515 H         1 UNK         0.0600 
    215 H215       -3.3525  -25.3884  -51.3797 H         1 UNK         0.3000 
    216 H216       -4.9583  -25.0953  -53.8749 H         1 UNK         0.0600 
    217 H217       -3.3545  -23.0336  -52.2534 H         1 UNK         0.0600 
    218 H218       -4.1207  -22.7642  -53.8119 H         1 UNK         0.0600 
    219 H219       -2.7510  -23.8533  -53.6904 H         1 UNK         0.0600 
    220 H220       -6.3999  -23.0010  -53.6043 H         1 UNK         0.3000 
    221 H221       -8.4290  -23.4719  -51.6375 H         1 UNK         0.0600 
    222 H222       -8.9247  -22.4919  -53.8647 H         1 UNK         0.0600 
    223 H223       -7.9340  -21.0800  -53.4951 H         1 UNK         0.0600 
    224 H224       -9.4144  -21.3823  -52.5941 H         1 UNK         0.0600 
    225 H225       -8.5417  -22.7699  -49.5899 H         1 UNK         0.3000 
    226 H226       -6.3699  -21.5797  -48.2830 H         1 UNK         0.0600 
    227 H227       -7.9123  -23.2013  -47.2330 H         1 UNK         0.0600 
    228 H228       -7.8408  -21.7322  -46.2765 H         1 UNK         0.0600 
    229 H229       -9.2350  -22.0349  -47.3071 H         1 UNK         0.0600 
    230 H230       -8.7552  -19.9157  -50.0002 H         1 UNK         0.3000 
    231 H231       -8.9412  -17.4806  -48.4414 H         1 UNK         0.0600 
    232 H232       -9.7124  -18.1166  -51.3368 H         1 UNK         0.0600 
    233 H233      -10.1696  -16.6683  -50.4461 H         1 UNK         0.0600 
    234 H234      -10.7728  -18.2342  -49.9325 H         1 UNK         0.0600 
    235 H235       -6.4309  -17.8142  -48.3478 H         1 UNK         0.3000 
    236 H236       -4.4692  -16.8704  -48.4331 H         1 UNK         0.0600 
    237 H237       -4.2023  -14.5252  -49.2454 H         1 UNK         0.0600 
    238 H238       -5.7960  -14.5886  -49.9762 H         1 UNK         0.0600 
    239 H239       -5.6202  -14.7202  -48.2267 H         1 UNK         0.0600 
    240 H240       -3.1586  -18.2639  -49.4612 H         1 UNK         0.3000 
    241 H241       -1.6825  -19.0148  -50.8661 H         1 UNK         0.0600 
    242 H242       -4.4396  -20.1940  -53.3053 H         1 UNK         0.3800 
    243 H243       -4.6819  -19.5811  -51.6994 H         1 UNK         0.3800 
    244 H244       -1.9463  -16.4155  -52.4491 H         1 UNK         0.0800 
    245 H245       -0.6121  -17.5346  -52.5236 H         1 UNK         0.0800 
    246 H246        0.9033  -15.4657  -52.2002 H         1 UNK         0.0800 
    247 H247        1.4651  -15.0390  -50.6039 H         1 UNK         0.0800 
@<TRIPOS>BOND
     1    1    2 1    
     2    1  127 1    
     3    1  128 1    
     4    1  129 1    
     5    2    3 2    
     6    2    4 am   BACKBONE|DICT|INTERRES
     7    4    5 1    
     8    4  130 1    
     9    5    6 1    
    10    5   65 1    
    11    5  131 1    
    12    6    7 1    
    13    6  132 1    
    14    6  133 1    
    15    7    8 1    
    16    8    9 1    
    17    8  134 1    
    18    8  135 1    
    19    9   10 ar   
    20    9   14 ar   
    21   10   11 ar   
    22   10  136 1    
    23   11   12 ar   
    24   11  126 1    
    25   12   13 ar   
    26   12  137 1    
    27   13   14 ar   
    28   13   15 1    
    29   14  138 1    
    30   15   16 1    
    31   15  139 1    
    32   15  140 1    
    33   16   17 1    
    34   17   18 1    
    35   17  141 1    
    36   17  142 1    
    37   18   19 1    
    38   18   67 1    
    39   18  143 1    
    40   19   20 am   BACKBONE|DICT|INTERRES
    41   19  144 1    
    42   20   21 2    
    43   20   22 1    
    44   22   23 1    
    45   22   24 1    
    46   22  145 1    
    47   23  146 1    
    48   23  147 1    
    49   23  148 1    
    50   24   25 am   BACKBONE|DICT|INTERRES
    51   24  149 1    
    52   25   26 2    
    53   25   27 1    
    54   27   28 1    
    55   27   29 1    
    56   27  150 1    
    57   28  151 1    
    58   28  152 1    
    59   28  153 1    
    60   29   30 am   BACKBONE|DICT|INTERRES
    61   29  154 1    
    62   30   31 2    
    63   30   32 1    
    64   32   33 1    
    65   32   34 1    
    66   32  155 1    
    67   33  156 1    
    68   33  157 1    
    69   33  158 1    
    70   34   35 am   BACKBONE|DICT|INTERRES
    71   34  159 1    
    72   35   36 2    
    73   35   37 1    
    74   37   38 1    
    75   37   39 1    
    76   37  160 1    
    77   38  161 1    
    78   38  162 1    
    79   38  163 1    
    80   39   40 am   BACKBONE|DICT|INTERRES
    81   39  164 1    
    82   40   41 2    
    83   40   42 1    
    84   42   43 1    
    85   42   44 1    
    86   42  165 1    
    87   43  166 1    
    88   43  167 1    
    89   43  168 1    
    90   44   45 am   BACKBONE|DICT|INTERRES
    91   44  169 1    
    92   45   46 2    
    93   45   47 1    
    94   47   48 1    
    95   47   49 1    
    96   47  170 1    
    97   48  171 1    
    98   48  172 1    
    99   48  173 1    
   100   49   50 am   BACKBONE|DICT|INTERRES
   101   49  174 1    
   102   50   51 2    
   103   50   52 1    
   104   52   53 1    
   105   52   54 1    
   106   52  175 1    
   107   53  176 1    
   108   53  177 1    
   109   53  178 1    
   110   54   55 am   BACKBONE|DICT|INTERRES
   111   54  179 1    
   112   55   56 2    
   113   55   57 1    
   114   57   58 1    
   115   57   59 1    
   116   57  180 1    
   117   58  181 1    
   118   58  182 1    
   119   58  183 1    
   120   59   60 am   BACKBONE|DICT|INTERRES
   121   59  184 1    
   122   60   61 2    
   123   60   62 1    
   124   62   63 1    
   125   62   64 1    
   126   62  185 1    
   127   63  186 1    
   128   63  187 1    
   129   63  188 1    
   130   64   65 am   BACKBONE|DICT|INTERRES
   131   64  189 1    
   132   65   66 2    
   133   67   68 2    
   134   67   69 am   BACKBONE|DICT|INTERRES
   135   69   70 1    
   136   69  190 1    
   137   70   71 1    
   138   70   72 1    
   139   70  191 1    
   140   71  192 1    
   141   71  193 1    
   142   71  194 1    
   143   72   73 2    
   144   72   74 am   BACKBONE|DICT|INTERRES
   145   74   75 1    
   146   74  195 1    
   147   75   76 1    
   148   75   77 1    
   149   75  196 1    
   150   76  197 1    
   151   76  198 1    
   152   76  199 1    
   153   77   78 2    
   154   77   79 am   BACKBONE|DICT|INTERRES
   155   79   80 1    
   156   79  200 1    
   157   80   81 1    
   158   80   82 1    
   159   80  201 1    
   160   81  202 1    
   161   81  203 1    
   162   81  204 1    
   163   82   83 2    
   164   82   84 am   BACKBONE|DICT|INTERRES
   165   84   85 1    
   166   84  205 1    
   167   85   86 1    
   168   85   87 1    
   169   85  206 1    
   170   86  207 1    
   171   86  208 1    
   172   86  209 1    
   173   87   88 2    
   174   87   89 am   BACKBONE|DICT|INTERRES
   175   89   90 1    
   176   89  210 1    
   177   90   91 1    
   178   90   92 1    
   179   90  211 1    
   180   91  212 1    
   181   91  213 1    
   182   91  214 1    
   183   92   93 2    
   184   92   94 am   BACKBONE|DICT|INTERRES
   185   94   95 1    
   186   94  215 1    
   187   95   96 1    
   188   95   97 1    
   189   95  216 1    
   190   96  217 1    
   191   96  218 1    
   192   96  219 1    
   193   97   98 2    
   194   97   99 am   BACKBONE|DICT|INTERRES
   195   99  100 1    
   196   99  220 1    
   197  100  101 1    
   198  100  102 1    
   199  100  221 1    
   200  101  222 1    
   201  101  223 1    
   202  101  224 1    
   203  102  103 2    
   204  102  104 am   BACKBONE|DICT|INTERRES
   205  104  105 1    
   206  104  225 1    
   207  105  106 1    
   208  105  107 1    
   209  105  226 1    
   210  106  227 1    
   211  106  228 1    
   212  106  229 1    
   213  107  108 2    
   214  107  109 am   BACKBONE|DICT|INTERRES
   215  109  110 1    
   216  109  230 1    
   217  110  111 1    
   218  110  112 1    
   219  110  231 1    
   220  111  232 1    
   221  111  233 1    
   222  111  234 1    
   223  112  113 2    
   224  112  114 am   BACKBONE|DICT|INTERRES
   225  114  115 1    
   226  114  235 1    
   227  115  116 1    
   228  115  117 1    
   229  115  236 1    
   230  116  237 1    
   231  116  238 1    
   232  116  239 1    
   233  117  118 2    
   234  117  119 am   BACKBONE|DICT|INTERRES
   235  119  120 1    
   236  119  240 1    
   237  120  121 1    
   238  120  124 1    
   239  120  241 1    
   240  121  122 am   BACKBONE|DICT|INTERRES
   241  121  123 2    
   242  122  242 1    
   243  122  243 1    
   244  124  125 1    
   245  124  244 1    
   246  124  245 1    
   247  125  126 1    
   248  126  246 1    
   249  126  247 1    
@<TRIPOS>SUBSTRUCTURE
     1 UNK         1 GROUP             0       ****    0 ROOT    
