@<TRIPOS>MOLECULE
3R540
247   249    1
SMALL
USER_CHARGES


@<TRIPOS>ATOM
      1 CA          6.4537  -10.0598  -53.3736 C.3       0 UNK        -0.1800 
      2 C           6.5156  -11.2479  -52.4238 C.2       0 UNK         0.5000 
      3 O           7.5238  -11.4365  -51.7422 O.2       0 UNK        -0.5000 
      4 N           5.4477  -12.0528  -52.3838 N.am      1 UNK        -0.5000 
      5 CA          5.2836  -13.1948  -51.4805 C.3       1 UNK         0.1400 
      6 C6          4.1348  -14.1369  -51.9309 C.3       23 UNK        -0.0398 
      7 S7          2.5507  -13.2919  -52.2826 S.3       23 UNK        -0.2404 
      8 C8          1.5942  -14.6301  -53.0607 C.3       23 UNK        -0.0205 
      9 C9          0.9020  -15.5099  -52.0304 C.ar      23 UNK        -0.0193 
     10 C10        -0.3887  -15.1951  -51.5995 C.ar      23 UNK        -0.1150 
     11 C11        -1.0557  -16.0157  -50.6860 C.ar      23 UNK        -0.0193 
     12 C12        -0.4132  -17.1589  -50.1969 C.ar      23 UNK        -0.1150 
     13 C13         0.8946  -17.4712  -50.5918 C.ar      23 UNK        -0.0193 
     14 C14         1.5380  -16.6446  -51.5198 C.ar      23 UNK        -0.1150 
     15 C15         1.6270  -18.7030  -50.0577 C.3       23 UNK        -0.0205 
     16 S16         1.4541  -18.9547  -48.2549 S.3       23 UNK        -0.2404 
     17 C17         0.0464  -20.1139  -48.1736 C.3       23 UNK        -0.0398 
     18 CA          0.4235  -21.4869  -47.5632 C.3       11 UNK         0.1400 
     19 N           0.8452  -21.3950  -46.1619 N.am      11 UNK        -0.5000 
     20 C           1.4179  -22.3960  -45.4791 C.2       10 UNK         0.5000 
     21 O           1.6739  -23.4958  -45.9695 O.2       10 UNK        -0.5000 
     22 CA          1.7348  -22.1499  -43.9910 C.3       10 UNK         0.1400 
     23 CB          3.0729  -21.4097  -43.8457 C.3       10 UNK        -0.1800 
     24 N           0.7057  -21.4256  -43.2392 N.am      10 UNK        -0.5000 
     25 C          -0.5918  -21.7504  -43.1580 C.2       9 UNK         0.5000 
     26 O          -1.1090  -22.6654  -43.7956 O.2       9 UNK        -0.5000 
     27 CA         -1.4726  -20.9233  -42.2121 C.3       9 UNK         0.1400 
     28 CB         -0.6929  -20.1203  -41.1516 C.3       9 UNK        -0.1800 
     29 N          -2.2832  -20.0127  -43.0108 N.am      9 UNK        -0.5000 
     30 C          -3.5997  -19.8195  -42.8644 C.2       8 UNK         0.5000 
     31 O          -4.2885  -20.4380  -42.0513 O.2       8 UNK        -0.5000 
     32 CA         -4.2684  -18.7500  -43.7519 C.3       8 UNK         0.1400 
     33 CB         -5.1272  -17.7900  -42.9104 C.3       8 UNK        -0.1800 
     34 N          -3.2880  -17.9528  -44.4875 N.am      8 UNK        -0.5000 
     35 C          -3.0762  -18.0096  -45.8080 C.2       7 UNK         0.5000 
     36 O          -3.6748  -18.7650  -46.5749 O.2       7 UNK        -0.5000 
     37 CA         -1.9807  -17.0786  -46.3639 C.3       7 UNK         0.1400 
     38 CB         -2.5754  -15.6970  -46.6720 C.3       7 UNK        -0.1800 
     39 N          -0.8230  -16.9000  -45.4836 N.am      7 UNK        -0.5000 
     40 C          -0.1007  -17.8713  -44.9078 C.2       6 UNK         0.5000 
     41 O          -0.3231  -19.0724  -45.0543 O.2       6 UNK        -0.5000 
     42 CA          1.0259  -17.4394  -43.9553 C.3       6 UNK         0.1400 
     43 CB          2.3333  -17.2574  -44.7356 C.3       6 UNK        -0.1800 
     44 N           0.7395  -16.2205  -43.1970 N.am      6 UNK        -0.5000 
     45 C          -0.3261  -15.9830  -42.4194 C.2       5 UNK         0.5000 
     46 O          -1.2443  -16.7878  -42.2554 O.2       5 UNK        -0.5000 
     47 CA         -0.4071  -14.6010  -41.7362 C.3       5 UNK         0.1400 
     48 CB          0.3340  -14.6015  -40.3857 C.3       5 UNK        -0.1800 
     49 N           0.0109  -13.4795  -42.5923 N.am      5 UNK        -0.5000 
     50 C           1.2301  -13.1901  -43.0688 C.2       4 UNK         0.5000 
     51 O           2.2552  -13.8096  -42.7777 O.2       4 UNK        -0.5000 
     52 CA          1.2964  -12.0680  -44.1225 C.3       4 UNK         0.1400 
     53 CB          2.2660  -10.9577  -43.6884 C.3       4 UNK        -0.1800 
     54 N           1.7046  -12.5748  -45.4357 N.am      4 UNK        -0.5000 
     55 C           1.1173  -13.5731  -46.1137 C.2       3 UNK         0.5000 
     56 O           0.1234  -14.1777  -45.7115 O.2       3 UNK        -0.5000 
     57 CA          1.7221  -13.9646  -47.4752 C.3       3 UNK         0.1400 
     58 CB          0.8211  -13.4804  -48.6197 C.3       3 UNK        -0.1800 
     59 N           3.0741  -13.4506  -47.7000 N.am      3 UNK        -0.5000 
     60 C           4.1897  -13.9264  -47.1338 C.2       2 UNK         0.5000 
     61 O           4.1970  -14.8267  -46.2948 O.2       2 UNK        -0.5000 
     62 CA          5.5147  -13.3132  -47.6332 C.3       2 UNK         0.1400 
     63 CB          6.7491  -13.9031  -46.9274 C.3       2 UNK        -0.1800 
     64 N           5.6605  -13.5057  -49.0777 N.am      2 UNK        -0.5000 
     65 C           5.0991  -12.7361  -50.0184 C.2       1 UNK         0.5000 
     66 O           4.4246  -11.7351  -49.7604 O.2       1 UNK        -0.5000 
     67 C          -0.7523  -22.4689  -47.7071 C.2       11 UNK         0.5000 
     68 O          -0.7019  -23.3669  -48.5485 O.2       11 UNK        -0.5000 
     69 N          -1.7773  -22.2908  -46.8621 N.am      12 UNK        -0.5000 
     70 CA         -2.9884  -23.1087  -46.8453 C.3       12 UNK         0.1400 
     71 CB         -4.0245  -22.4751  -45.9054 C.3       12 UNK        -0.1800 
     72 C          -2.7117  -24.5726  -46.4637 C.2       12 UNK         0.5000 
     73 O          -3.2840  -25.4765  -47.0704 O.2       12 UNK        -0.5000 
     74 N          -1.8056  -24.7806  -45.4999 N.am      13 UNK        -0.5000 
     75 CA         -1.3253  -26.0907  -45.0658 C.3       13 UNK         0.1400 
     76 CB         -0.4607  -25.9240  -43.8071 C.3       13 UNK        -0.1800 
     77 C          -0.5465  -26.8359  -46.1647 C.2       13 UNK         0.5000 
     78 O          -0.7198  -28.0464  -46.3086 O.2       13 UNK        -0.5000 
     79 N           0.2786  -26.1045  -46.9283 N.am      14 UNK        -0.5000 
     80 CA          1.0368  -26.6362  -48.0610 C.3       14 UNK         0.1400 
     81 CB          2.1173  -25.6283  -48.4817 C.3       14 UNK        -0.1800 
     82 C           0.1348  -27.0025  -49.2532 C.2       14 UNK         0.5000 
     83 O           0.3323  -28.0555  -49.8611 O.2       14 UNK        -0.5000 
     84 N          -0.8410  -26.1366  -49.5599 N.am      15 UNK        -0.5000 
     85 CA         -1.8132  -26.3418  -50.6351 C.3       15 UNK         0.1400 
     86 CB         -2.5009  -25.0056  -50.9511 C.3       15 UNK        -0.1800 
     87 C          -2.8724  -27.4103  -50.3076 C.2       15 UNK         0.5000 
     88 O          -3.3732  -28.0592  -51.2266 O.2       15 UNK        -0.5000 
     89 N          -3.2134  -27.5404  -49.0164 N.am      16 UNK        -0.5000 
     90 CA         -4.3304  -28.3131  -48.4596 C.3       16 UNK         0.1400 
     91 CB         -4.1330  -29.8264  -48.6854 C.3       16 UNK        -0.1800 
     92 C          -5.6969  -27.7886  -48.9559 C.2       16 UNK         0.5000 
     93 O          -6.6228  -28.5705  -49.1805 O.2       16 UNK        -0.5000 
     94 N          -5.7823  -26.4654  -49.1351 N.am      17 UNK        -0.5000 
     95 CA         -6.8847  -25.7174  -49.7309 C.3       17 UNK         0.1400 
     96 CB         -7.0007  -26.0542  -51.2337 C.3       17 UNK        -0.1800 
     97 C          -6.6112  -24.2175  -49.5243 C.2       17 UNK         0.5000 
     98 O          -5.5871  -23.8553  -48.9388 O.2       17 UNK        -0.5000 
     99 N          -7.5107  -23.3623  -50.0277 N.am      18 UNK        -0.5000 
    100 CA        -7.3456  -21.9082  -50.0785 C.3       18 UNK         0.1400 
    101 CB        -8.7097  -21.2550  -50.3623 C.3       18 UNK        -0.1800 
    102 C         -6.2868  -21.5175  -51.1294 C.2       18 UNK         0.5000 
    103 O         -6.6324  -21.2129  -52.2736 O.2       18 UNK        -0.5000 
    104 N         -5.0129  -21.5855  -50.7221 N.am      19 UNK        -0.5000 
    105 CA        -3.8144  -21.3106  -51.5159 C.3       19 UNK         0.1400 
    106 CB        -2.5997  -21.3355  -50.5821 C.3       19 UNK        -0.1800 
    107 C         -3.8854  -19.9572  -52.2363 C.2       19 UNK         0.5000 
    108 O         -4.0719  -18.9388  -51.5690 O.2       19 UNK        -0.5000 
    109 N         -3.7978  -19.9842  -53.5737 N.am      20 UNK        -0.5000 
    110 CA        -3.8912  -18.8349  -54.4861 C.3       20 UNK         0.1400 
    111 CB        -2.6204  -17.9665  -54.3728 C.3       20 UNK        -0.1800 
    112 C         -5.1976  -18.0137  -54.3482 C.2       20 UNK         0.5000 
    113 O         -5.2271  -16.8437  -54.7322 O.2       20 UNK        -0.5000 
    114 N         -6.2502  -18.6455  -53.8024 N.am      21 UNK        -0.5000 
    115 CA        -7.5416  -18.0699  -53.4168 C.3       21 UNK         0.1400 
    116 CB        -8.3152  -17.5542  -54.6487 C.3       21 UNK        -0.1800 
    117 C         -7.4360  -17.0240  -52.2831 C.2       21 UNK         0.5000 
    118 O         -8.2989  -16.1493  -52.1828 O.2       21 UNK        -0.5000 
    119 N         -6.4017  -17.1356  -51.4396 N.am      22 UNK        -0.5000 
    120 CA        -6.1365  -16.2372  -50.3057 C.3       22 UNK         0.1400 
    121 C         -5.6808  -16.9663  -49.0138 C.2       22 UNK         0.5000 
    122 N         -5.0019  -18.1035  -49.0863 N.am      22 UNK        -0.7600 
    123 O         -5.9632  -16.4908  -47.9179 O.2       22 UNK        -0.5000 
    124 C124       -5.1881  -15.0632  -50.6771 C.3       23 UNK        -0.0398 
    125 S125       -3.6602  -15.5515  -51.5582 S.3       23 UNK        -0.2404 
    126 C126       -2.4515  -15.6434  -50.2014 C.3       23 UNK        -0.0205 
    127 H127        5.5097  -10.0251  -53.9182 H         1 UNK         0.0600 
    128 H128        7.2637  -10.1175  -54.1008 H         1 UNK         0.0600 
    129 H129        6.5591   -9.1287  -52.8167 H         1 UNK         0.0600 
    130 H130        4.6325  -11.8285  -52.9370 H         1 UNK         0.3000 
    131 H131        6.2095  -13.7727  -51.5250 H         1 UNK         0.0600 
    132 H132        3.9620  -14.9193  -51.1898 H         1 UNK         0.0800 
    133 H133        4.4455  -14.6554  -52.8389 H         1 UNK         0.0800 
    134 H134        0.8468  -14.1839  -53.7185 H         1 UNK         0.0800 
    135 H135        2.2383  -15.2301  -53.7051 H         1 UNK         0.0800 
    136 H136       -0.8805  -14.3107  -51.9797 H         1 UNK         0.1150 
    137 H137       -0.9289  -17.7991  -49.4980 H         1 UNK         0.1150 
    138 H138        2.5378  -16.8863  -51.8518 H         1 UNK         0.1150 
    139 H139        1.2967  -19.5864  -50.6049 H         1 UNK         0.0800 
    140 H140        2.6945  -18.6103  -50.2633 H         1 UNK         0.0800 
    141 H141       -0.3527  -20.2467  -49.1788 H         1 UNK         0.0800 
    142 H142       -0.7538  -19.6479  -47.5993 H         1 UNK         0.0800 
    143 H143        1.2583  -21.8939  -48.1383 H         1 UNK         0.0600 
    144 H144        0.6045  -20.5343  -45.6763 H         1 UNK         0.3000 
    145 H145        1.8390  -23.1296  -43.5206 H         1 UNK         0.0600 
    146 H146        3.3744  -21.3382  -42.8005 H         1 UNK         0.0600 
    147 H147        3.8693  -21.9330  -44.3766 H         1 UNK         0.0600 
    148 H148        3.0183  -20.3987  -44.2503 H         1 UNK         0.0600 
    149 H149        1.0312  -20.6524  -42.6800 H         1 UNK         0.3000 
    150 H150       -2.1068  -21.6420  -41.6892 H         1 UNK         0.0600 
    151 H151       -0.0330  -20.7662  -40.5709 H         1 UNK         0.0600 
    152 H152       -1.3783  -19.6470  -40.4482 H         1 UNK         0.0600 
    153 H153       -0.0894  -19.3287  -41.5940 H         1 UNK         0.0600 
    154 H154       -1.7920  -19.5164  -43.7465 H         1 UNK         0.3000 
    155 H155       -4.9276  -19.2785  -44.4435 H         1 UNK         0.0600 
    156 H156       -5.6131  -17.0438  -43.5394 H         1 UNK         0.0600 
    157 H157       -5.9151  -18.3255  -42.3793 H         1 UNK         0.0600 
    158 H158       -4.5269  -17.2631  -42.1674 H         1 UNK         0.0600 
    159 H159       -2.7018  -17.3454  -43.9270 H         1 UNK         0.3000 
    160 H160       -1.6222  -17.5120  -47.2968 H         1 UNK         0.0600 
    161 H161       -2.8301  -15.1571  -45.7593 H         1 UNK         0.0600 
    162 H162       -3.4848  -15.7776  -47.2655 H         1 UNK         0.0600 
    163 H163       -1.8746  -15.0850  -47.2378 H         1 UNK         0.0600 
    164 H164       -0.5339  -15.9373  -45.3291 H         1 UNK         0.3000 
    165 H165        1.1739  -18.2431  -43.2336 H         1 UNK         0.0600 
    166 H166        2.2489  -16.4532  -45.4660 H         1 UNK         0.0600 
    167 H167        3.1651  -17.0215  -44.0718 H         1 UNK         0.0600 
    168 H168        2.5965  -18.1647  -45.2807 H         1 UNK         0.0600 
    169 H169        1.4346  -15.4818  -43.2494 H         1 UNK         0.3000 
    170 H170       -1.4630  -14.4255  -41.5242 H         1 UNK         0.0600 
    171 H171       -0.0793  -15.3595  -39.7192 H         1 UNK         0.0600 
    172 H172        1.3964  -14.8174  -40.4996 H         1 UNK         0.0600 
    173 H173        0.2382  -13.6393  -39.8829 H         1 UNK         0.0600 
    174 H174       -0.7582  -12.9298  -42.9497 H         1 UNK         0.3000 
    175 H175        0.3039  -11.6272  -44.2345 H         1 UNK         0.0600 
    176 H176        1.9854  -10.5537  -42.7149 H         1 UNK         0.0600 
    177 H177        3.2899  -11.3254  -43.6085 H         1 UNK         0.0600 
    178 H178        2.2612  -10.1291  -44.3969 H         1 UNK         0.0600 
    179 H179        2.5255  -12.1540  -45.8433 H         1 UNK         0.3000 
    180 H180        1.7584  -15.0556  -47.5138 H         1 UNK         0.0600 
    181 H181       -0.1886  -13.8797  -48.5224 H         1 UNK         0.0600 
    182 H182        1.2057  -13.8107  -49.5838 H         1 UNK         0.0600 
    183 H183        0.7459  -12.3927  -48.6430 H         1 UNK         0.0600 
    184 H184        3.1748  -12.7195  -48.3958 H         1 UNK         0.3000 
    185 H185        5.4855  -12.2445  -47.4100 H         1 UNK         0.0600 
    186 H186        6.6908  -13.7537  -45.8484 H         1 UNK         0.0600 
    187 H187        6.8442  -14.9748  -47.1068 H         1 UNK         0.0600 
    188 H188        7.6657  -13.4231  -47.2707 H         1 UNK         0.0600 
    189 H189        6.1764  -14.3266  -49.3608 H         1 UNK         0.3000 
    190 H190       -1.7063  -21.5733  -46.1554 H         1 UNK         0.3000 
    191 H191       -3.3956  -23.1035  -47.8564 H         1 UNK         0.0600 
    192 H192       -3.6629  -22.4261  -44.8778 H         1 UNK         0.0600 
    193 H193       -4.9496  -23.0531  -45.9034 H         1 UNK         0.0600 
    194 H194       -4.2763  -21.4630  -46.2222 H         1 UNK         0.0600 
    195 H195       -1.4290  -23.9718  -45.0083 H         1 UNK         0.3000 
    196 H196       -2.1959  -26.6961  -44.8053 H         1 UNK         0.0600 
    197 H197       -0.1011  -26.8891  -43.4480 H         1 UNK         0.0600 
    198 H198       -1.0287  -25.4659  -42.9972 H         1 UNK         0.0600 
    199 H199        0.4112  -25.2976  -43.9991 H         1 UNK         0.0600 
    200 H200        0.3942  -25.1182  -46.7268 H         1 UNK         0.3000 
    201 H201        1.5400  -27.5484  -47.7335 H         1 UNK         0.0600 
    202 H202        2.8152  -25.4376  -47.6664 H         1 UNK         0.0600 
    203 H203        1.6855  -24.6729  -48.7811 H         1 UNK         0.0600 
    204 H204        2.6975  -26.0058  -49.3245 H         1 UNK         0.0600 
    205 H205       -0.8978  -25.2602  -49.0485 H         1 UNK         0.3000 
    206 H206       -1.2765  -26.6676  -51.5286 H         1 UNK         0.0600 
    207 H207       -1.7739  -24.2562  -51.2638 H         1 UNK         0.0600 
    208 H208       -3.2244  -25.1155  -51.7600 H         1 UNK         0.0600 
    209 H209       -3.0364  -24.6183  -50.0833 H         1 UNK         0.0600 
    210 H210       -2.7860  -26.8987  -48.3562 H         1 UNK         0.3000 
    211 H211       -4.3113  -28.1373  -47.3832 H         1 UNK         0.0600 
    212 H212       -4.2180  -30.0967  -49.7380 H         1 UNK         0.0600 
    213 H213       -4.8819  -30.4019  -48.1403 H         1 UNK         0.0600 
    214 H214       -3.1542  -30.1517  -48.3325 H         1 UNK         0.0600 
    215 H215       -5.0063  -25.8784  -48.8465 H         1 UNK         0.3000 
    216 H216       -7.8113  -25.9749  -49.2150 H         1 UNK         0.0600 
    217 H217       -6.0858  -25.7986  -51.7702 H         1 UNK         0.0600 
    218 H218       -7.8212  -25.5127  -51.7049 H         1 UNK         0.0600 
    219 H219       -7.1932  -27.1146  -51.3952 H         1 UNK         0.0600 
    220 H220       -8.3164  -23.7326  -50.5101 H         1 UNK         0.3000 
    221 H221       -7.0043  -21.5548  -49.1028 H         1 UNK         0.0600 
    222 H222       -9.4252  -21.4791  -49.5709 H         1 UNK         0.0600 
    223 H223       -9.1362  -21.5972  -51.3061 H         1 UNK         0.0600 
    224 H224       -8.6166  -20.1695  -50.4179 H         1 UNK         0.0600 
    225 H225       -4.8520  -21.9292  -49.7846 H         1 UNK         0.3000 
    226 H226       -3.7107  -22.1119  -52.2499 H         1 UNK         0.0600 
    227 H227       -2.5283  -22.2906  -50.0690 H         1 UNK         0.0600 
    228 H228       -1.6720  -21.1888  -51.1363 H         1 UNK         0.0600 
    229 H229       -2.6631  -20.5559  -49.8214 H         1 UNK         0.0600 
    230 H230       -3.6868  -20.8809  -54.0263 H         1 UNK         0.3000 
    231 H231       -3.9136  -19.2489  -55.4949 H         1 UNK         0.0600 
    232 H232       -2.5132  -17.5332  -53.3788 H         1 UNK         0.0600 
    233 H233       -2.6329  -17.1448  -55.0895 H         1 UNK         0.0600 
    234 H234       -1.7250  -18.5544  -54.5737 H         1 UNK         0.0600 
    235 H235       -6.1196  -19.6068  -53.5041 H         1 UNK         0.3000 
    236 H236       -8.1172  -18.8966  -52.9983 H         1 UNK         0.0600 
    237 H237       -9.3404  -17.2925  -54.3845 H         1 UNK         0.0600 
    238 H238       -7.8532  -16.6641  -55.0762 H         1 UNK         0.0600 
    239 H239       -8.3674  -18.3140  -55.4284 H         1 UNK         0.0600 
    240 H240       -5.6996  -17.8500  -51.6024 H         1 UNK         0.3000 
    241 H241       -7.0865  -15.7818  -50.0188 H         1 UNK         0.0600 
    242 H242       -4.6811  -18.5247  -48.2205 H         1 UNK         0.3800 
    243 H243       -4.6725  -18.4632  -49.9800 H         1 UNK         0.3800 
    244 H244       -4.9343  -14.4684  -49.7978 H         1 UNK         0.0800 
    245 H245       -5.7247  -14.3817  -51.3381 H         1 UNK         0.0800 
    246 H246       -2.8011  -16.3754  -49.4747 H         1 UNK         0.0800 
    247 H247       -2.4060  -14.6813  -49.6900 H         1 UNK         0.0800 
@<TRIPOS>BOND
     1    1    2 1    
     2    1  127 1    
     3    1  128 1    
     4    1  129 1    
     5    2    3 2    
     6    2    4 am   BACKBONE|DICT|INTERRES
     7    4    5 1    
     8    4  130 1    
     9    5    6 1    
    10    5   65 1    
    11    5  131 1    
    12    6    7 1    
    13    6  132 1    
    14    6  133 1    
    15    7    8 1    
    16    8    9 1    
    17    8  134 1    
    18    8  135 1    
    19    9   10 ar   
    20    9   14 ar   
    21   10   11 ar   
    22   10  136 1    
    23   11   12 ar   
    24   11  126 1    
    25   12   13 ar   
    26   12  137 1    
    27   13   14 ar   
    28   13   15 1    
    29   14  138 1    
    30   15   16 1    
    31   15  139 1    
    32   15  140 1    
    33   16   17 1    
    34   17   18 1    
    35   17  141 1    
    36   17  142 1    
    37   18   19 1    
    38   18   67 1    
    39   18  143 1    
    40   19   20 am   BACKBONE|DICT|INTERRES
    41   19  144 1    
    42   20   21 2    
    43   20   22 1    
    44   22   23 1    
    45   22   24 1    
    46   22  145 1    
    47   23  146 1    
    48   23  147 1    
    49   23  148 1    
    50   24   25 am   BACKBONE|DICT|INTERRES
    51   24  149 1    
    52   25   26 2    
    53   25   27 1    
    54   27   28 1    
    55   27   29 1    
    56   27  150 1    
    57   28  151 1    
    58   28  152 1    
    59   28  153 1    
    60   29   30 am   BACKBONE|DICT|INTERRES
    61   29  154 1    
    62   30   31 2    
    63   30   32 1    
    64   32   33 1    
    65   32   34 1    
    66   32  155 1    
    67   33  156 1    
    68   33  157 1    
    69   33  158 1    
    70   34   35 am   BACKBONE|DICT|INTERRES
    71   34  159 1    
    72   35   36 2    
    73   35   37 1    
    74   37   38 1    
    75   37   39 1    
    76   37  160 1    
    77   38  161 1    
    78   38  162 1    
    79   38  163 1    
    80   39   40 am   BACKBONE|DICT|INTERRES
    81   39  164 1    
    82   40   41 2    
    83   40   42 1    
    84   42   43 1    
    85   42   44 1    
    86   42  165 1    
    87   43  166 1    
    88   43  167 1    
    89   43  168 1    
    90   44   45 am   BACKBONE|DICT|INTERRES
    91   44  169 1    
    92   45   46 2    
    93   45   47 1    
    94   47   48 1    
    95   47   49 1    
    96   47  170 1    
    97   48  171 1    
    98   48  172 1    
    99   48  173 1    
   100   49   50 am   BACKBONE|DICT|INTERRES
   101   49  174 1    
   102   50   51 2    
   103   50   52 1    
   104   52   53 1    
   105   52   54 1    
   106   52  175 1    
   107   53  176 1    
   108   53  177 1    
   109   53  178 1    
   110   54   55 am   BACKBONE|DICT|INTERRES
   111   54  179 1    
   112   55   56 2    
   113   55   57 1    
   114   57   58 1    
   115   57   59 1    
   116   57  180 1    
   117   58  181 1    
   118   58  182 1    
   119   58  183 1    
   120   59   60 am   BACKBONE|DICT|INTERRES
   121   59  184 1    
   122   60   61 2    
   123   60   62 1    
   124   62   63 1    
   125   62   64 1    
   126   62  185 1    
   127   63  186 1    
   128   63  187 1    
   129   63  188 1    
   130   64   65 am   BACKBONE|DICT|INTERRES
   131   64  189 1    
   132   65   66 2    
   133   67   68 2    
   134   67   69 am   BACKBONE|DICT|INTERRES
   135   69   70 1    
   136   69  190 1    
   137   70   71 1    
   138   70   72 1    
   139   70  191 1    
   140   71  192 1    
   141   71  193 1    
   142   71  194 1    
   143   72   73 2    
   144   72   74 am   BACKBONE|DICT|INTERRES
   145   74   75 1    
   146   74  195 1    
   147   75   76 1    
   148   75   77 1    
   149   75  196 1    
   150   76  197 1    
   151   76  198 1    
   152   76  199 1    
   153   77   78 2    
   154   77   79 am   BACKBONE|DICT|INTERRES
   155   79   80 1    
   156   79  200 1    
   157   80   81 1    
   158   80   82 1    
   159   80  201 1    
   160   81  202 1    
   161   81  203 1    
   162   81  204 1    
   163   82   83 2    
   164   82   84 am   BACKBONE|DICT|INTERRES
   165   84   85 1    
   166   84  205 1    
   167   85   86 1    
   168   85   87 1    
   169   85  206 1    
   170   86  207 1    
   171   86  208 1    
   172   86  209 1    
   173   87   88 2    
   174   87   89 am   BACKBONE|DICT|INTERRES
   175   89   90 1    
   176   89  210 1    
   177   90   91 1    
   178   90   92 1    
   179   90  211 1    
   180   91  212 1    
   181   91  213 1    
   182   91  214 1    
   183   92   93 2    
   184   92   94 am   BACKBONE|DICT|INTERRES
   185   94   95 1    
   186   94  215 1    
   187   95   96 1    
   188   95   97 1    
   189   95  216 1    
   190   96  217 1    
   191   96  218 1    
   192   96  219 1    
   193   97   98 2    
   194   97   99 am   BACKBONE|DICT|INTERRES
   195   99  100 1    
   196   99  220 1    
   197  100  101 1    
   198  100  102 1    
   199  100  221 1    
   200  101  222 1    
   201  101  223 1    
   202  101  224 1    
   203  102  103 2    
   204  102  104 am   BACKBONE|DICT|INTERRES
   205  104  105 1    
   206  104  225 1    
   207  105  106 1    
   208  105  107 1    
   209  105  226 1    
   210  106  227 1    
   211  106  228 1    
   212  106  229 1    
   213  107  108 2    
   214  107  109 am   BACKBONE|DICT|INTERRES
   215  109  110 1    
   216  109  230 1    
   217  110  111 1    
   218  110  112 1    
   219  110  231 1    
   220  111  232 1    
   221  111  233 1    
   222  111  234 1    
   223  112  113 2    
   224  112  114 am   BACKBONE|DICT|INTERRES
   225  114  115 1    
   226  114  235 1    
   227  115  116 1    
   228  115  117 1    
   229  115  236 1    
   230  116  237 1    
   231  116  238 1    
   232  116  239 1    
   233  117  118 2    
   234  117  119 am   BACKBONE|DICT|INTERRES
   235  119  120 1    
   236  119  240 1    
   237  120  121 1    
   238  120  124 1    
   239  120  241 1    
   240  121  122 am   BACKBONE|DICT|INTERRES
   241  121  123 2    
   242  122  242 1    
   243  122  243 1    
   244  124  125 1    
   245  124  244 1    
   246  124  245 1    
   247  125  126 1    
   248  126  246 1    
   249  126  247 1    
@<TRIPOS>SUBSTRUCTURE
     1 UNK         1 GROUP             0       ****    0 ROOT    
