@<TRIPOS>MOLECULE
3R540
247   249    1
SMALL
USER_CHARGES


@<TRIPOS>ATOM
      1 CA          3.4796  -17.4853  -46.9338 C.3       0 UNK        -0.1800 
      2 C           3.1360  -16.5341  -45.7972 C.2       0 UNK         0.5000 
      3 O           3.8018  -16.5485  -44.7620 O.2       0 UNK        -0.5000 
      4 N           2.1096  -15.6960  -45.9911 N.am      1 UNK        -0.5000 
      5 CA          1.5618  -14.7617  -44.9978 C.3       1 UNK         0.1400 
      6 C6          0.3188  -13.9931  -45.5194 C.3       23 UNK        -0.0398 
      7 S7         -0.8984  -15.0681  -46.3573 S.3       23 UNK        -0.2404 
      8 C8         -0.6808  -14.5318  -48.0852 C.3       23 UNK        -0.0205 
      9 C9         -1.0509  -15.6226  -49.0781 C.ar      23 UNK        -0.0193 
     10 C10        -2.3900  -15.8634  -49.3961 C.ar      23 UNK        -0.1150 
     11 C11        -2.7332  -16.8348  -50.3420 C.ar      23 UNK        -0.0193 
     12 C12        -1.7220  -17.5645  -50.9758 C.ar      23 UNK        -0.1150 
     13 C13        -0.3772  -17.3276  -50.6715 C.ar      23 UNK        -0.0193 
     14 C14        -0.0502  -16.3647  -49.7126 C.ar      23 UNK        -0.1150 
     15 C15         0.7297  -18.0681  -51.4102 C.3       23 UNK        -0.0205 
     16 S16         1.3290  -19.5256  -50.4973 S.3       23 UNK        -0.2404 
     17 C17        -0.0279  -20.7148  -50.7752 C.3       23 UNK        -0.0398 
     18 CA         -0.7658  -21.1073  -49.4744 C.3       11 UNK         0.1400 
     19 N          -1.2173  -19.9368  -48.7113 N.am      11 UNK        -0.5000 
     20 C          -1.7587  -19.9695  -47.4882 C.2       10 UNK         0.5000 
     21 O          -2.0402  -21.0092  -46.8880 O.2       10 UNK        -0.5000 
     22 CA         -2.0889  -18.6078  -46.8599 C.3       10 UNK         0.1400 
     23 CB         -3.5879  -18.3015  -46.9948 C.3       10 UNK        -0.1800 
     24 N          -1.7185  -18.5417  -45.4508 N.am      10 UNK        -0.5000 
     25 C          -0.4780  -18.6463  -44.9624 C.2       9 UNK         0.5000 
     26 O           0.5216  -18.8043  -45.6651 O.2       9 UNK        -0.5000 
     27 CA         -0.3436  -18.5111  -43.4302 C.3       9 UNK         0.1400 
     28 CB          1.0789  -18.8226  -42.9368 C.3       9 UNK        -0.1800 
     29 N          -0.7149  -17.1744  -42.9616 N.am      9 UNK        -0.5000 
     30 C          -1.9544  -16.6734  -42.9037 C.2       8 UNK         0.5000 
     31 O          -2.9661  -17.3218  -43.1800 O.2       8 UNK        -0.5000 
     32 CA         -2.0712  -15.2152  -42.4227 C.3       8 UNK         0.1400 
     33 CB         -3.4428  -14.5954  -42.7424 C.3       8 UNK        -0.1800 
     34 N          -1.8318  -15.1291  -40.9841 N.am      8 UNK        -0.5000 
     35 C          -0.6254  -15.1294  -40.4072 C.2       7 UNK         0.5000 
     36 O           0.4368  -15.1635  -41.0349 O.2       7 UNK        -0.5000 
     37 CA         -0.6099  -15.1275  -38.8747 C.3       7 UNK         0.1400 
     38 CB         -0.7330  -16.5589  -38.3247 C.3       7 UNK        -0.1800 
     39 N           0.6377  -14.5324  -38.4145 N.am      7 UNK        -0.5000 
     40 C           0.8006  -13.8545  -37.2730 C.2       6 UNK         0.5000 
     41 O          -0.1015  -13.6769  -36.4529 O.2       6 UNK        -0.5000 
     42 CA          2.2019  -13.2815  -36.9834 C.3       6 UNK         0.1400 
     43 CB          2.9165  -14.1276  -35.9181 C.3       6 UNK        -0.1800 
     44 N           3.0581  -13.2061  -38.1673 N.am      6 UNK        -0.5000 
     45 C           2.9616  -12.3024  -39.1478 C.2       5 UNK         0.5000 
     46 O           2.1200  -11.4036  -39.1608 O.2       5 UNK        -0.5000 
     47 CA          3.9643  -12.4196  -40.3133 C.3       5 UNK         0.1400 
     48 CB          5.3100  -11.7600  -39.9594 C.3       5 UNK        -0.1800 
     49 N           4.1617  -13.7797  -40.8325 N.am      5 UNK        -0.5000 
     50 C           4.7022  -14.8547  -40.2389 C.2       4 UNK         0.5000 
     51 O           5.0958  -14.8784  -39.0721 O.2       4 UNK        -0.5000 
     52 CA          4.8351  -16.1185  -41.1054 C.3       4 UNK         0.1400 
     53 CB          3.4803  -16.8209  -41.2642 C.3       4 UNK        -0.1800 
     54 N           5.3896  -15.8252  -42.4258 N.am      4 UNK        -0.5000 
     55 C           6.6551  -15.4433  -42.6500 C.2       3 UNK         0.5000 
     56 O           7.5194  -15.3773  -41.7750 O.2       3 UNK        -0.5000 
     57 CA          7.0061  -15.0434  -44.0926 C.3       3 UNK         0.1400 
     58 CB          7.2862  -16.2808  -44.9600 C.3       3 UNK        -0.1800 
     59 N           5.9403  -14.2452  -44.6976 N.am      3 UNK        -0.5000 
     60 C           5.7310  -12.9472  -44.4354 C.2       2 UNK         0.5000 
     61 O           6.4559  -12.2722  -43.7042 O.2       2 UNK        -0.5000 
     62 CA          4.5098  -12.2847  -45.1003 C.3       2 UNK         0.1400 
     63 CB          4.9241  -11.5757  -46.3987 C.3       2 UNK        -0.1800 
     64 N           3.4316  -13.2288  -45.3973 N.am      2 UNK        -0.5000 
     65 C           2.6163  -13.7639  -44.4778 C.2       1 UNK         0.5000 
     66 O           2.6927  -13.5248  -43.2738 O.2       1 UNK        -0.5000 
     67 C          -1.9057  -22.0973  -49.7898 C.2       11 UNK         0.5000 
     68 O          -1.6491  -23.2915  -49.9323 O.2       11 UNK        -0.5000 
     69 N          -3.1482  -21.5968  -49.8395 N.am      12 UNK        -0.5000 
     70 CA         -4.3767  -22.3759  -49.9966 C.3       12 UNK         0.1400 
     71 CB         -5.5606  -21.4016  -50.0953 C.3       12 UNK        -0.1800 
     72 C          -4.6183  -23.4075  -48.8743 C.2       12 UNK         0.5000 
     73 O          -5.2978  -24.4056  -49.1105 O.2       12 UNK        -0.5000 
     74 N          -4.0515  -23.1704  -47.6824 N.am      13 UNK        -0.5000 
     75 CA         -4.0759  -24.1198  -46.5694 C.3       13 UNK         0.1400 
     76 CB         -3.8976  -23.3501  -45.2512 C.3       13 UNK        -0.1800 
     77 C          -2.9987  -25.2154  -46.7030 C.2       13 UNK         0.5000 
     78 O          -3.1192  -26.2539  -46.0516 O.2       13 UNK        -0.5000 
     79 N          -1.9632  -24.9666  -47.5166 N.am      14 UNK        -0.5000 
     80 CA         -0.8172  -25.8531  -47.7024 C.3       14 UNK         0.1400 
     81 CB          0.4647  -25.0078  -47.7812 C.3       14 UNK        -0.1800 
     82 C          -0.9552  -26.7349  -48.9541 C.2       14 UNK         0.5000 
     83 O          -0.5478  -27.8968  -48.9068 O.2       14 UNK        -0.5000 
     84 N          -1.5036  -26.1850  -50.0464 N.am      15 UNK        -0.5000 
     85 CA         -1.6048  -26.8554  -51.3397 C.3       15 UNK         0.1400 
     86 CB         -0.4749  -26.3551  -52.2554 C.3       15 UNK        -0.1800 
     87 C          -2.9686  -26.5937  -51.9888 C.2       15 UNK         0.5000 
     88 O          -3.4081  -25.4438  -52.0632 O.2       15 UNK        -0.5000 
     89 N          -3.5760  -27.6595  -52.5273 N.am      16 UNK        -0.5000 
     90 CA         -4.8196  -27.6106  -53.3014 C.3       16 UNK         0.1400 
     91 CB         -5.3322  -29.0399  -53.5308 C.3       16 UNK        -0.1800 
     92 C          -4.6602  -26.8724  -54.6449 C.2       16 UNK         0.5000 
     93 O          -5.6065  -26.2361  -55.1076 O.2       16 UNK        -0.5000 
     94 N          -3.4522  -26.9327  -55.2243 N.am      17 UNK        -0.5000 
     95 CA         -3.0707  -26.2062  -56.4369 C.3       17 UNK         0.1400 
     96 CB         -1.6940  -26.6981  -56.9080 C.3       17 UNK        -0.1800 
     97 C          -3.0607  -24.6788  -56.2376 C.2       17 UNK         0.5000 
     98 O          -3.3926  -23.9443  -57.1678 O.2       17 UNK        -0.5000 
     99 N          -2.7115  -24.2316  -55.0227 N.am      18 UNK        -0.5000 
    100 CA        -2.8031  -22.8328  -54.6130 C.3       18 UNK         0.1400 
    101 CB        -1.8675  -22.5730  -53.4268 C.3       18 UNK        -0.1800 
    102 C         -4.2489  -22.4485  -54.2645 C.2       18 UNK         0.5000 
    103 O         -4.6866  -21.3606  -54.6365 O.2       18 UNK        -0.5000 
    104 N         -4.9822  -23.3549  -53.5994 N.am      19 UNK        -0.5000 
    105 CA        -6.3918  -23.1832  -53.2280 C.3       19 UNK         0.1400 
    106 CB        -6.8568  -24.3735  -52.3786 C.3       19 UNK        -0.1800 
    107 C         -7.3306  -22.9896  -54.4323 C.2       19 UNK         0.5000 
    108 O         -8.3155  -22.2605  -54.3206 O.2       19 UNK        -0.5000 
    109 N         -6.9818  -23.5933  -55.5752 N.am      20 UNK        -0.5000 
    110 CA        -7.6647  -23.4219  -56.8581 C.3       20 UNK         0.1400 
    111 CB        -7.0476  -24.3896  -57.8792 C.3       20 UNK        -0.1800 
    112 C         -7.6386  -21.9749  -57.3992 C.2       20 UNK         0.5000 
    113 O         -8.5134  -21.6210  -58.1911 O.2       20 UNK        -0.5000 
    114 N         -6.6547  -21.1717  -56.9697 N.am      21 UNK        -0.5000 
    115 CA        -6.4959  -19.7683  -57.3473 C.3       21 UNK         0.1400 
    116 CB        -5.0571  -19.5464  -57.8419 C.3       21 UNK        -0.1800 
    117 C         -6.8111  -18.8208  -56.1764 C.2       21 UNK         0.5000 
    118 O         -7.4997  -17.8202  -56.3806 O.2       21 UNK        -0.5000 
    119 N         -6.2863  -19.1355  -54.9859 N.am      22 UNK        -0.5000 
    120 CA        -6.2965  -18.2762  -53.7907 C.3       22 UNK         0.1400 
    121 C         -7.3010  -18.7220  -52.6854 C.2       22 UNK         0.5000 
    122 N         -8.0743  -19.7843  -52.8611 N.am      22 UNK        -0.7600 
    123 O         -7.4075  -18.0791  -51.6456 O.2       22 UNK        -0.5000 
    124 C124       -4.8483  -18.1073  -53.2510 C.3       23 UNK        -0.0398 
    125 S125       -4.5881  -16.5239  -52.3750 S.3       23 UNK        -0.2404 
    126 C126       -4.1955  -17.0811  -50.6853 C.3       23 UNK        -0.0205 
    127 H127        2.8038  -17.3663  -47.7811 H         1 UNK         0.0600 
    128 H128        3.4080  -18.5165  -46.5880 H         1 UNK         0.0600 
    129 H129        4.4983  -17.3080  -47.2783 H         1 UNK         0.0600 
    130 H130        1.5788  -15.7670  -46.8465 H         1 UNK         0.3000 
    131 H131        1.2476  -15.3671  -44.1455 H         1 UNK         0.0600 
    132 H132       -0.1856  -13.4954  -44.6902 H         1 UNK         0.0800 
    133 H133        0.6126  -13.1916  -46.1995 H         1 UNK         0.0800 
    134 H134       -1.2928  -13.6464  -48.2635 H         1 UNK         0.0800 
    135 H135        0.3521  -14.2246  -48.2555 H         1 UNK         0.0800 
    136 H136       -3.1637  -15.2865  -48.9090 H         1 UNK         0.1150 
    137 H137       -1.9860  -18.2958  -51.7265 H         1 UNK         0.1150 
    138 H138        0.9889  -16.1749  -49.4827 H         1 UNK         0.1150 
    139 H139        0.3961  -18.3647  -52.4059 H         1 UNK         0.0800 
    140 H140        1.5708  -17.3916  -51.5697 H         1 UNK         0.0800 
    141 H141        0.4030  -21.6019  -51.2436 H         1 UNK         0.0800 
    142 H142       -0.7258  -20.3024  -51.5034 H         1 UNK         0.0800 
    143 H143       -0.0566  -21.6410  -48.8380 H         1 UNK         0.0600 
    144 H144       -1.0063  -19.0398  -49.1279 H         1 UNK         0.3000 
    145 H145       -1.5239  -17.8373  -47.3846 H         1 UNK         0.0600 
    146 H146       -3.8150  -17.2946  -46.6435 H         1 UNK         0.0600 
    147 H147       -3.9115  -18.3638  -48.0334 H         1 UNK         0.0600 
    148 H148       -4.1943  -19.0035  -46.4210 H         1 UNK         0.0600 
    149 H149       -2.4658  -18.3572  -44.7899 H         1 UNK         0.3000 
    150 H150       -1.0202  -19.2383  -42.9766 H         1 UNK         0.0600 
    151 H151        1.8075  -18.1303  -43.3598 H         1 UNK         0.0600 
    152 H152        1.3804  -19.8309  -43.2230 H         1 UNK         0.0600 
    153 H153        1.1435  -18.7597  -41.8504 H         1 UNK         0.0600 
    154 H154        0.0427  -16.5837  -42.6419 H         1 UNK         0.3000 
    155 H155       -1.3150  -14.6295  -42.9476 H         1 UNK         0.0600 
    156 H156       -4.2528  -15.1121  -42.2262 H         1 UNK         0.0600 
    157 H157       -3.6503  -14.6429  -43.8124 H         1 UNK         0.0600 
    158 H158       -3.4768  -13.5451  -42.4524 H         1 UNK         0.0600 
    159 H159       -2.6536  -15.1396  -40.3972 H         1 UNK         0.3000 
    160 H160       -1.4530  -14.5274  -38.5253 H         1 UNK         0.0600 
    161 H161        0.0960  -17.1869  -38.6542 H         1 UNK         0.0600 
    162 H162       -1.6571  -17.0311  -38.6601 H         1 UNK         0.0600 
    163 H163       -0.7437  -16.5639  -37.2346 H         1 UNK         0.0600 
    164 H164        1.4030  -14.5904  -39.0738 H         1 UNK         0.3000 
    165 H165        2.0688  -12.2726  -36.5877 H         1 UNK         0.0600 
    166 H166        2.3259  -14.1876  -35.0030 H         1 UNK         0.0600 
    167 H167        3.0899  -15.1470  -36.2657 H         1 UNK         0.0600 
    168 H168        3.8814  -13.6950  -35.6532 H         1 UNK         0.0600 
    169 H169        3.7935  -13.9045  -38.2530 H         1 UNK         0.3000 
    170 H170        3.5375  -11.8556  -41.1442 H         1 UNK         0.0600 
    171 H171        5.1685  -10.7173  -39.6729 H         1 UNK         0.0600 
    172 H172        5.8052  -12.2619  -39.1279 H         1 UNK         0.0600 
    173 H173        5.9895  -11.7740  -40.8119 H         1 UNK         0.0600 
    174 H174        3.7981  -13.9020  -41.7746 H         1 UNK         0.3000 
    175 H175        5.5131  -16.8039  -40.5925 H         1 UNK         0.0600 
    176 H176        3.6042  -17.7900  -41.7469 H         1 UNK         0.0600 
    177 H177        3.0070  -16.9958  -40.2971 H         1 UNK         0.0600 
    178 H178        2.7899  -16.2313  -41.8685 H         1 UNK         0.0600 
    179 H179        4.7595  -15.9137  -43.2185 H         1 UNK         0.3000 
    180 H180        7.9186  -14.4438  -44.0627 H         1 UNK         0.0600 
    181 H181        6.4203  -16.9398  -45.0246 H         1 UNK         0.0600 
    182 H182        8.1097  -16.8647  -44.5471 H         1 UNK         0.0600 
    183 H183        7.5667  -15.9958  -45.9741 H         1 UNK         0.0600 
    184 H184        5.2684  -14.7414  -45.2651 H         1 UNK         0.3000 
    185 H185        4.1274  -11.5311  -44.4082 H         1 UNK         0.0600 
    186 H186        4.0835  -11.0419  -46.8423 H         1 UNK         0.0600 
    187 H187        5.7096  -10.8427  -46.2099 H         1 UNK         0.0600 
    188 H188        5.3041  -12.2806  -47.1392 H         1 UNK         0.0600 
    189 H189        3.3156  -13.4979  -46.3635 H         1 UNK         0.3000 
    190 H190       -3.2623  -20.6064  -49.6884 H         1 UNK         0.3000 
    191 H191       -4.2979  -22.9308  -50.9324 H         1 UNK         0.0600 
    192 H192       -5.4574  -20.7394  -50.9548 H         1 UNK         0.0600 
    193 H193       -6.5032  -21.9386  -50.2094 H         1 UNK         0.0600 
    194 H194       -5.6460  -20.7811  -49.2024 H         1 UNK         0.0600 
    195 H195       -3.4911  -22.3352  -47.5480 H         1 UNK         0.3000 
    196 H196       -5.0499  -24.6131  -46.5400 H         1 UNK         0.0600 
    197 H197       -3.9936  -24.0181  -44.3944 H         1 UNK         0.0600 
    198 H198       -4.6522  -22.5709  -45.1422 H         1 UNK         0.0600 
    199 H199       -2.9163  -22.8787  -45.1884 H         1 UNK         0.0600 
    200 H200       -1.9697  -24.1224  -48.0749 H         1 UNK         0.3000 
    201 H201       -0.7197  -26.5155  -46.8394 H         1 UNK         0.0600 
    202 H202        1.3455  -25.6451  -47.8685 H         1 UNK         0.0600 
    203 H203        0.4600  -24.3390  -48.6422 H         1 UNK         0.0600 
    204 H204        0.5912  -24.3995  -46.8854 H         1 UNK         0.0600 
    205 H205       -1.8058  -25.2141  -50.0267 H         1 UNK         0.3000 
    206 H206       -1.4938  -27.9346  -51.2158 H         1 UNK         0.0600 
    207 H207        0.5031  -26.5956  -51.8384 H         1 UNK         0.0600 
    208 H208       -0.5302  -26.8182  -53.2413 H         1 UNK         0.0600 
    209 H209       -0.5199  -25.2740  -52.3943 H         1 UNK         0.0600 
    210 H210       -3.1483  -28.5691  -52.4273 H         1 UNK         0.3000 
    211 H211       -5.5620  -27.0747  -52.7086 H         1 UNK         0.0600 
    212 H212       -4.6203  -29.6378  -54.1012 H         1 UNK         0.0600 
    213 H213       -6.2724  -29.0325  -54.0839 H         1 UNK         0.0600 
    214 H214       -5.5176  -29.5490  -52.5848 H         1 UNK         0.0600 
    215 H215       -2.7369  -27.4927  -54.7852 H         1 UNK         0.3000 
    216 H216       -3.8033  -26.4349  -57.2140 H         1 UNK         0.0600 
    217 H217       -1.3904  -26.1889  -57.8237 H         1 UNK         0.0600 
    218 H218       -1.7089  -27.7669  -57.1220 H         1 UNK         0.0600 
    219 H219       -0.9220  -26.5154  -56.1593 H         1 UNK         0.0600 
    220 H220       -2.4823  -24.9017  -54.3037 H         1 UNK         0.3000 
    221 H221       -2.4790  -22.1968  -55.4398 H         1 UNK         0.0600 
    222 H222       -2.1141  -23.2047  -52.5749 H         1 UNK         0.0600 
    223 H223       -0.8276  -22.7611  -53.6936 H         1 UNK         0.0600 
    224 H224       -1.9408  -21.5354  -53.1014 H         1 UNK         0.0600 
    225 H225       -4.5312  -24.2075  -53.2865 H         1 UNK         0.3000 
    226 H226       -6.4555  -22.2805  -52.6204 H         1 UNK         0.0600 
    227 H227       -7.8114  -24.1547  -51.8988 H         1 UNK         0.0600 
    228 H228       -6.9979  -25.2681  -52.9839 H         1 UNK         0.0600 
    229 H229       -6.1424  -24.6105  -51.5919 H         1 UNK         0.0600 
    230 H230       -6.2025  -24.2411  -55.5549 H         1 UNK         0.3000 
    231 H231       -8.7113  -23.6975  -56.7143 H         1 UNK         0.0600 
    232 H232       -5.9956  -24.1656  -58.0582 H         1 UNK         0.0600 
    233 H233       -7.5642  -24.3293  -58.8379 H         1 UNK         0.0600 
    234 H234       -7.1167  -25.4225  -57.5369 H         1 UNK         0.0600 
    235 H235       -5.9899  -21.5357  -56.2984 H         1 UNK         0.3000 
    236 H236       -7.1706  -19.5124  -58.1668 H         1 UNK         0.0600 
    237 H237       -4.8454  -20.1590  -58.7184 H         1 UNK         0.0600 
    238 H238       -4.8969  -18.5056  -58.1260 H         1 UNK         0.0600 
    239 H239       -4.3217  -19.7960  -57.0758 H         1 UNK         0.0600 
    240 H240       -5.7294  -19.9842  -54.9000 H         1 UNK         0.3000 
    241 H241       -6.6435  -17.2867  -54.0932 H         1 UNK         0.0600 
    242 H242       -8.0356  -20.3528  -53.6979 H         1 UNK         0.3800 
    243 H243       -8.7271  -20.0304  -52.1350 H         1 UNK         0.3800 
    244 H244       -4.1434  -18.1017  -54.0840 H         1 UNK         0.0800 
    245 H245       -4.5558  -18.9608  -52.6382 H         1 UNK         0.0800 
    246 H246       -4.4338  -18.1364  -50.5512 H         1 UNK         0.0800 
    247 H247       -4.8443  -16.5432  -49.9924 H         1 UNK         0.0800 
@<TRIPOS>BOND
     1    1    2 1    
     2    1  127 1    
     3    1  128 1    
     4    1  129 1    
     5    2    3 2    
     6    2    4 am   BACKBONE|DICT|INTERRES
     7    4    5 1    
     8    4  130 1    
     9    5    6 1    
    10    5   65 1    
    11    5  131 1    
    12    6    7 1    
    13    6  132 1    
    14    6  133 1    
    15    7    8 1    
    16    8    9 1    
    17    8  134 1    
    18    8  135 1    
    19    9   10 ar   
    20    9   14 ar   
    21   10   11 ar   
    22   10  136 1    
    23   11   12 ar   
    24   11  126 1    
    25   12   13 ar   
    26   12  137 1    
    27   13   14 ar   
    28   13   15 1    
    29   14  138 1    
    30   15   16 1    
    31   15  139 1    
    32   15  140 1    
    33   16   17 1    
    34   17   18 1    
    35   17  141 1    
    36   17  142 1    
    37   18   19 1    
    38   18   67 1    
    39   18  143 1    
    40   19   20 am   BACKBONE|DICT|INTERRES
    41   19  144 1    
    42   20   21 2    
    43   20   22 1    
    44   22   23 1    
    45   22   24 1    
    46   22  145 1    
    47   23  146 1    
    48   23  147 1    
    49   23  148 1    
    50   24   25 am   BACKBONE|DICT|INTERRES
    51   24  149 1    
    52   25   26 2    
    53   25   27 1    
    54   27   28 1    
    55   27   29 1    
    56   27  150 1    
    57   28  151 1    
    58   28  152 1    
    59   28  153 1    
    60   29   30 am   BACKBONE|DICT|INTERRES
    61   29  154 1    
    62   30   31 2    
    63   30   32 1    
    64   32   33 1    
    65   32   34 1    
    66   32  155 1    
    67   33  156 1    
    68   33  157 1    
    69   33  158 1    
    70   34   35 am   BACKBONE|DICT|INTERRES
    71   34  159 1    
    72   35   36 2    
    73   35   37 1    
    74   37   38 1    
    75   37   39 1    
    76   37  160 1    
    77   38  161 1    
    78   38  162 1    
    79   38  163 1    
    80   39   40 am   BACKBONE|DICT|INTERRES
    81   39  164 1    
    82   40   41 2    
    83   40   42 1    
    84   42   43 1    
    85   42   44 1    
    86   42  165 1    
    87   43  166 1    
    88   43  167 1    
    89   43  168 1    
    90   44   45 am   BACKBONE|DICT|INTERRES
    91   44  169 1    
    92   45   46 2    
    93   45   47 1    
    94   47   48 1    
    95   47   49 1    
    96   47  170 1    
    97   48  171 1    
    98   48  172 1    
    99   48  173 1    
   100   49   50 am   BACKBONE|DICT|INTERRES
   101   49  174 1    
   102   50   51 2    
   103   50   52 1    
   104   52   53 1    
   105   52   54 1    
   106   52  175 1    
   107   53  176 1    
   108   53  177 1    
   109   53  178 1    
   110   54   55 am   BACKBONE|DICT|INTERRES
   111   54  179 1    
   112   55   56 2    
   113   55   57 1    
   114   57   58 1    
   115   57   59 1    
   116   57  180 1    
   117   58  181 1    
   118   58  182 1    
   119   58  183 1    
   120   59   60 am   BACKBONE|DICT|INTERRES
   121   59  184 1    
   122   60   61 2    
   123   60   62 1    
   124   62   63 1    
   125   62   64 1    
   126   62  185 1    
   127   63  186 1    
   128   63  187 1    
   129   63  188 1    
   130   64   65 am   BACKBONE|DICT|INTERRES
   131   64  189 1    
   132   65   66 2    
   133   67   68 2    
   134   67   69 am   BACKBONE|DICT|INTERRES
   135   69   70 1    
   136   69  190 1    
   137   70   71 1    
   138   70   72 1    
   139   70  191 1    
   140   71  192 1    
   141   71  193 1    
   142   71  194 1    
   143   72   73 2    
   144   72   74 am   BACKBONE|DICT|INTERRES
   145   74   75 1    
   146   74  195 1    
   147   75   76 1    
   148   75   77 1    
   149   75  196 1    
   150   76  197 1    
   151   76  198 1    
   152   76  199 1    
   153   77   78 2    
   154   77   79 am   BACKBONE|DICT|INTERRES
   155   79   80 1    
   156   79  200 1    
   157   80   81 1    
   158   80   82 1    
   159   80  201 1    
   160   81  202 1    
   161   81  203 1    
   162   81  204 1    
   163   82   83 2    
   164   82   84 am   BACKBONE|DICT|INTERRES
   165   84   85 1    
   166   84  205 1    
   167   85   86 1    
   168   85   87 1    
   169   85  206 1    
   170   86  207 1    
   171   86  208 1    
   172   86  209 1    
   173   87   88 2    
   174   87   89 am   BACKBONE|DICT|INTERRES
   175   89   90 1    
   176   89  210 1    
   177   90   91 1    
   178   90   92 1    
   179   90  211 1    
   180   91  212 1    
   181   91  213 1    
   182   91  214 1    
   183   92   93 2    
   184   92   94 am   BACKBONE|DICT|INTERRES
   185   94   95 1    
   186   94  215 1    
   187   95   96 1    
   188   95   97 1    
   189   95  216 1    
   190   96  217 1    
   191   96  218 1    
   192   96  219 1    
   193   97   98 2    
   194   97   99 am   BACKBONE|DICT|INTERRES
   195   99  100 1    
   196   99  220 1    
   197  100  101 1    
   198  100  102 1    
   199  100  221 1    
   200  101  222 1    
   201  101  223 1    
   202  101  224 1    
   203  102  103 2    
   204  102  104 am   BACKBONE|DICT|INTERRES
   205  104  105 1    
   206  104  225 1    
   207  105  106 1    
   208  105  107 1    
   209  105  226 1    
   210  106  227 1    
   211  106  228 1    
   212  106  229 1    
   213  107  108 2    
   214  107  109 am   BACKBONE|DICT|INTERRES
   215  109  110 1    
   216  109  230 1    
   217  110  111 1    
   218  110  112 1    
   219  110  231 1    
   220  111  232 1    
   221  111  233 1    
   222  111  234 1    
   223  112  113 2    
   224  112  114 am   BACKBONE|DICT|INTERRES
   225  114  115 1    
   226  114  235 1    
   227  115  116 1    
   228  115  117 1    
   229  115  236 1    
   230  116  237 1    
   231  116  238 1    
   232  116  239 1    
   233  117  118 2    
   234  117  119 am   BACKBONE|DICT|INTERRES
   235  119  120 1    
   236  119  240 1    
   237  120  121 1    
   238  120  124 1    
   239  120  241 1    
   240  121  122 am   BACKBONE|DICT|INTERRES
   241  121  123 2    
   242  122  242 1    
   243  122  243 1    
   244  124  125 1    
   245  124  244 1    
   246  124  245 1    
   247  125  126 1    
   248  126  246 1    
   249  126  247 1    
@<TRIPOS>SUBSTRUCTURE
     1 UNK         1 GROUP             0       ****    0 ROOT    
