@<TRIPOS>MOLECULE
3R540
247   249    1
SMALL
USER_CHARGES


@<TRIPOS>ATOM
      1 CA         -5.9262  -16.1145  -44.4627 C.3       0 UNK        -0.1800 
      2 C          -5.5666  -14.7741  -45.0883 C.2       0 UNK         0.5000 
      3 O          -6.1240  -13.7461  -44.7049 O.2       0 UNK        -0.5000 
      4 N          -4.6280  -14.7824  -46.0428 N.am      1 UNK        -0.5000 
      5 CA         -4.1487  -13.5989  -46.7718 C.3       1 UNK         0.1400 
      6 C6         -3.4789  -13.9923  -48.1132 C.3       23 UNK        -0.0398 
      7 S7         -4.6514  -14.7348  -49.3017 S.3       23 UNK        -0.2404 
      8 C8         -4.1845  -16.4966  -49.2927 C.3       23 UNK        -0.0205 
      9 C9         -2.7493  -16.7316  -49.7451 C.ar      23 UNK        -0.0193 
     10 C10        -2.3455  -16.4070  -51.0450 C.ar      23 UNK        -0.1150 
     11 C11        -1.0251  -16.6239  -51.4524 C.ar      23 UNK        -0.0193 
     12 C12        -0.1069  -17.1617  -50.5456 C.ar      23 UNK        -0.1150 
     13 C13        -0.5014  -17.5016  -49.2503 C.ar      23 UNK        -0.0193 
     14 C14        -1.8233  -17.2846  -48.8569 C.ar      23 UNK        -0.1150 
     15 C15         0.5071  -18.0825  -48.2738 C.3       23 UNK        -0.0205 
     16 S16         0.6799  -19.8846  -48.4453 S.3       23 UNK        -0.2404 
     17 C17        -0.8914  -20.4885  -47.7413 C.3       23 UNK        -0.0398 
     18 CA         -0.7039  -21.8293  -46.9942 C.3       11 UNK         0.1400 
     19 N           0.1451  -21.7107  -45.8033 N.am      11 UNK        -0.5000 
     20 C           0.7066  -22.7523  -45.1722 C.2       10 UNK         0.5000 
     21 O           0.6125  -23.9152  -45.5635 O.2       10 UNK        -0.5000 
     22 CA          1.4456  -22.4550  -43.8536 C.3       10 UNK         0.1400 
     23 CB          2.9089  -22.0745  -44.1077 C.3       10 UNK        -0.1800 
     24 N           0.7868  -21.4030  -43.0777 N.am      10 UNK        -0.5000 
     25 C          -0.3884  -21.5811  -42.4559 C.2       9 UNK         0.5000 
     26 O          -0.9949  -22.6512  -42.4488 O.2       9 UNK        -0.5000 
     27 CA         -1.0225  -20.3626  -41.7643 C.3       9 UNK         0.1400 
     28 CB         -0.6193  -20.3219  -40.2844 C.3       9 UNK        -0.1800 
     29 N          -0.7021  -19.0924  -42.4207 N.am      9 UNK        -0.5000 
     30 C          -1.1129  -18.7698  -43.6573 C.2       8 UNK         0.5000 
     31 O          -1.7639  -19.5419  -44.3639 O.2       8 UNK        -0.5000 
     32 CA         -0.7022  -17.4039  -44.2461 C.3       8 UNK         0.1400 
     33 CB         -1.8819  -16.6898  -44.9388 C.3       8 UNK        -0.1800 
     34 N           0.0067  -16.5152  -43.3228 N.am      8 UNK        -0.5000 
     35 C          -0.4565  -15.8890  -42.2323 C.2       7 UNK         0.5000 
     36 O          -1.6376  -15.8847  -41.8853 O.2       7 UNK        -0.5000 
     37 CA          0.6153  -15.1718  -41.3809 C.3       7 UNK         0.1400 
     38 CB          0.1380  -14.8546  -39.9481 C.3       7 UNK        -0.1800 
     39 N           1.8933  -15.9043  -41.3704 N.am      7 UNK        -0.5000 
     40 C           2.0873  -17.1472  -40.9024 C.2       6 UNK         0.5000 
     41 O           1.2013  -17.8079  -40.3635 O.2       6 UNK        -0.5000 
     42 CA          3.4838  -17.7654  -41.1190 C.3       6 UNK         0.1400 
     43 CB          3.5615  -19.2417  -40.6727 C.3       6 UNK        -0.1800 
     44 N           3.9615  -17.6262  -42.4984 N.am      6 UNK        -0.5000 
     45 C           3.4043  -18.1085  -43.6179 C.2       5 UNK         0.5000 
     46 O           2.3374  -18.7283  -43.6421 O.2       5 UNK        -0.5000 
     47 CA          4.1719  -17.8187  -44.9299 C.3       5 UNK         0.1400 
     48 CB          3.5148  -18.4708  -46.1583 C.3       5 UNK        -0.1800 
     49 N           4.2831  -16.3850  -45.1954 N.am      5 UNK        -0.5000 
     50 C           5.0594  -15.5019  -44.5534 C.2       4 UNK         0.5000 
     51 O           5.8622  -15.8175  -43.6737 O.2       4 UNK        -0.5000 
     52 CA          4.8892  -14.0135  -44.9309 C.3       4 UNK         0.1400 
     53 CB          6.0697  -13.5423  -45.7939 C.3       4 UNK        -0.1800 
     54 N           3.6353  -13.6969  -45.6291 N.am      4 UNK        -0.5000 
     55 C           2.4049  -13.8763  -45.1302 C.2       3 UNK         0.5000 
     56 O           2.1875  -14.3693  -44.0220 O.2       3 UNK        -0.5000 
     57 CA          1.2333  -13.5206  -46.0637 C.3       3 UNK         0.1400 
     58 CB          1.0725  -14.6019  -47.1454 C.3       3 UNK        -0.1800 
     59 N          -0.0358  -13.4105  -45.3486 N.am      3 UNK        -0.5000 
     60 C          -0.3781  -12.4417  -44.4898 C.2       2 UNK         0.5000 
     61 O           0.3476  -11.4859  -44.2103 O.2       2 UNK        -0.5000 
     62 CA         -1.7798  -12.5780  -43.8523 C.3       2 UNK         0.1400 
     63 CB         -2.3139  -11.2529  -43.2700 C.3       2 UNK        -0.1800 
     64 N          -2.7608  -13.1952  -44.7582 N.am      2 UNK        -0.5000 
     65 C          -3.1914  -12.7139  -45.9372 C.2       1 UNK         0.5000 
     66 O          -2.8431  -11.6246  -46.3941 O.2       1 UNK        -0.5000 
     67 C          -2.0644  -22.4638  -46.6445 C.2       11 UNK         0.5000 
     68 O          -2.5599  -23.2881  -47.4139 O.2       11 UNK        -0.5000 
     69 N          -2.6222  -22.1107  -45.4768 N.am      12 UNK        -0.5000 
     70 CA         -3.8389  -22.7109  -44.9277 C.3       12 UNK         0.1400 
     71 CB         -4.3038  -21.9168  -43.6986 C.3       12 UNK        -0.1800 
     72 C          -3.6556  -24.2024  -44.5884 C.2       12 UNK         0.5000 
     73 O          -4.5231  -25.0072  -44.9261 O.2       12 UNK        -0.5000 
     74 N          -2.5106  -24.5576  -43.9862 N.am      13 UNK        -0.5000 
     75 CA         -2.1099  -25.9387  -43.6960 C.3       13 UNK         0.1400 
     76 CB         -0.8426  -25.9359  -42.8284 C.3       13 UNK        -0.1800 
     77 C          -1.8968  -26.7867  -44.9656 C.2       13 UNK         0.5000 
     78 O          -2.2056  -27.9785  -44.9598 O.2       13 UNK        -0.5000 
     79 N          -1.4212  -26.1474  -46.0431 N.am      14 UNK        -0.5000 
     80 CA         -1.3015  -26.7227  -47.3852 C.3       14 UNK         0.1400 
     81 CB         -0.2592  -25.9172  -48.1791 C.3       14 UNK        -0.1800 
     82 C          -2.6420  -26.7877  -48.1513 C.2       14 UNK         0.5000 
     83 O          -2.6545  -27.2632  -49.2869 O.2       14 UNK        -0.5000 
     84 N          -3.7337  -26.3004  -47.5403 N.am      15 UNK        -0.5000 
     85 CA         -5.1024  -26.2353  -48.0622 C.3       15 UNK         0.1400 
     86 CB         -5.6766  -27.6514  -48.2786 C.3       15 UNK        -0.1800 
     87 C          -5.2409  -25.3276  -49.3021 C.2       15 UNK         0.5000 
     88 O          -6.0828  -25.5924  -50.1622 O.2       15 UNK        -0.5000 
     89 N          -4.4165  -24.2689  -49.3601 N.am      16 UNK        -0.5000 
     90 CA         -4.3239  -23.2704  -50.4283 C.3       16 UNK         0.1400 
     91 CB         -5.5685  -22.3589  -50.4347 C.3       16 UNK        -0.1800 
     92 C          -4.0278  -23.9032  -51.8031 C.2       16 UNK         0.5000 
     93 O          -4.7326  -23.6363  -52.7771 O.2       16 UNK        -0.5000 
     94 N          -2.9758  -24.7333  -51.8573 N.am      17 UNK        -0.5000 
     95 CA         -2.5297  -25.4734  -53.0459 C.3       17 UNK         0.1400 
     96 CB         -1.3365  -26.3601  -52.6583 C.3       17 UNK        -0.1800 
     97 C          -2.1699  -24.5893  -54.2604 C.2       17 UNK         0.5000 
     98 O          -2.2778  -25.0458  -55.3987 O.2       17 UNK        -0.5000 
     99 N          -1.7819  -23.3345  -53.9972 N.am      18 UNK        -0.5000 
    100 CA        -1.5077  -22.2956  -54.9935 C.3       18 UNK         0.1400 
    101 CB        -0.4955  -21.3146  -54.3845 C.3       18 UNK        -0.1800 
    102 C         -2.7766  -21.5533  -55.4758 C.2       18 UNK         0.5000 
    103 O         -2.6589  -20.5690  -56.2112 O.2       18 UNK        -0.5000 
    104 N         -3.9602  -21.9947  -55.0161 N.am      19 UNK        -0.5000 
    105 CA        -5.3089  -21.4884  -55.3109 C.3       19 UNK         0.1400 
    106 CB        -5.6313  -21.6549  -56.8104 C.3       19 UNK        -0.1800 
    107 C         -5.5620  -20.0472  -54.8206 C.2       19 UNK         0.5000 
    108 O         -6.5295  -19.4190  -55.2512 O.2       19 UNK        -0.5000 
    109 N         -4.6593  -19.5386  -53.9676 N.am      20 UNK        -0.5000 
    110 CA        -4.5074  -18.1466  -53.5266 C.3       20 UNK         0.1400 
    111 CB        -5.7359  -17.6794  -52.7200 C.3       20 UNK        -0.1800 
    112 C         -4.1437  -17.1624  -54.6639 C.2       20 UNK         0.5000 
    113 O         -4.1117  -15.9539  -54.4288 O.2       20 UNK        -0.5000 
    114 N         -3.8636  -17.6848  -55.8658 N.am      21 UNK        -0.5000 
    115 CA        -3.4567  -16.9225  -57.0408 C.3       21 UNK         0.1400 
    116 CB        -3.8931  -17.6742  -58.3086 C.3       21 UNK        -0.1800 
    117 C         -1.9396  -16.6978  -57.0245 C.2       21 UNK         0.5000 
    118 O         -1.4906  -15.5653  -57.2033 O.2       21 UNK        -0.5000 
    119 N         -1.1901  -17.7813  -56.7739 N.am      22 UNK        -0.5000 
    120 CA         0.2701  -17.7931  -56.5719 C.3       22 UNK         0.1400 
    121 C          1.1195  -17.3652  -57.8095 C.2       22 UNK         0.5000 
    122 N          0.5825  -17.4076  -59.0228 N.am      22 UNK        -0.7600 
    123 O          2.2917  -17.0219  -57.6797 O.2       22 UNK        -0.5000 
    124 C124        0.6923  -17.0642  -55.2648 C.3       23 UNK        -0.0398 
    125 S125       -0.1166  -17.7725  -53.7884 S.3       23 UNK        -0.2404 
    126 C126       -0.5749  -16.2754  -52.8634 C.3       23 UNK        -0.0205 
    127 H127       -5.3557  -16.9340  -44.9009 H         1 UNK         0.0600 
    128 H128       -6.9863  -16.3234  -44.6064 H         1 UNK         0.0600 
    129 H129       -5.7231  -16.0949  -43.3919 H         1 UNK         0.0600 
    130 H130       -4.2281  -15.6627  -46.3291 H         1 UNK         0.3000 
    131 H131       -5.0136  -12.9732  -47.0036 H         1 UNK         0.0600 
    132 H132       -2.6343  -14.6599  -47.9399 H         1 UNK         0.0800 
    133 H133       -3.0622  -13.1124  -48.6070 H         1 UNK         0.0800 
    134 H134       -4.8569  -17.0428  -49.9539 H         1 UNK         0.0800 
    135 H135       -4.3514  -16.9027  -48.2944 H         1 UNK         0.0800 
    136 H136       -3.0597  -15.9784  -51.7342 H         1 UNK         0.1150 
    137 H137        0.9153  -17.3289  -50.8554 H         1 UNK         0.1150 
    138 H138       -2.1315  -17.5470  -47.8572 H         1 UNK         0.1150 
    139 H139        0.2263  -17.8392  -47.2513 H         1 UNK         0.0800 
    140 H140        1.4804  -17.6197  -48.4427 H         1 UNK         0.0800 
    141 H141       -1.5969  -20.5984  -48.5672 H         1 UNK         0.0800 
    142 H142       -1.3141  -19.7378  -47.0724 H         1 UNK         0.0800 
    143 H143       -0.2093  -22.5185  -47.6822 H         1 UNK         0.0600 
    144 H144        0.2424  -20.7896  -45.4035 H         1 UNK         0.3000 
    145 H145        1.4413  -23.3709  -43.2588 H         1 UNK         0.0600 
    146 H146        2.9841  -21.1679  -44.7026 H         1 UNK         0.0600 
    147 H147        3.4311  -22.8663  -44.6461 H         1 UNK         0.0600 
    148 H148        3.4425  -21.9065  -43.1720 H         1 UNK         0.0600 
    149 H149        1.2216  -20.4863  -43.0727 H         1 UNK         0.3000 
    150 H150       -2.1062  -20.4839  -41.8072 H         1 UNK         0.0600 
    151 H151        0.4639  -20.2956  -40.1626 H         1 UNK         0.0600 
    152 H152       -0.9818  -21.2071  -39.7604 H         1 UNK         0.0600 
    153 H153       -1.0392  -19.4508  -39.7811 H         1 UNK         0.0600 
    154 H154       -0.1300  -18.4415  -41.8951 H         1 UNK         0.3000 
    155 H155        0.0295  -17.6472  -45.0149 H         1 UNK         0.0600 
    156 H156       -2.6303  -16.3496  -44.2241 H         1 UNK         0.0600 
    157 H157       -2.3934  -17.3570  -45.6314 H         1 UNK         0.0600 
    158 H158       -1.5406  -15.8316  -45.5144 H         1 UNK         0.0600 
    159 H159        1.0018  -16.4372  -43.4878 H         1 UNK         0.3000 
    160 H160        0.8046  -14.2159  -41.8694 H         1 UNK         0.0600 
    161 H161       -0.1596  -15.7533  -39.4072 H         1 UNK         0.0600 
    162 H162       -0.7236  -14.1862  -39.9646 H         1 UNK         0.0600 
    163 H163        0.9202  -14.3598  -39.3727 H         1 UNK         0.0600 
    164 H164        2.6535  -15.4469  -41.8563 H         1 UNK         0.3000 
    165 H165        4.1710  -17.1947  -40.4930 H         1 UNK         0.0600 
    166 H166        3.3098  -19.3444  -39.6165 H         1 UNK         0.0600 
    167 H167        2.8734  -19.8743  -41.2343 H         1 UNK         0.0600 
    168 H168        4.5667  -19.6412  -40.8061 H         1 UNK         0.0600 
    169 H169        4.8084  -17.0773  -42.6178 H         1 UNK         0.3000 
    170 H170        5.1772  -18.2313  -44.8242 H         1 UNK         0.0600 
    171 H171        4.0263  -18.1916  -47.0796 H         1 UNK         0.0600 
    172 H172        3.5476  -19.5566  -46.0974 H         1 UNK         0.0600 
    173 H173        2.4704  -18.1767  -46.2524 H         1 UNK         0.0600 
    174 H174        3.6499  -16.0159  -45.8876 H         1 UNK         0.3000 
    175 H175        4.8987  -13.4454  -43.9985 H         1 UNK         0.0600 
    176 H176        7.0208  -13.7305  -45.2938 H         1 UNK         0.0600 
    177 H177        6.0963  -14.0582  -46.7545 H         1 UNK         0.0600 
    178 H178        6.0145  -12.4709  -45.9881 H         1 UNK         0.0600 
    179 H179        3.7320  -13.3058  -46.5553 H         1 UNK         0.3000 
    180 H180        1.4457  -12.5620  -46.5412 H         1 UNK         0.0600 
    181 H181        0.8823  -15.5797  -46.7030 H         1 UNK         0.0600 
    182 H182        1.9694  -14.6882  -47.7599 H         1 UNK         0.0600 
    183 H183        0.2452  -14.3724  -47.8178 H         1 UNK         0.0600 
    184 H184       -0.6923  -14.1598  -45.4928 H         1 UNK         0.3000 
    185 H185       -1.6636  -13.2689  -43.0174 H         1 UNK         0.0600 
    186 H186       -1.6572  -10.8799  -42.4832 H         1 UNK         0.0600 
    187 H187       -2.3867  -10.4737  -44.0291 H         1 UNK         0.0600 
    188 H188       -3.3021  -11.3862  -42.8299 H         1 UNK         0.0600 
    189 H189       -3.1352  -14.0835  -44.4577 H         1 UNK         0.3000 
    190 H190       -2.1887  -21.3728  -44.9301 H         1 UNK         0.3000 
    191 H191       -4.6168  -22.6361  -45.6906 H         1 UNK         0.0600 
    192 H192       -4.4299  -20.8597  -43.9340 H         1 UNK         0.0600 
    193 H193       -5.2637  -22.2881  -43.3379 H         1 UNK         0.0600 
    194 H194       -3.5950  -21.9953  -42.8753 H         1 UNK         0.0600 
    195 H195       -1.8764  -23.8285  -43.6710 H         1 UNK         0.3000 
    196 H196       -2.9135  -26.4034  -43.1211 H         1 UNK         0.0600 
    197 H197       -0.0064  -25.4589  -43.3396 H         1 UNK         0.0600 
    198 H198       -0.5379  -26.9528  -42.5779 H         1 UNK         0.0600 
    199 H199       -1.0082  -25.4062  -41.8902 H         1 UNK         0.0600 
    200 H200       -1.1329  -25.1817  -45.9417 H         1 UNK         0.3000 
    201 H201       -0.9352  -27.7469  -47.2920 H         1 UNK         0.0600 
    202 H202       -0.5811  -24.8885  -48.3384 H         1 UNK         0.0600 
    203 H203        0.6987  -25.8913  -47.6593 H         1 UNK         0.0600 
    204 H204       -0.0826  -26.3604  -49.1599 H         1 UNK         0.0600 
    205 H205       -3.6197  -25.9081  -46.6135 H         1 UNK         0.3000 
    206 H206       -5.6986  -25.7607  -47.2822 H         1 UNK         0.0600 
    207 H207       -5.5663  -28.2620  -47.3824 H         1 UNK         0.0600 
    208 H208       -6.7410  -27.6106  -48.5122 H         1 UNK         0.0600 
    209 H209       -5.1822  -28.1690  -49.1010 H         1 UNK         0.0600 
    210 H210       -3.7633  -24.1310  -48.5915 H         1 UNK         0.3000 
    211 H211       -3.4633  -22.6444  -50.1878 H         1 UNK         0.0600 
    212 H212       -5.7210  -21.8956  -49.4600 H         1 UNK         0.0600 
    213 H213       -5.4600  -21.5539  -51.1629 H         1 UNK         0.0600 
    214 H214       -6.4741  -22.9103  -50.6894 H         1 UNK         0.0600 
    215 H215       -2.4811  -24.9319  -50.9996 H         1 UNK         0.3000 
    216 H216       -3.3525  -26.1222  -53.3524 H         1 UNK         0.0600 
    217 H217       -0.4953  -25.7673  -52.2969 H         1 UNK         0.0600 
    218 H218       -0.9863  -26.9421  -53.5119 H         1 UNK         0.0600 
    219 H219       -1.6089  -27.0684  -51.8756 H         1 UNK         0.0600 
    220 H220       -1.7145  -23.0563  -53.0295 H         1 UNK         0.3000 
    221 H221       -1.0501  -22.7545  -55.8722 H         1 UNK         0.0600 
    222 H222       -0.9100  -20.7892  -53.5233 H         1 UNK         0.0600 
    223 H223        0.4096  -21.8287  -54.0610 H         1 UNK         0.0600 
    224 H224       -0.1928  -20.5651  -55.1136 H         1 UNK         0.0600 
    225 H225       -3.9537  -22.7707  -54.3610 H         1 UNK         0.3000 
    226 H226       -5.9991  -22.1214  -54.7518 H         1 UNK         0.0600 
    227 H227       -5.4473  -22.6769  -57.1417 H         1 UNK         0.0600 
    228 H228       -6.6799  -21.4345  -57.0135 H         1 UNK         0.0600 
    229 H229       -5.0326  -20.9876  -57.4312 H         1 UNK         0.0600 
    230 H230       -3.9107  -20.1572  -53.6918 H         1 UNK         0.3000 
    231 H231       -3.6508  -18.1490  -52.8523 H         1 UNK         0.0600 
    232 H232       -6.6258  -17.5970  -53.3439 H         1 UNK         0.0600 
    233 H233       -5.5626  -16.6981  -52.2770 H         1 UNK         0.0600 
    234 H234       -5.9583  -18.3689  -51.9058 H         1 UNK         0.0600 
    235 H235       -3.8579  -18.6922  -55.9590 H         1 UNK         0.3000 
    236 H236       -3.9505  -15.9483  -57.0346 H         1 UNK         0.0600 
    237 H237       -3.4509  -18.6698  -58.3650 H         1 UNK         0.0600 
    238 H238       -4.9767  -17.7904  -58.3408 H         1 UNK         0.0600 
    239 H239       -3.5974  -17.1298  -59.2063 H         1 UNK         0.0600 
    240 H240       -1.6563  -18.6710  -56.6407 H         1 UNK         0.3000 
    241 H241        0.5299  -18.8430  -56.4435 H         1 UNK         0.0600 
    242 H242        1.1365  -17.1406  -59.8216 H         1 UNK         0.3800 
    243 H243       -0.3744  -17.6960  -59.1489 H         1 UNK         0.3800 
    244 H244        0.4721  -15.9983  -55.3361 H         1 UNK         0.0800 
    245 H245        1.7693  -17.1428  -55.1095 H         1 UNK         0.0800 
    246 H246       -1.3582  -15.7431  -53.4056 H         1 UNK         0.0800 
    247 H247        0.2825  -15.6033  -52.8065 H         1 UNK         0.0800 
@<TRIPOS>BOND
     1    1    2 1    
     2    1  127 1    
     3    1  128 1    
     4    1  129 1    
     5    2    3 2    
     6    2    4 am   BACKBONE|DICT|INTERRES
     7    4    5 1    
     8    4  130 1    
     9    5    6 1    
    10    5   65 1    
    11    5  131 1    
    12    6    7 1    
    13    6  132 1    
    14    6  133 1    
    15    7    8 1    
    16    8    9 1    
    17    8  134 1    
    18    8  135 1    
    19    9   10 ar   
    20    9   14 ar   
    21   10   11 ar   
    22   10  136 1    
    23   11   12 ar   
    24   11  126 1    
    25   12   13 ar   
    26   12  137 1    
    27   13   14 ar   
    28   13   15 1    
    29   14  138 1    
    30   15   16 1    
    31   15  139 1    
    32   15  140 1    
    33   16   17 1    
    34   17   18 1    
    35   17  141 1    
    36   17  142 1    
    37   18   19 1    
    38   18   67 1    
    39   18  143 1    
    40   19   20 am   BACKBONE|DICT|INTERRES
    41   19  144 1    
    42   20   21 2    
    43   20   22 1    
    44   22   23 1    
    45   22   24 1    
    46   22  145 1    
    47   23  146 1    
    48   23  147 1    
    49   23  148 1    
    50   24   25 am   BACKBONE|DICT|INTERRES
    51   24  149 1    
    52   25   26 2    
    53   25   27 1    
    54   27   28 1    
    55   27   29 1    
    56   27  150 1    
    57   28  151 1    
    58   28  152 1    
    59   28  153 1    
    60   29   30 am   BACKBONE|DICT|INTERRES
    61   29  154 1    
    62   30   31 2    
    63   30   32 1    
    64   32   33 1    
    65   32   34 1    
    66   32  155 1    
    67   33  156 1    
    68   33  157 1    
    69   33  158 1    
    70   34   35 am   BACKBONE|DICT|INTERRES
    71   34  159 1    
    72   35   36 2    
    73   35   37 1    
    74   37   38 1    
    75   37   39 1    
    76   37  160 1    
    77   38  161 1    
    78   38  162 1    
    79   38  163 1    
    80   39   40 am   BACKBONE|DICT|INTERRES
    81   39  164 1    
    82   40   41 2    
    83   40   42 1    
    84   42   43 1    
    85   42   44 1    
    86   42  165 1    
    87   43  166 1    
    88   43  167 1    
    89   43  168 1    
    90   44   45 am   BACKBONE|DICT|INTERRES
    91   44  169 1    
    92   45   46 2    
    93   45   47 1    
    94   47   48 1    
    95   47   49 1    
    96   47  170 1    
    97   48  171 1    
    98   48  172 1    
    99   48  173 1    
   100   49   50 am   BACKBONE|DICT|INTERRES
   101   49  174 1    
   102   50   51 2    
   103   50   52 1    
   104   52   53 1    
   105   52   54 1    
   106   52  175 1    
   107   53  176 1    
   108   53  177 1    
   109   53  178 1    
   110   54   55 am   BACKBONE|DICT|INTERRES
   111   54  179 1    
   112   55   56 2    
   113   55   57 1    
   114   57   58 1    
   115   57   59 1    
   116   57  180 1    
   117   58  181 1    
   118   58  182 1    
   119   58  183 1    
   120   59   60 am   BACKBONE|DICT|INTERRES
   121   59  184 1    
   122   60   61 2    
   123   60   62 1    
   124   62   63 1    
   125   62   64 1    
   126   62  185 1    
   127   63  186 1    
   128   63  187 1    
   129   63  188 1    
   130   64   65 am   BACKBONE|DICT|INTERRES
   131   64  189 1    
   132   65   66 2    
   133   67   68 2    
   134   67   69 am   BACKBONE|DICT|INTERRES
   135   69   70 1    
   136   69  190 1    
   137   70   71 1    
   138   70   72 1    
   139   70  191 1    
   140   71  192 1    
   141   71  193 1    
   142   71  194 1    
   143   72   73 2    
   144   72   74 am   BACKBONE|DICT|INTERRES
   145   74   75 1    
   146   74  195 1    
   147   75   76 1    
   148   75   77 1    
   149   75  196 1    
   150   76  197 1    
   151   76  198 1    
   152   76  199 1    
   153   77   78 2    
   154   77   79 am   BACKBONE|DICT|INTERRES
   155   79   80 1    
   156   79  200 1    
   157   80   81 1    
   158   80   82 1    
   159   80  201 1    
   160   81  202 1    
   161   81  203 1    
   162   81  204 1    
   163   82   83 2    
   164   82   84 am   BACKBONE|DICT|INTERRES
   165   84   85 1    
   166   84  205 1    
   167   85   86 1    
   168   85   87 1    
   169   85  206 1    
   170   86  207 1    
   171   86  208 1    
   172   86  209 1    
   173   87   88 2    
   174   87   89 am   BACKBONE|DICT|INTERRES
   175   89   90 1    
   176   89  210 1    
   177   90   91 1    
   178   90   92 1    
   179   90  211 1    
   180   91  212 1    
   181   91  213 1    
   182   91  214 1    
   183   92   93 2    
   184   92   94 am   BACKBONE|DICT|INTERRES
   185   94   95 1    
   186   94  215 1    
   187   95   96 1    
   188   95   97 1    
   189   95  216 1    
   190   96  217 1    
   191   96  218 1    
   192   96  219 1    
   193   97   98 2    
   194   97   99 am   BACKBONE|DICT|INTERRES
   195   99  100 1    
   196   99  220 1    
   197  100  101 1    
   198  100  102 1    
   199  100  221 1    
   200  101  222 1    
   201  101  223 1    
   202  101  224 1    
   203  102  103 2    
   204  102  104 am   BACKBONE|DICT|INTERRES
   205  104  105 1    
   206  104  225 1    
   207  105  106 1    
   208  105  107 1    
   209  105  226 1    
   210  106  227 1    
   211  106  228 1    
   212  106  229 1    
   213  107  108 2    
   214  107  109 am   BACKBONE|DICT|INTERRES
   215  109  110 1    
   216  109  230 1    
   217  110  111 1    
   218  110  112 1    
   219  110  231 1    
   220  111  232 1    
   221  111  233 1    
   222  111  234 1    
   223  112  113 2    
   224  112  114 am   BACKBONE|DICT|INTERRES
   225  114  115 1    
   226  114  235 1    
   227  115  116 1    
   228  115  117 1    
   229  115  236 1    
   230  116  237 1    
   231  116  238 1    
   232  116  239 1    
   233  117  118 2    
   234  117  119 am   BACKBONE|DICT|INTERRES
   235  119  120 1    
   236  119  240 1    
   237  120  121 1    
   238  120  124 1    
   239  120  241 1    
   240  121  122 am   BACKBONE|DICT|INTERRES
   241  121  123 2    
   242  122  242 1    
   243  122  243 1    
   244  124  125 1    
   245  124  244 1    
   246  124  245 1    
   247  125  126 1    
   248  126  246 1    
   249  126  247 1    
@<TRIPOS>SUBSTRUCTURE
     1 UNK         1 GROUP             0       ****    0 ROOT    
