@<TRIPOS>MOLECULE
3R540
247   249    1
SMALL
USER_CHARGES


@<TRIPOS>ATOM
      1 CA          5.3238  -12.6680  -43.9522 C.3       0 UNK        -0.1800 
      2 C           3.9569  -13.0751  -44.4799 C.2       0 UNK         0.5000 
      3 O           2.9746  -13.0303  -43.7409 O.2       0 UNK        -0.5000 
      4 N           3.8796  -13.4629  -45.7586 N.am      1 UNK        -0.5000 
      5 CA          2.6451  -13.8944  -46.4263 C.3       1 UNK         0.1400 
      6 C6          2.9441  -14.5126  -47.8129 C.3       23 UNK        -0.0398 
      7 S7          1.6770  -15.7047  -48.3522 S.3       23 UNK        -0.2404 
      8 C8          2.6501  -16.6518  -49.5610 C.3       23 UNK        -0.0205 
      9 C9          1.7604  -17.5134  -50.4401 C.ar      23 UNK        -0.0193 
     10 C10         1.1819  -16.9726  -51.5919 C.ar      23 UNK        -0.1150 
     11 C11         0.3820  -17.7623  -52.4223 C.ar      23 UNK        -0.0193 
     12 C12         0.1529  -19.0992  -52.0864 C.ar      23 UNK        -0.1150 
     13 C13         0.7209  -19.6494  -50.9333 C.ar      23 UNK        -0.0193 
     14 C14         1.5309  -18.8533  -50.1172 C.ar      23 UNK        -0.1150 
     15 C15         0.4608  -21.1059  -50.5836 C.3       23 UNK        -0.0205 
     16 S16        -1.0419  -21.2859  -49.5756 S.3       23 UNK        -0.2404 
     17 C17        -0.4003  -20.9708  -47.8938 C.3       23 UNK        -0.0398 
     18 CA         -0.3091  -22.2715  -47.0628 C.3       11 UNK         0.1400 
     19 N           0.5796  -22.1457  -45.9063 N.am      11 UNK        -0.5000 
     20 C           0.9623  -23.1758  -45.1360 C.2       10 UNK         0.5000 
     21 O           0.6599  -24.3473  -45.3601 O.2       10 UNK        -0.5000 
     22 CA          1.7708  -22.8369  -43.8727 C.3       10 UNK         0.1400 
     23 CB          3.2544  -22.6387  -44.2163 C.3       10 UNK        -0.1800 
     24 N           1.2585  -21.6519  -43.1848 N.am      10 UNK        -0.5000 
     25 C           0.0348  -21.5521  -42.6456 C.2       9 UNK         0.5000 
     26 O          -0.7736  -22.4799  -42.6107 O.2       9 UNK        -0.5000 
     27 CA         -0.3759  -20.1679  -42.1099 C.3       9 UNK         0.1400 
     28 CB          0.1936  -19.9323  -40.7039 C.3       9 UNK        -0.1800 
     29 N           0.0327  -19.0766  -42.9966 N.am      9 UNK        -0.5000 
     30 C          -0.4017  -18.9135  -44.2551 C.2       8 UNK         0.5000 
     31 O          -1.2216  -19.6531  -44.7971 O.2       8 UNK        -0.5000 
     32 CA          0.2178  -17.7599  -45.0591 C.3       8 UNK         0.1400 
     33 CB         -0.4820  -16.4339  -44.7377 C.3       8 UNK        -0.1800 
     34 N           1.6500  -17.6401  -44.7958 N.am      8 UNK        -0.5000 
     35 C           2.5710  -18.4712  -45.3016 C.2       7 UNK         0.5000 
     36 O           2.3092  -19.3912  -46.0780 O.2       7 UNK        -0.5000 
     37 CA          4.0218  -18.2624  -44.8276 C.3       7 UNK         0.1400 
     38 CB          4.7243  -17.1987  -45.6824 C.3       7 UNK        -0.1800 
     39 N           4.1158  -17.8875  -43.4137 N.am      7 UNK        -0.5000 
     40 C           3.7895  -18.7016  -42.4009 C.2       6 UNK         0.5000 
     41 O           3.3771  -19.8491  -42.5575 O.2       6 UNK        -0.5000 
     42 CA          3.9085  -18.1380  -40.9731 C.3       6 UNK         0.1400 
     43 CB          5.3407  -18.3164  -40.4475 C.3       6 UNK        -0.1800 
     44 N           3.5106  -16.7356  -40.8166 N.am      6 UNK        -0.5000 
     45 C           2.3442  -16.1900  -41.1906 C.2       5 UNK         0.5000 
     46 O           1.4919  -16.7965  -41.8445 O.2       5 UNK        -0.5000 
     47 CA          2.0885  -14.7350  -40.7410 C.3       5 UNK         0.1400 
     48 CB          3.3819  -13.9227  -40.5281 C.3       5 UNK        -0.1800 
     49 N           1.2483  -14.0279  -41.7028 N.am      5 UNK        -0.5000 
     50 C          -0.0892  -13.9614  -41.6669 C.2       4 UNK         0.5000 
     51 O          -0.7768  -14.4854  -40.7880 O.2       4 UNK        -0.5000 
     52 CA         -0.7619  -13.1612  -42.8043 C.3       4 UNK         0.1400 
     53 CB         -2.2267  -12.7809  -42.5036 C.3       4 UNK        -0.1800 
     54 N           0.0180  -11.9884  -43.2086 N.am      4 UNK        -0.5000 
     55 C           0.3340  -10.9170  -42.4634 C.2       3 UNK         0.5000 
     56 O          -0.0735  -10.7351  -41.3155 O.2       3 UNK        -0.5000 
     57 CA          1.2835   -9.8754  -43.0919 C.3       3 UNK         0.1400 
     58 CB          2.6017   -9.7992  -42.3029 C.3       3 UNK        -0.1800 
     59 N           1.5947  -10.1663  -44.4927 N.am      3 UNK        -0.5000 
     60 C           0.8428   -9.8042  -45.5409 C.2       2 UNK         0.5000 
     61 O          -0.1727   -9.1142  -45.4478 O.2       2 UNK        -0.5000 
     62 CA          1.2897  -10.3160  -46.9254 C.3       2 UNK         0.1400 
     63 CB          2.0964   -9.2360  -47.6622 C.3       2 UNK        -0.1800 
     64 N           2.0873  -11.5447  -46.8613 N.am      2 UNK        -0.5000 
     65 C           1.6115  -12.7501  -46.5138 C.2       1 UNK         0.5000 
     66 O           0.4386  -12.9549  -46.2014 O.2       1 UNK        -0.5000 
     67 C          -1.7040  -22.7749  -46.6474 C.2       11 UNK         0.5000 
     68 O          -2.1971  -23.7322  -47.2439 O.2       11 UNK        -0.5000 
     69 N          -2.2942  -22.1516  -45.6174 N.am      12 UNK        -0.5000 
     70 CA         -3.5996  -22.4998  -45.0519 C.3       12 UNK         0.1400 
     71 CB         -3.9699  -21.4963  -43.9503 C.3       12 UNK        -0.1800 
     72 C          -3.6753  -23.9451  -44.5295 C.2       12 UNK         0.5000 
     73 O          -4.6912  -24.6101  -44.7338 O.2       12 UNK        -0.5000 
     74 N          -2.5894  -24.4119  -43.8998 N.am      13 UNK        -0.5000 
     75 CA         -2.4225  -25.7944  -43.4568 C.3       13 UNK         0.1400 
     76 CB         -1.2059  -25.8826  -42.5227 C.3       13 UNK        -0.1800 
     77 C          -2.2816  -26.7851  -44.6291 C.2       13 UNK         0.5000 
     78 O          -2.8078  -27.8957  -44.5456 O.2       13 UNK        -0.5000 
     79 N          -1.5707  -26.3752  -45.6885 N.am      14 UNK        -0.5000 
     80 CA         -1.3045  -27.1874  -46.8733 C.3       14 UNK         0.1400 
     81 CB         -0.1188  -26.5964  -47.6539 C.3       14 UNK        -0.1800 
     82 C          -2.5340  -27.3542  -47.7835 C.2       14 UNK         0.5000 
     83 O          -2.9070  -28.4896  -48.0840 O.2       14 UNK        -0.5000 
     84 N          -3.1228  -26.2352  -48.2286 N.am      15 UNK        -0.5000 
     85 CA         -4.1928  -26.2244  -49.2347 C.3       15 UNK         0.1400 
     86 CB         -3.6030  -26.5310  -50.6276 C.3       15 UNK        -0.1800 
     87 C          -5.0065  -24.9189  -49.2959 C.2       15 UNK         0.5000 
     88 O          -6.0442  -24.9080  -49.9575 O.2       15 UNK        -0.5000 
     89 N          -4.5262  -23.8327  -48.6720 N.am      16 UNK        -0.5000 
     90 CA         -5.1108  -22.4824  -48.6681 C.3       16 UNK         0.1400 
     91 CB         -6.4561  -22.4757  -47.9110 C.3       16 UNK        -0.1800 
     92 C          -5.2179  -21.8442  -50.0713 C.2       16 UNK         0.5000 
     93 O          -6.0831  -20.9961  -50.2947 O.2       16 UNK        -0.5000 
     94 N          -4.3421  -22.2805  -50.9904 N.am      17 UNK        -0.5000 
     95 CA         -4.2927  -21.9294  -52.4138 C.3       17 UNK         0.1400 
     96 CB         -3.8816  -20.4532  -52.6042 C.3       17 UNK        -0.1800 
     97 C          -5.5826  -22.2971  -53.1824 C.2       17 UNK         0.5000 
     98 O          -5.9274  -21.6201  -54.1532 O.2       17 UNK        -0.5000 
     99 N          -6.2793  -23.3582  -52.7449 N.am      18 UNK        -0.5000 
    100 CA        -7.5022  -23.8693  -53.3669 C.3       18 UNK         0.1400 
    101 CB        -8.0372  -25.0540  -52.5491 C.3       18 UNK        -0.1800 
    102 C         -7.2864  -24.2789  -54.8362 C.2       18 UNK         0.5000 
    103 O         -6.2912  -24.9377  -55.1468 O.2       18 UNK        -0.5000 
    104 N         -8.2244  -23.8650  -55.6999 N.am      19 UNK        -0.5000 
    105 CA        -8.2269  -24.0427  -57.1582 C.3       19 UNK         0.1400 
    106 CB        -8.3202  -25.5368  -57.5353 C.3       19 UNK        -0.1800 
    107 C         -7.0708  -23.3104  -57.8793 C.2       19 UNK         0.5000 
    108 O         -6.6841  -23.7127  -58.9784 O.2       19 UNK        -0.5000 
    109 N         -6.5549  -22.2376  -57.2653 N.am      20 UNK        -0.5000 
    110 CA        -5.5024  -21.3833  -57.8124 C.3       20 UNK         0.1400 
    111 CB        -4.1213  -21.8804  -57.3508 C.3       20 UNK        -0.1800 
    112 C         -5.7291  -19.9200  -57.4111 C.2       20 UNK         0.5000 
    113 O         -5.6472  -19.0378  -58.2670 O.2       20 UNK        -0.5000 
    114 N         -6.0018  -19.6863  -56.1171 N.am      21 UNK        -0.5000 
    115 CA        -6.2886  -18.3929  -55.4801 C.3       21 UNK         0.1400 
    116 CB        -7.6730  -17.8790  -55.9255 C.3       21 UNK        -0.1800 
    117 C         -5.1740  -17.3386  -55.6689 C.2       21 UNK         0.5000 
    118 O         -5.4572  -16.1393  -55.6817 O.2       21 UNK        -0.5000 
    119 N         -3.9323  -17.8138  -55.8393 N.am      22 UNK        -0.5000 
    120 CA        -2.7375  -17.0332  -56.2054 C.3       22 UNK         0.1400 
    121 C         -2.7862  -16.4093  -57.6368 C.2       22 UNK         0.5000 
    122 N         -3.6673  -16.8483  -58.5292 N.am      22 UNK        -0.7600 
    123 O         -1.9890  -15.5339  -57.9635 O.2       22 UNK        -0.5000 
    124 C124       -2.3093  -16.0068  -55.1171 C.3       23 UNK        -0.0398 
    125 S125       -1.9744  -16.7814  -53.4980 S.3       23 UNK        -0.2404 
    126 C126       -0.2108  -17.1803  -53.6950 C.3       23 UNK        -0.0205 
    127 H127        6.0709  -12.6369  -44.7454 H         1 UNK         0.0600 
    128 H128        5.6594  -13.3763  -43.1953 H         1 UNK         0.0600 
    129 H129        5.2705  -11.6794  -43.4964 H         1 UNK         0.0600 
    130 H130        4.7182  -13.4700  -46.3220 H         1 UNK         0.3000 
    131 H131        2.2124  -14.6727  -45.7935 H         1 UNK         0.0600 
    132 H132        3.8927  -15.0499  -47.7757 H         1 UNK         0.0800 
    133 H133        3.0693  -13.7457  -48.5797 H         1 UNK         0.0800 
    134 H134        3.2238  -15.9666  -50.1874 H         1 UNK         0.0800 
    135 H135        3.3776  -17.2710  -49.0338 H         1 UNK         0.0800 
    136 H136        1.3620  -15.9369  -51.8446 H         1 UNK         0.1150 
    137 H137       -0.4705  -19.7108  -52.7235 H         1 UNK         0.1150 
    138 H138        1.9856  -19.2712  -49.2304 H         1 UNK         0.1150 
    139 H139        0.3374  -21.6860  -51.4994 H         1 UNK         0.0800 
    140 H140        1.3179  -21.5392  -50.0655 H         1 UNK         0.0800 
    141 H141       -1.0336  -20.2265  -47.4089 H         1 UNK         0.0800 
    142 H142        0.5852  -20.5134  -47.9647 H         1 UNK         0.0800 
    143 H143        0.1345  -23.0398  -47.7002 H         1 UNK         0.0600 
    144 H144        0.8818  -21.2124  -45.6592 H         1 UNK         0.3000 
    145 H145        1.6883  -23.6834  -43.1879 H         1 UNK         0.0600 
    146 H146        3.8509  -22.4967  -43.3149 H         1 UNK         0.0600 
    147 H147        3.6556  -23.5090  -44.7372 H         1 UNK         0.0600 
    148 H148        3.4069  -21.7702  -44.8582 H         1 UNK         0.0600 
    149 H149        1.8954  -20.8627  -43.1095 H         1 UNK         0.3000 
    150 H150       -1.4652  -20.1461  -42.0420 H         1 UNK         0.0600 
    151 H151       -0.1701  -20.6876  -40.0062 H         1 UNK         0.0600 
    152 H152       -0.1023  -18.9578  -40.3147 H         1 UNK         0.0600 
    153 H153        1.2818  -19.9799  -40.6984 H         1 UNK         0.0600 
    154 H154        0.6775  -18.3908  -42.6145 H         1 UNK         0.3000 
    155 H155        0.0728  -17.9689  -46.1216 H         1 UNK         0.0600 
    156 H156       -1.5457  -16.4883  -44.9723 H         1 UNK         0.0600 
    157 H157       -0.0623  -15.6148  -45.3212 H         1 UNK         0.0600 
    158 H158       -0.3922  -16.1822  -43.6815 H         1 UNK         0.0600 
    159 H159        1.9280  -16.9729  -44.0891 H         1 UNK         0.3000 
    160 H160        4.5496  -19.2090  -44.9632 H         1 UNK         0.0600 
    161 H161        4.2809  -16.2153  -45.5353 H         1 UNK         0.0600 
    162 H162        4.6539  -17.4387  -46.7441 H         1 UNK         0.0600 
    163 H163        5.7834  -17.1294  -45.4341 H         1 UNK         0.0600 
    164 H164        4.4404  -16.9561  -43.2008 H         1 UNK         0.3000 
    165 H165        3.2454  -18.7271  -40.3379 H         1 UNK         0.0600 
    166 H166        5.4133  -18.0394  -39.3956 H         1 UNK         0.0600 
    167 H167        5.6613  -19.3560  -40.5299 H         1 UNK         0.0600 
    168 H168        6.0531  -17.7078  -41.0058 H         1 UNK         0.0600 
    169 H169        4.1534  -16.1546  -40.2986 H         1 UNK         0.3000 
    170 H170        1.5706  -14.7866  -39.7815 H         1 UNK         0.0600 
    171 H171        3.9529  -14.2959  -39.6774 H         1 UNK         0.0600 
    172 H172        4.0290  -13.9534  -41.4044 H         1 UNK         0.0600 
    173 H173        3.1570  -12.8758  -40.3217 H         1 UNK         0.0600 
    174 H174        1.7418  -13.5906  -42.4782 H         1 UNK         0.3000 
    175 H175       -0.7726  -13.8168  -43.6739 H         1 UNK         0.0600 
    176 H176       -2.3135  -12.1741  -41.6020 H         1 UNK         0.0600 
    177 H177       -2.6656  -12.2210  -43.3294 H         1 UNK         0.0600 
    178 H178       -2.8376  -13.6722  -42.3564 H         1 UNK         0.0600 
    179 H179        0.4147  -12.0441  -44.1379 H         1 UNK         0.3000 
    180 H180        0.7925   -8.9023  -43.0266 H         1 UNK         0.0600 
    181 H181        3.1168  -10.7598  -42.2819 H         1 UNK         0.0600 
    182 H182        2.4210   -9.5051  -41.2683 H         1 UNK         0.0600 
    183 H183        3.2795   -9.0627  -42.7345 H         1 UNK         0.0600 
    184 H184        2.3950  -10.7594  -44.6567 H         1 UNK         0.3000 
    185 H185        0.3880  -10.5251  -47.5050 H         1 UNK         0.0600 
    186 H186        1.5215   -8.3134  -47.7539 H         1 UNK         0.0600 
    187 H187        3.0214   -8.9952  -47.1367 H         1 UNK         0.0600 
    188 H188        2.3559   -9.5566  -48.6713 H         1 UNK         0.0600 
    189 H189        3.0703  -11.4559  -47.0747 H         1 UNK         0.3000 
    190 H190       -1.8273  -21.3464  -45.2049 H         1 UNK         0.3000 
    191 H191       -4.3363  -22.4037  -45.8477 H         1 UNK         0.0600 
    192 H192       -3.9840  -20.4761  -44.3345 H         1 UNK         0.0600 
    193 H193       -4.9616  -21.7068  -43.5482 H         1 UNK         0.0600 
    194 H194       -3.2653  -21.5311  -43.1198 H         1 UNK         0.0600 
    195 H195       -1.8233  -23.7728  -43.7097 H         1 UNK         0.3000 
    196 H196       -3.3095  -26.0771  -42.8860 H         1 UNK         0.0600 
    197 H197       -1.0673  -26.9002  -42.1556 H         1 UNK         0.0600 
    198 H198       -1.3293  -25.2362  -41.6535 H         1 UNK         0.0600 
    199 H199       -0.2868  -25.5871  -43.0297 H         1 UNK         0.0600 
    200 H200       -1.1400  -25.4581  -45.6631 H         1 UNK         0.3000 
    201 H201       -1.0080  -28.1835  -46.5375 H         1 UNK         0.0600 
    202 H202        0.7861  -26.5893  -47.0461 H         1 UNK         0.0600 
    203 H203       -0.3112  -25.5727  -47.9752 H         1 UNK         0.0600 
    204 H204        0.0948  -27.1859  -48.5463 H         1 UNK         0.0600 
    205 H205       -2.7687  -25.3407  -47.8997 H         1 UNK         0.3000 
    206 H206       -4.9088  -27.0090  -48.9809 H         1 UNK         0.0600 
    207 H207       -3.1525  -27.5227  -50.6645 H         1 UNK         0.0600 
    208 H208       -4.3732  -26.5054  -51.4000 H         1 UNK         0.0600 
    209 H209       -2.8368  -25.8058  -50.9038 H         1 UNK         0.0600 
    210 H210       -3.6478  -23.9047  -48.1631 H         1 UNK         0.3000 
    211 H211       -4.4135  -21.8517  -48.1161 H         1 UNK         0.0600 
    212 H212       -7.2386  -22.9837  -48.4755 H         1 UNK         0.0600 
    213 H213       -6.7964  -21.4561  -47.7273 H         1 UNK         0.0600 
    214 H214       -6.3726  -22.9694  -46.9431 H         1 UNK         0.0600 
    215 H215       -3.6654  -22.9666  -50.6886 H         1 UNK         0.3000 
    216 H216       -3.5038  -22.5448  -52.8481 H         1 UNK         0.0600 
    217 H217       -3.6869  -20.2312  -53.6539 H         1 UNK         0.0600 
    218 H218       -2.9701  -20.2225  -52.0524 H         1 UNK         0.0600 
    219 H219       -4.6596  -19.7685  -52.2655 H         1 UNK         0.0600 
    220 H220       -5.9568  -23.8523  -51.9225 H         1 UNK         0.3000 
    221 H221       -8.2430  -23.0680  -53.3304 H         1 UNK         0.0600 
    222 H222       -7.3050  -25.8600  -52.4840 H         1 UNK         0.0600 
    223 H223       -8.2908  -24.7484  -51.5338 H         1 UNK         0.0600 
    224 H224       -8.9417  -25.4655  -52.9986 H         1 UNK         0.0600 
    225 H225       -9.0023  -23.3322  -55.3352 H         1 UNK         0.3000 
    226 H226       -9.1408  -23.5645  -57.5133 H         1 UNK         0.0600 
    227 H227       -9.1443  -26.0246  -57.0147 H         1 UNK         0.0600 
    228 H228       -8.4965  -25.6604  -58.6044 H         1 UNK         0.0600 
    229 H229       -7.4038  -26.0756  -57.2931 H         1 UNK         0.0600 
    230 H230       -6.9281  -21.9691  -56.3651 H         1 UNK         0.3000 
    231 H231       -5.5341  -21.4188  -58.9036 H         1 UNK         0.0600 
    232 H232       -3.9255  -22.8882  -57.7172 H         1 UNK         0.0600 
    233 H233       -4.0413  -21.9012  -56.2634 H         1 UNK         0.0600 
    234 H234       -3.3265  -21.2364  -57.7294 H         1 UNK         0.0600 
    235 H235       -5.9784  -20.4711  -55.4654 H         1 UNK         0.3000 
    236 H236       -6.3372  -18.5885  -54.4078 H         1 UNK         0.0600 
    237 H237       -8.4432  -18.6331  -55.7639 H         1 UNK         0.0600 
    238 H238       -7.9653  -16.9937  -55.3597 H         1 UNK         0.0600 
    239 H239       -7.6823  -17.6109  -56.9825 H         1 UNK         0.0600 
    240 H240       -3.8075  -18.8144  -55.8126 H         1 UNK         0.3000 
    241 H241       -1.9353  -17.7682  -56.2747 H         1 UNK         0.0600 
    242 H242       -4.3358  -17.5784  -58.3027 H         1 UNK         0.3800 
    243 H243       -3.6756  -16.4416  -59.4510 H         1 UNK         0.3800 
    244 H244       -1.4153  -15.4632  -55.4263 H         1 UNK         0.0800 
    245 H245       -3.0802  -15.2476  -54.9822 H         1 UNK         0.0800 
    246 H246       -0.0888  -17.8930  -54.5119 H         1 UNK         0.0800 
    247 H247        0.3354  -16.2815  -53.9857 H         1 UNK         0.0800 
@<TRIPOS>BOND
     1    1    2 1    
     2    1  127 1    
     3    1  128 1    
     4    1  129 1    
     5    2    3 2    
     6    2    4 am   BACKBONE|DICT|INTERRES
     7    4    5 1    
     8    4  130 1    
     9    5    6 1    
    10    5   65 1    
    11    5  131 1    
    12    6    7 1    
    13    6  132 1    
    14    6  133 1    
    15    7    8 1    
    16    8    9 1    
    17    8  134 1    
    18    8  135 1    
    19    9   10 ar   
    20    9   14 ar   
    21   10   11 ar   
    22   10  136 1    
    23   11   12 ar   
    24   11  126 1    
    25   12   13 ar   
    26   12  137 1    
    27   13   14 ar   
    28   13   15 1    
    29   14  138 1    
    30   15   16 1    
    31   15  139 1    
    32   15  140 1    
    33   16   17 1    
    34   17   18 1    
    35   17  141 1    
    36   17  142 1    
    37   18   19 1    
    38   18   67 1    
    39   18  143 1    
    40   19   20 am   BACKBONE|DICT|INTERRES
    41   19  144 1    
    42   20   21 2    
    43   20   22 1    
    44   22   23 1    
    45   22   24 1    
    46   22  145 1    
    47   23  146 1    
    48   23  147 1    
    49   23  148 1    
    50   24   25 am   BACKBONE|DICT|INTERRES
    51   24  149 1    
    52   25   26 2    
    53   25   27 1    
    54   27   28 1    
    55   27   29 1    
    56   27  150 1    
    57   28  151 1    
    58   28  152 1    
    59   28  153 1    
    60   29   30 am   BACKBONE|DICT|INTERRES
    61   29  154 1    
    62   30   31 2    
    63   30   32 1    
    64   32   33 1    
    65   32   34 1    
    66   32  155 1    
    67   33  156 1    
    68   33  157 1    
    69   33  158 1    
    70   34   35 am   BACKBONE|DICT|INTERRES
    71   34  159 1    
    72   35   36 2    
    73   35   37 1    
    74   37   38 1    
    75   37   39 1    
    76   37  160 1    
    77   38  161 1    
    78   38  162 1    
    79   38  163 1    
    80   39   40 am   BACKBONE|DICT|INTERRES
    81   39  164 1    
    82   40   41 2    
    83   40   42 1    
    84   42   43 1    
    85   42   44 1    
    86   42  165 1    
    87   43  166 1    
    88   43  167 1    
    89   43  168 1    
    90   44   45 am   BACKBONE|DICT|INTERRES
    91   44  169 1    
    92   45   46 2    
    93   45   47 1    
    94   47   48 1    
    95   47   49 1    
    96   47  170 1    
    97   48  171 1    
    98   48  172 1    
    99   48  173 1    
   100   49   50 am   BACKBONE|DICT|INTERRES
   101   49  174 1    
   102   50   51 2    
   103   50   52 1    
   104   52   53 1    
   105   52   54 1    
   106   52  175 1    
   107   53  176 1    
   108   53  177 1    
   109   53  178 1    
   110   54   55 am   BACKBONE|DICT|INTERRES
   111   54  179 1    
   112   55   56 2    
   113   55   57 1    
   114   57   58 1    
   115   57   59 1    
   116   57  180 1    
   117   58  181 1    
   118   58  182 1    
   119   58  183 1    
   120   59   60 am   BACKBONE|DICT|INTERRES
   121   59  184 1    
   122   60   61 2    
   123   60   62 1    
   124   62   63 1    
   125   62   64 1    
   126   62  185 1    
   127   63  186 1    
   128   63  187 1    
   129   63  188 1    
   130   64   65 am   BACKBONE|DICT|INTERRES
   131   64  189 1    
   132   65   66 2    
   133   67   68 2    
   134   67   69 am   BACKBONE|DICT|INTERRES
   135   69   70 1    
   136   69  190 1    
   137   70   71 1    
   138   70   72 1    
   139   70  191 1    
   140   71  192 1    
   141   71  193 1    
   142   71  194 1    
   143   72   73 2    
   144   72   74 am   BACKBONE|DICT|INTERRES
   145   74   75 1    
   146   74  195 1    
   147   75   76 1    
   148   75   77 1    
   149   75  196 1    
   150   76  197 1    
   151   76  198 1    
   152   76  199 1    
   153   77   78 2    
   154   77   79 am   BACKBONE|DICT|INTERRES
   155   79   80 1    
   156   79  200 1    
   157   80   81 1    
   158   80   82 1    
   159   80  201 1    
   160   81  202 1    
   161   81  203 1    
   162   81  204 1    
   163   82   83 2    
   164   82   84 am   BACKBONE|DICT|INTERRES
   165   84   85 1    
   166   84  205 1    
   167   85   86 1    
   168   85   87 1    
   169   85  206 1    
   170   86  207 1    
   171   86  208 1    
   172   86  209 1    
   173   87   88 2    
   174   87   89 am   BACKBONE|DICT|INTERRES
   175   89   90 1    
   176   89  210 1    
   177   90   91 1    
   178   90   92 1    
   179   90  211 1    
   180   91  212 1    
   181   91  213 1    
   182   91  214 1    
   183   92   93 2    
   184   92   94 am   BACKBONE|DICT|INTERRES
   185   94   95 1    
   186   94  215 1    
   187   95   96 1    
   188   95   97 1    
   189   95  216 1    
   190   96  217 1    
   191   96  218 1    
   192   96  219 1    
   193   97   98 2    
   194   97   99 am   BACKBONE|DICT|INTERRES
   195   99  100 1    
   196   99  220 1    
   197  100  101 1    
   198  100  102 1    
   199  100  221 1    
   200  101  222 1    
   201  101  223 1    
   202  101  224 1    
   203  102  103 2    
   204  102  104 am   BACKBONE|DICT|INTERRES
   205  104  105 1    
   206  104  225 1    
   207  105  106 1    
   208  105  107 1    
   209  105  226 1    
   210  106  227 1    
   211  106  228 1    
   212  106  229 1    
   213  107  108 2    
   214  107  109 am   BACKBONE|DICT|INTERRES
   215  109  110 1    
   216  109  230 1    
   217  110  111 1    
   218  110  112 1    
   219  110  231 1    
   220  111  232 1    
   221  111  233 1    
   222  111  234 1    
   223  112  113 2    
   224  112  114 am   BACKBONE|DICT|INTERRES
   225  114  115 1    
   226  114  235 1    
   227  115  116 1    
   228  115  117 1    
   229  115  236 1    
   230  116  237 1    
   231  116  238 1    
   232  116  239 1    
   233  117  118 2    
   234  117  119 am   BACKBONE|DICT|INTERRES
   235  119  120 1    
   236  119  240 1    
   237  120  121 1    
   238  120  124 1    
   239  120  241 1    
   240  121  122 am   BACKBONE|DICT|INTERRES
   241  121  123 2    
   242  122  242 1    
   243  122  243 1    
   244  124  125 1    
   245  124  244 1    
   246  124  245 1    
   247  125  126 1    
   248  126  246 1    
   249  126  247 1    
@<TRIPOS>SUBSTRUCTURE
     1 UNK         1 GROUP             0       ****    0 ROOT    
