@<TRIPOS>MOLECULE
3R540
247   249    1
SMALL
USER_CHARGES


@<TRIPOS>ATOM
      1 CA         -4.3995  -10.2941  -44.2601 C.3       0 UNK        -0.1800 
      2 C          -3.2602  -11.1243  -44.8336 C.2       0 UNK         0.5000 
      3 O          -2.9471  -12.1862  -44.2948 O.2       0 UNK        -0.5000 
      4 N          -2.6400  -10.6425  -45.9198 N.am      1 UNK        -0.5000 
      5 CA         -1.5061  -11.2354  -46.6415 C.3       1 UNK         0.1400 
      6 C6         -1.7873  -12.6711  -47.1604 C.3       23 UNK        -0.0398 
      7 S7         -0.5502  -13.2598  -48.3623 S.3       23 UNK        -0.2404 
      8 C8         -1.4884  -14.5922  -49.1630 C.3       23 UNK        -0.0205 
      9 C9         -0.5737  -15.4891  -49.9786 C.ar      23 UNK        -0.0193 
     10 C10        -0.3563  -15.2356  -51.3350 C.ar      23 UNK        -0.1150 
     11 C11         0.4732  -16.0724  -52.0853 C.ar      23 UNK        -0.0193 
     12 C12         1.0875  -17.1649  -51.4651 C.ar      23 UNK        -0.1150 
     13 C13         0.8675  -17.4453  -50.1139 C.ar      23 UNK        -0.0193 
     14 C14         0.0447  -16.5859  -49.3734 C.ar      23 UNK        -0.1150 
     15 C15         1.5346  -18.6900  -49.5229 C.3       23 UNK        -0.0205 
     16 S16         1.1152  -19.0878  -47.7916 S.3       23 UNK        -0.2404 
     17 C17        -0.6336  -19.5997  -47.9087 C.3       23 UNK        -0.0398 
     18 CA         -0.8936  -21.0244  -47.3586 C.3       11 UNK         0.1400 
     19 N          -0.2794  -21.2501  -46.0464 N.am      11 UNK        -0.5000 
     20 C          -0.1434  -22.4427  -45.4515 C.2       10 UNK         0.5000 
     21 O          -0.4895  -23.5050  -45.9656 O.2       10 UNK        -0.5000 
     22 CA          0.4300  -22.4399  -44.0216 C.3       10 UNK         0.1400 
     23 CB          1.9595  -22.5479  -44.0410 C.3       10 UNK        -0.1800 
     24 N           0.0322  -21.2466  -43.2730 N.am      10 UNK        -0.5000 
     25 C          -1.2212  -21.0236  -42.8506 C.2       9 UNK         0.5000 
     26 O          -2.1419  -21.8254  -43.0024 O.2       9 UNK        -0.5000 
     27 CA         -1.5120  -19.6600  -42.2022 C.3       9 UNK         0.1400 
     28 CB         -1.2924  -19.7312  -40.6851 C.3       9 UNK        -0.1800 
     29 N          -0.7156  -18.5770  -42.7874 N.am      9 UNK        -0.5000 
     30 C          -0.8754  -18.1399  -44.0472 C.2       8 UNK         0.5000 
     31 O          -1.7067  -18.6286  -44.8144 O.2       8 UNK        -0.5000 
     32 CA          0.0556  -17.0269  -44.5745 C.3       8 UNK         0.1400 
     33 CB         -0.7138  -15.9554  -45.3757 C.3       8 UNK        -0.1800 
     34 N           0.9270  -16.4291  -43.5593 N.am      8 UNK        -0.5000 
     35 C           0.5932  -15.6377  -42.5299 C.2       7 UNK         0.5000 
     36 O          -0.5391  -15.1963  -42.3356 O.2       7 UNK        -0.5000 
     37 CA          1.7350  -15.3134  -41.5400 C.3       7 UNK         0.1400 
     38 CB          1.2239  -14.8489  -40.1600 C.3       7 UNK        -0.1800 
     39 N           2.6958  -16.4206  -41.4063 N.am      7 UNK        -0.5000 
     40 C           2.4229  -17.6555  -40.9597 C.2       6 UNK         0.5000 
     41 O           1.3066  -17.9984  -40.5738 O.2       6 UNK        -0.5000 
     42 CA          3.5749  -18.6807  -40.9905 C.3       6 UNK         0.1400 
     43 CB          3.1111  -20.1077  -40.6252 C.3       6 UNK        -0.1800 
     44 N           4.3063  -18.6991  -42.2617 N.am      6 UNK        -0.5000 
     45 C           3.8242  -18.9655  -43.4838 C.2       5 UNK         0.5000 
     46 O           2.6275  -19.1391  -43.7295 O.2       5 UNK        -0.5000 
     47 CA          4.8775  -19.0260  -44.6134 C.3       5 UNK         0.1400 
     48 CB          4.3208  -19.5971  -45.9259 C.3       5 UNK        -0.1800 
     49 N           5.4279  -17.7052  -44.8999 N.am      5 UNK        -0.5000 
     50 C           6.3099  -17.0322  -44.1511 C.2       4 UNK         0.5000 
     51 O           6.8479  -17.5003  -43.1463 O.2       4 UNK        -0.5000 
     52 CA          6.6118  -15.5793  -44.5764 C.3       4 UNK         0.1400 
     53 CB          7.9265  -15.5153  -45.3684 C.3       4 UNK        -0.1800 
     54 N           5.5467  -14.9434  -45.3653 N.am      4 UNK        -0.5000 
     55 C           4.2892  -14.7527  -44.9431 C.2       3 UNK         0.5000 
     56 O           3.8735  -15.1475  -43.8527 O.2       3 UNK        -0.5000 
     57 CA          3.3265  -14.0625  -45.9280 C.3       3 UNK         0.1400 
     58 CB          2.7699  -15.0914  -46.9270 C.3       3 UNK        -0.1800 
     59 N           2.2066  -13.4068  -45.2480 N.am      3 UNK        -0.5000 
     60 C           2.3150  -12.3732  -44.4006 C.2       2 UNK         0.5000 
     61 O           3.3829  -11.8167  -44.1368 O.2       2 UNK        -0.5000 
     62 CA          1.0004  -11.8818  -43.7531 C.3       2 UNK         0.1400 
     63 CB          1.1551  -10.5364  -43.0145 C.3       2 UNK        -0.1800 
     64 N          -0.1236  -11.8223  -44.6939 N.am      2 UNK        -0.5000 
     65 C          -0.1912  -11.1260  -45.8386 C.2       1 UNK         0.5000 
     66 O           0.7131  -10.4046  -46.2622 O.2       1 UNK        -0.5000 
     67 C          -2.4076  -21.3113  -47.3030 C.2       11 UNK         0.5000 
     68 O          -2.9412  -21.9730  -48.1939 O.2       11 UNK        -0.5000 
     69 N          -3.0592  -20.8414  -46.2284 N.am      12 UNK        -0.5000 
     70 CA         -4.4649  -21.1002  -45.9208 C.3       12 UNK         0.1400 
     71 CB         -4.9050  -20.2169  -44.7444 C.3       12 UNK        -0.1800 
     72 C          -4.7411  -22.5866  -45.6299 C.2       12 UNK         0.5000 
     73 O          -5.7315  -23.1219  -46.1265 O.2       12 UNK        -0.5000 
     74 N          -3.8417  -23.2448  -44.8826 N.am      13 UNK        -0.5000 
     75 CA         -3.8802  -24.6857  -44.6073 C.3       13 UNK         0.1400 
     76 CB         -2.8121  -25.0419  -43.5632 C.3       13 UNK        -0.1800 
     77 C          -3.7109  -25.5491  -45.8737 C.2       13 UNK         0.5000 
     78 O          -4.3030  -26.6251  -45.9591 O.2       13 UNK        -0.5000 
     79 N          -2.9512  -25.0390  -46.8525 N.am      14 UNK        -0.5000 
     80 CA         -2.7992  -25.6054  -48.1944 C.3       14 UNK         0.1400 
     81 CB         -1.4749  -25.1079  -48.7986 C.3       14 UNK        -0.1800 
     82 C          -3.9906  -25.3016  -49.1318 C.2       14 UNK         0.5000 
     83 O          -3.9443  -25.7033  -50.2929 O.2       14 UNK        -0.5000 
     84 N          -5.0239  -24.6109  -48.6240 N.am      15 UNK        -0.5000 
     85 CA         -6.2763  -24.2217  -49.2827 C.3       15 UNK         0.1400 
     86 CB         -7.0557  -25.4473  -49.8023 C.3       15 UNK        -0.1800 
     87 C          -6.1285  -23.0973  -50.3281 C.2       15 UNK         0.5000 
     88 O          -7.0573  -22.8696  -51.1053 O.2       15 UNK        -0.5000 
     89 N          -5.0004  -22.3732  -50.2822 N.am      16 UNK        -0.5000 
     90 CA         -4.6893  -21.1562  -51.0342 C.3       16 UNK         0.1400 
     91 CB         -5.4216  -19.9580  -50.3918 C.3       16 UNK        -0.1800 
     92 C          -4.9096  -21.2822  -52.5597 C.2       16 UNK         0.5000 
     93 O          -4.6162  -22.3305  -53.1403 O.2       16 UNK        -0.5000 
     94 N          -5.3923  -20.2068  -53.1972 N.am      17 UNK        -0.5000 
     95 CA         -5.5911  -20.0813  -54.6433 C.3       17 UNK         0.1400 
     96 CB         -6.0717  -18.6583  -54.9607 C.3       17 UNK        -0.1800 
     97 C          -6.5444  -21.1246  -55.2548 C.2       17 UNK         0.5000 
     98 O          -6.3651  -21.4865  -56.4176 O.2       17 UNK        -0.5000 
     99 N          -7.4976  -21.6312  -54.4597 N.am      18 UNK        -0.5000 
    100 CA        -8.4353  -22.6878  -54.8518 C.3       18 UNK         0.1400 
    101 CB        -9.5230  -22.8238  -53.7758 C.3       18 UNK        -0.1800 
    102 C         -7.7571  -24.0485  -55.1155 C.2       18 UNK         0.5000 
    103 O         -8.3004  -24.8541  -55.8721 O.2       18 UNK        -0.5000 
    104 N         -6.5815  -24.2674  -54.5129 N.am      19 UNK        -0.5000 
    105 CA        -5.7337  -25.4448  -54.7039 C.3       19 UNK         0.1400 
    106 CB        -5.4682  -26.0710  -53.3284 C.3       19 UNK        -0.1800 
    107 C         -4.4175  -25.0922  -55.4264 C.2       19 UNK         0.5000 
    108 O         -3.5037  -25.9176  -55.4524 O.2       19 UNK        -0.5000 
    109 N         -4.3366  -23.8770  -55.9921 N.am      20 UNK        -0.5000 
    110 CA        -3.1852  -23.2885  -56.6868 C.3       20 UNK         0.1400 
    111 CB        -2.8523  -24.0742  -57.9724 C.3       20 UNK        -0.1800 
    112 C         -1.9496  -23.0639  -55.7844 C.2       20 UNK         0.5000 
    113 O         -0.8335  -22.9519  -56.2936 O.2       20 UNK        -0.5000 
    114 N         -2.1678  -22.9555  -54.4664 N.am      21 UNK        -0.5000 
    115 CA        -1.1481  -22.6388  -53.4621 C.3       21 UNK         0.1400 
    116 CB        -1.4841  -23.3852  -52.1588 C.3       21 UNK        -0.1800 
    117 C         -1.0225  -21.1203  -53.2158 C.2       21 UNK         0.5000 
    118 O         -0.2170  -20.7091  -52.3794 O.2       21 UNK        -0.5000 
    119 N         -1.8307  -20.3168  -53.9244 N.am      22 UNK        -0.5000 
    120 CA        -1.9170  -18.8447  -53.8951 C.3       22 UNK         0.1400 
    121 C         -2.4610  -18.2557  -52.5586 C.2       22 UNK         0.5000 
    122 N         -2.0369  -18.7515  -51.4067 N.am      22 UNK        -0.7600 
    123 O         -3.3197  -17.3790  -52.5707 O.2       22 UNK        -0.5000 
    124 C124       -0.5937  -18.1867  -54.3749 C.3       23 UNK        -0.0398 
    125 S125       -0.6717  -16.3754  -54.6106 S.3       23 UNK        -0.2404 
    126 C126        0.7064  -15.7970  -53.5644 C.3       23 UNK        -0.0205 
    127 H127       -4.5695   -9.3842  -44.8362 H         1 UNK         0.0600 
    128 H128       -4.1745  -10.0091  -43.2324 H         1 UNK         0.0600 
    129 H129       -5.3224  -10.8740  -44.2599 H         1 UNK         0.0600 
    130 H130       -2.9443   -9.7503  -46.2848 H         1 UNK         0.3000 
    131 H131       -1.3801  -10.6020  -47.5215 H         1 UNK         0.0600 
    132 H132       -2.7646  -12.6901  -47.6446 H         1 UNK         0.0800 
    133 H133       -1.8444  -13.3891  -46.3421 H         1 UNK         0.0800 
    134 H134       -2.2635  -14.1614  -49.7988 H         1 UNK         0.0800 
    135 H135       -2.0038  -15.1850  -48.4057 H         1 UNK         0.0800 
    136 H136       -0.8372  -14.3915  -51.8089 H         1 UNK         0.1150 
    137 H137        1.7297  -17.8157  -52.0416 H         1 UNK         0.1150 
    138 H138       -0.1304  -16.7597  -48.3234 H         1 UNK         0.1150 
    139 H139        2.6156  -18.5569  -49.5811 H         1 UNK         0.0800 
    140 H140        1.2969  -19.5542  -50.1454 H         1 UNK         0.0800 
    141 H141       -0.9549  -19.5458  -48.9488 H         1 UNK         0.0800 
    142 H142       -1.2259  -18.8564  -47.3738 H         1 UNK         0.0800 
    143 H143       -0.4480  -21.7375  -48.0557 H         1 UNK         0.0600 
    144 H144        0.0261  -20.4256  -45.5519 H         1 UNK         0.3000 
    145 H145        0.0389  -23.3168  -43.5021 H         1 UNK         0.0600 
    146 H146        2.4083  -21.6982  -44.5506 H         1 UNK         0.0600 
    147 H147        2.2812  -23.4513  -44.5606 H         1 UNK         0.0600 
    148 H148        2.3673  -22.5879  -43.0309 H         1 UNK         0.0600 
    149 H149        0.7327  -20.5273  -43.1439 H         1 UNK         0.3000 
    150 H150       -2.5646  -19.4269  -42.3754 H         1 UNK         0.0600 
    151 H151       -0.2824  -20.0598  -40.4383 H         1 UNK         0.0600 
    152 H152       -1.9836  -20.4399  -40.2274 H         1 UNK         0.0600 
    153 H153       -1.4583  -18.7626  -40.2132 H         1 UNK         0.0600 
    154 H154       -0.0010  -18.1661  -42.1967 H         1 UNK         0.3000 
    155 H155        0.7312  -17.5258  -45.2691 H         1 UNK         0.0600 
    156 H156       -1.4542  -15.4402  -44.7639 H         1 UNK         0.0600 
    157 H157       -1.2496  -16.4041  -46.2124 H         1 UNK         0.0600 
    158 H158       -0.0412  -15.2080  -45.7921 H         1 UNK         0.0600 
    159 H159        1.8894  -16.7405  -43.5925 H         1 UNK         0.3000 
    160 H160        2.2829  -14.4754  -41.9702 H         1 UNK         0.0600 
    161 H161        0.5885  -15.5978  -39.6865 H         1 UNK         0.0600 
    162 H162        0.6362  -13.9346  -40.2500 H         1 UNK         0.0600 
    163 H163        2.0521  -14.6351  -39.4845 H         1 UNK         0.0600 
    164 H164        3.6161  -16.2351  -41.7847 H         1 UNK         0.3000 
    165 H165        4.2868  -18.3604  -40.2287 H         1 UNK         0.0600 
    166 H166        2.6654  -20.1318  -39.6301 H         1 UNK         0.0600 
    167 H167        2.3650  -20.4843  -41.3255 H         1 UNK         0.0600 
    168 H168        3.9482  -20.8057  -40.6212 H         1 UNK         0.0600 
    169 H169        5.2972  -18.4880  -42.2013 H         1 UNK         0.3000 
    170 H170        5.6843  -19.6818  -44.2796 H         1 UNK         0.0600 
    171 H171        5.0978  -19.6644  -46.6875 H         1 UNK         0.0600 
    172 H172        3.9210  -20.6003  -45.7883 H         1 UNK         0.0600 
    173 H173        3.5239  -18.9687  -46.3196 H         1 UNK         0.0600 
    174 H174        5.0274  -17.2217  -45.6893 H         1 UNK         0.3000 
    175 H175        6.7349  -14.9965  -43.6613 H         1 UNK         0.0600 
    176 H176        8.7476  -15.9548  -44.8003 H         1 UNK         0.0600 
    177 H177        7.8538  -16.0568  -46.3125 H         1 UNK         0.0600 
    178 H178        8.2040  -14.4849  -45.5914 H         1 UNK         0.0600 
    179 H179        5.8107  -14.6081  -46.2806 H         1 UNK         0.3000 
    180 H180        3.8787  -13.2979  -46.4780 H         1 UNK         0.0600 
    181 H181        2.2408  -15.9007  -46.4235 H         1 UNK         0.0600 
    182 H182        3.5706  -15.5445  -47.5126 H         1 UNK         0.0600 
    183 H183        2.0812  -14.6288  -47.6337 H         1 UNK         0.0600 
    184 H184        1.2916  -13.7968  -45.4112 H         1 UNK         0.3000 
    185 H185        0.7308  -12.6296  -43.0072 H         1 UNK         0.0600 
    186 H186        1.9034  -10.6074  -42.2242 H         1 UNK         0.0600 
    187 H187        1.4653   -9.7374  -43.6886 H         1 UNK         0.0600 
    188 H188        0.2183  -10.2347  -42.5459 H         1 UNK         0.0600 
    189 H189       -0.9655  -12.3162  -44.4113 H         1 UNK         0.3000 
    190 H190       -2.5518  -20.2553  -45.5723 H         1 UNK         0.3000 
    191 H191       -5.0536  -20.8181  -46.7963 H         1 UNK         0.0600 
    192 H192       -4.7483  -19.1606  -44.9644 H         1 UNK         0.0600 
    193 H193       -5.9661  -20.3523  -44.5314 H         1 UNK         0.0600 
    194 H194       -4.3551  -20.4531  -43.8335 H         1 UNK         0.0600 
    195 H195       -3.0920  -22.7191  -44.4423 H         1 UNK         0.3000 
    196 H196       -4.8593  -24.9148  -44.1817 H         1 UNK         0.0600 
    197 H197       -2.8549  -26.1013  -43.3074 H         1 UNK         0.0600 
    198 H198       -2.9569  -24.4791  -42.6410 H         1 UNK         0.0600 
    199 H199       -1.8073  -24.8345  -43.9301 H         1 UNK         0.0600 
    200 H200       -2.4510  -24.1764  -46.6736 H         1 UNK         0.3000 
    201 H201       -2.7361  -26.6916  -48.1048 H         1 UNK         0.0600 
    202 H202       -1.2875  -25.5684  -49.7693 H         1 UNK         0.0600 
    203 H203       -0.6304  -25.3561  -48.1555 H         1 UNK         0.0600 
    204 H204       -1.4769  -24.0284  -48.9450 H         1 UNK         0.0600 
    205 H205       -4.9507  -24.2984  -47.6629 H         1 UNK         0.3000 
    206 H206       -6.8868  -23.7821  -48.4934 H         1 UNK         0.0600 
    207 H207       -7.2244  -26.1703  -49.0044 H         1 UNK         0.0600 
    208 H208       -8.0340  -25.1592  -50.1884 H         1 UNK         0.0600 
    209 H209       -6.5265  -25.9559  -50.6052 H         1 UNK         0.0600 
    210 H210       -4.3040  -22.6307  -49.5908 H         1 UNK         0.3000 
    211 H211       -3.6191  -20.9969  -50.9021 H         1 UNK         0.0600 
    212 H212       -5.2251  -19.9141  -49.3202 H         1 UNK         0.0600 
    213 H213       -5.0858  -19.0083  -50.8093 H         1 UNK         0.0600 
    214 H214       -6.5020  -20.0243  -50.5270 H         1 UNK         0.0600 
    215 H215       -5.6041  -19.3855  -52.6485 H         1 UNK         0.3000 
    216 H216       -4.6196  -20.2234  -55.1192 H         1 UNK         0.0600 
    217 H217       -7.0277  -18.4414  -54.4826 H         1 UNK         0.0600 
    218 H218       -6.2022  -18.5190  -56.0348 H         1 UNK         0.0600 
    219 H219       -5.3507  -17.9131  -54.6237 H         1 UNK         0.0600 
    220 H220       -7.5467  -21.3151  -53.5014 H         1 UNK         0.3000 
    221 H221       -8.9159  -22.3783  -55.7823 H         1 UNK         0.0600 
    222 H222       -9.1053  -23.1351  -52.8181 H         1 UNK         0.0600 
    223 H223      -10.0492  -21.8814  -53.6233 H         1 UNK         0.0600 
    224 H224      -10.2668  -23.5675  -54.0649 H         1 UNK         0.0600 
    225 H225       -6.2026  -23.5485  -53.9050 H         1 UNK         0.3000 
    226 H226       -6.2381  -26.1890  -55.3229 H         1 UNK         0.0600 
    227 H227       -6.4000  -26.3967  -52.8677 H         1 UNK         0.0600 
    228 H228       -4.8215  -26.9462  -53.3998 H         1 UNK         0.0600 
    229 H229       -4.9885  -25.3566  -52.6589 H         1 UNK         0.0600 
    230 H230       -5.1546  -23.2832  -55.9377 H         1 UNK         0.3000 
    231 H231       -3.5077  -22.2926  -56.9936 H         1 UNK         0.0600 
    232 H232       -2.4422  -25.0600  -57.7520 H         1 UNK         0.0600 
    233 H233       -2.1154  -23.5435  -58.5763 H         1 UNK         0.0600 
    234 H234       -3.7387  -24.2096  -58.5922 H         1 UNK         0.0600 
    235 H235       -3.1209  -23.0212  -54.1181 H         1 UNK         0.3000 
    236 H236       -0.1736  -22.9905  -53.8063 H         1 UNK         0.0600 
    237 H237       -2.4336  -23.0621  -51.7336 H         1 UNK         0.0600 
    238 H238       -1.5478  -24.4606  -52.3263 H         1 UNK         0.0600 
    239 H239       -0.7159  -23.2211  -51.4022 H         1 UNK         0.0600 
    240 H240       -2.4669  -20.7734  -54.5586 H         1 UNK         0.3000 
    241 H241       -2.6706  -18.6005  -54.6449 H         1 UNK         0.0600 
    242 H242       -2.3658  -18.3514  -50.5452 H         1 UNK         0.3800 
    243 H243       -1.2981  -19.4468  -51.4223 H         1 UNK         0.3800 
    244 H244       -0.3095  -18.6179  -55.3355 H         1 UNK         0.0800 
    245 H245        0.2202  -18.4399  -53.6989 H         1 UNK         0.0800 
    246 H246        0.8350  -14.7242  -53.7151 H         1 UNK         0.0800 
    247 H247        1.6345  -16.2624  -53.9001 H         1 UNK         0.0800 
@<TRIPOS>BOND
     1    1    2 1    
     2    1  127 1    
     3    1  128 1    
     4    1  129 1    
     5    2    3 2    
     6    2    4 am   BACKBONE|DICT|INTERRES
     7    4    5 1    
     8    4  130 1    
     9    5    6 1    
    10    5   65 1    
    11    5  131 1    
    12    6    7 1    
    13    6  132 1    
    14    6  133 1    
    15    7    8 1    
    16    8    9 1    
    17    8  134 1    
    18    8  135 1    
    19    9   10 ar   
    20    9   14 ar   
    21   10   11 ar   
    22   10  136 1    
    23   11   12 ar   
    24   11  126 1    
    25   12   13 ar   
    26   12  137 1    
    27   13   14 ar   
    28   13   15 1    
    29   14  138 1    
    30   15   16 1    
    31   15  139 1    
    32   15  140 1    
    33   16   17 1    
    34   17   18 1    
    35   17  141 1    
    36   17  142 1    
    37   18   19 1    
    38   18   67 1    
    39   18  143 1    
    40   19   20 am   BACKBONE|DICT|INTERRES
    41   19  144 1    
    42   20   21 2    
    43   20   22 1    
    44   22   23 1    
    45   22   24 1    
    46   22  145 1    
    47   23  146 1    
    48   23  147 1    
    49   23  148 1    
    50   24   25 am   BACKBONE|DICT|INTERRES
    51   24  149 1    
    52   25   26 2    
    53   25   27 1    
    54   27   28 1    
    55   27   29 1    
    56   27  150 1    
    57   28  151 1    
    58   28  152 1    
    59   28  153 1    
    60   29   30 am   BACKBONE|DICT|INTERRES
    61   29  154 1    
    62   30   31 2    
    63   30   32 1    
    64   32   33 1    
    65   32   34 1    
    66   32  155 1    
    67   33  156 1    
    68   33  157 1    
    69   33  158 1    
    70   34   35 am   BACKBONE|DICT|INTERRES
    71   34  159 1    
    72   35   36 2    
    73   35   37 1    
    74   37   38 1    
    75   37   39 1    
    76   37  160 1    
    77   38  161 1    
    78   38  162 1    
    79   38  163 1    
    80   39   40 am   BACKBONE|DICT|INTERRES
    81   39  164 1    
    82   40   41 2    
    83   40   42 1    
    84   42   43 1    
    85   42   44 1    
    86   42  165 1    
    87   43  166 1    
    88   43  167 1    
    89   43  168 1    
    90   44   45 am   BACKBONE|DICT|INTERRES
    91   44  169 1    
    92   45   46 2    
    93   45   47 1    
    94   47   48 1    
    95   47   49 1    
    96   47  170 1    
    97   48  171 1    
    98   48  172 1    
    99   48  173 1    
   100   49   50 am   BACKBONE|DICT|INTERRES
   101   49  174 1    
   102   50   51 2    
   103   50   52 1    
   104   52   53 1    
   105   52   54 1    
   106   52  175 1    
   107   53  176 1    
   108   53  177 1    
   109   53  178 1    
   110   54   55 am   BACKBONE|DICT|INTERRES
   111   54  179 1    
   112   55   56 2    
   113   55   57 1    
   114   57   58 1    
   115   57   59 1    
   116   57  180 1    
   117   58  181 1    
   118   58  182 1    
   119   58  183 1    
   120   59   60 am   BACKBONE|DICT|INTERRES
   121   59  184 1    
   122   60   61 2    
   123   60   62 1    
   124   62   63 1    
   125   62   64 1    
   126   62  185 1    
   127   63  186 1    
   128   63  187 1    
   129   63  188 1    
   130   64   65 am   BACKBONE|DICT|INTERRES
   131   64  189 1    
   132   65   66 2    
   133   67   68 2    
   134   67   69 am   BACKBONE|DICT|INTERRES
   135   69   70 1    
   136   69  190 1    
   137   70   71 1    
   138   70   72 1    
   139   70  191 1    
   140   71  192 1    
   141   71  193 1    
   142   71  194 1    
   143   72   73 2    
   144   72   74 am   BACKBONE|DICT|INTERRES
   145   74   75 1    
   146   74  195 1    
   147   75   76 1    
   148   75   77 1    
   149   75  196 1    
   150   76  197 1    
   151   76  198 1    
   152   76  199 1    
   153   77   78 2    
   154   77   79 am   BACKBONE|DICT|INTERRES
   155   79   80 1    
   156   79  200 1    
   157   80   81 1    
   158   80   82 1    
   159   80  201 1    
   160   81  202 1    
   161   81  203 1    
   162   81  204 1    
   163   82   83 2    
   164   82   84 am   BACKBONE|DICT|INTERRES
   165   84   85 1    
   166   84  205 1    
   167   85   86 1    
   168   85   87 1    
   169   85  206 1    
   170   86  207 1    
   171   86  208 1    
   172   86  209 1    
   173   87   88 2    
   174   87   89 am   BACKBONE|DICT|INTERRES
   175   89   90 1    
   176   89  210 1    
   177   90   91 1    
   178   90   92 1    
   179   90  211 1    
   180   91  212 1    
   181   91  213 1    
   182   91  214 1    
   183   92   93 2    
   184   92   94 am   BACKBONE|DICT|INTERRES
   185   94   95 1    
   186   94  215 1    
   187   95   96 1    
   188   95   97 1    
   189   95  216 1    
   190   96  217 1    
   191   96  218 1    
   192   96  219 1    
   193   97   98 2    
   194   97   99 am   BACKBONE|DICT|INTERRES
   195   99  100 1    
   196   99  220 1    
   197  100  101 1    
   198  100  102 1    
   199  100  221 1    
   200  101  222 1    
   201  101  223 1    
   202  101  224 1    
   203  102  103 2    
   204  102  104 am   BACKBONE|DICT|INTERRES
   205  104  105 1    
   206  104  225 1    
   207  105  106 1    
   208  105  107 1    
   209  105  226 1    
   210  106  227 1    
   211  106  228 1    
   212  106  229 1    
   213  107  108 2    
   214  107  109 am   BACKBONE|DICT|INTERRES
   215  109  110 1    
   216  109  230 1    
   217  110  111 1    
   218  110  112 1    
   219  110  231 1    
   220  111  232 1    
   221  111  233 1    
   222  111  234 1    
   223  112  113 2    
   224  112  114 am   BACKBONE|DICT|INTERRES
   225  114  115 1    
   226  114  235 1    
   227  115  116 1    
   228  115  117 1    
   229  115  236 1    
   230  116  237 1    
   231  116  238 1    
   232  116  239 1    
   233  117  118 2    
   234  117  119 am   BACKBONE|DICT|INTERRES
   235  119  120 1    
   236  119  240 1    
   237  120  121 1    
   238  120  124 1    
   239  120  241 1    
   240  121  122 am   BACKBONE|DICT|INTERRES
   241  121  123 2    
   242  122  242 1    
   243  122  243 1    
   244  124  125 1    
   245  124  244 1    
   246  124  245 1    
   247  125  126 1    
   248  126  246 1    
   249  126  247 1    
@<TRIPOS>SUBSTRUCTURE
     1 UNK         1 GROUP             0       ****    0 ROOT    
