@<TRIPOS>MOLECULE
3R540
247   249    1
SMALL
USER_CHARGES


@<TRIPOS>ATOM
      1 CA          2.7022   -8.6220  -50.8462 C.3       0 UNK        -0.1800 
      2 C           3.3603   -9.3491  -49.6821 C.2       0 UNK         0.5000 
      3 O           4.5405   -9.1277  -49.4104 O.2       0 UNK        -0.5000 
      4 N           2.6025  -10.2155  -48.9972 N.am      1 UNK        -0.5000 
      5 CA          3.0579  -11.0102  -47.8473 C.3       1 UNK         0.1400 
      6 C6          2.0656  -12.1452  -47.4979 C.3       23 UNK        -0.0398 
      7 S7          1.7814  -13.2855  -48.8921 S.3       23 UNK        -0.2404 
      8 C8          1.5679  -14.8597  -48.0062 C.3       23 UNK        -0.0205 
      9 C9          0.7633  -15.8548  -48.8275 C.ar      23 UNK        -0.0193 
     10 C10        -0.5782  -15.5887  -49.1214 C.ar      23 UNK        -0.1150 
     11 C11        -1.3366  -16.4953  -49.8649 C.ar      23 UNK        -0.0193 
     12 C12        -0.7463  -17.6818  -50.3052 C.ar      23 UNK        -0.1150 
     13 C13         0.5918  -17.9623  -50.0193 C.ar      23 UNK        -0.0193 
     14 C14         1.3444  -17.0439  -49.2803 C.ar      23 UNK        -0.1150 
     15 C15         1.2219  -19.2500  -50.5299 C.3       23 UNK        -0.0205 
     16 S16         1.2844  -20.5440  -49.2530 S.3       23 UNK        -0.2404 
     17 C17        -0.4873  -20.8388  -48.9305 C.3       23 UNK        -0.0398 
     18 CA         -0.7056  -22.0833  -48.0403 C.3       11 UNK         0.1400 
     19 N          -0.1802  -21.9087  -46.6824 N.am      11 UNK        -0.5000 
     20 C          -0.0651  -22.8956  -45.7830 C.2       10 UNK         0.5000 
     21 O          -0.3438  -24.0702  -46.0219 O.2       10 UNK        -0.5000 
     22 CA          0.3900  -22.5032  -44.3659 C.3       10 UNK         0.1400 
     23 CB          1.9143  -22.3249  -44.3059 C.3       10 UNK        -0.1800 
     24 N          -0.2766  -21.2960  -43.8746 N.am      10 UNK        -0.5000 
     25 C          -1.5936  -21.2038  -43.6400 C.2       9 UNK         0.5000 
     26 O          -2.3744  -22.1460  -43.7685 O.2       9 UNK        -0.5000 
     27 CA         -2.1433  -19.8233  -43.2340 C.3       9 UNK         0.1400 
     28 CB         -1.9322  -19.5679  -41.7346 C.3       9 UNK        -0.1800 
     29 N          -1.5607  -18.7271  -44.0073 N.am      9 UNK        -0.5000 
     30 C          -1.6805  -18.5814  -45.3350 C.2       8 UNK         0.5000 
     31 O          -2.3340  -19.3380  -46.0519 O.2       8 UNK        -0.5000 
     32 CA         -0.8806  -17.4334  -45.9749 C.3       8 UNK         0.1400 
     33 CB         -1.6044  -16.0908  -45.7842 C.3       8 UNK        -0.1800 
     34 N           0.4854  -17.3528  -45.4494 N.am      8 UNK        -0.5000 
     35 C           1.3926  -18.3339  -45.5758 C.2       7 UNK         0.5000 
     36 O           1.1839  -19.3832  -46.1804 O.2       7 UNK        -0.5000 
     37 CA          2.7282  -18.1509  -44.8376 C.3       7 UNK         0.1400 
     38 CB          3.6974  -17.2721  -45.6414 C.3       7 UNK        -0.1800 
     39 N           2.5304  -17.5956  -43.4990 N.am      7 UNK        -0.5000 
     40 C           1.9750  -18.2770  -42.4850 C.2       6 UNK         0.5000 
     41 O           1.6311  -19.4555  -42.5653 O.2       6 UNK        -0.5000 
     42 CA          1.7216  -17.5065  -41.1756 C.3       6 UNK         0.1400 
     43 CB          2.9530  -17.5789  -40.2608 C.3       6 UNK        -0.1800 
     44 N           1.3694  -16.1046  -41.3999 N.am      6 UNK        -0.5000 
     45 C           0.2674  -15.6824  -42.0372 C.2       5 UNK         0.5000 
     46 O          -0.6125  -16.4389  -42.4467 O.2       5 UNK        -0.5000 
     47 CA          0.1610  -14.1685  -42.3074 C.3       5 UNK         0.1400 
     48 CB         -0.6450  -13.4755  -41.1998 C.3       5 UNK        -0.1800 
     49 N           1.4723  -13.5251  -42.4239 N.am      5 UNK        -0.5000 
     50 C           2.3561  -13.7547  -43.4023 C.2       4 UNK         0.5000 
     51 O           2.1123  -14.4809  -44.3676 O.2       4 UNK        -0.5000 
     52 CA          3.7464  -13.1018  -43.2400 C.3       4 UNK         0.1400 
     53 CB          4.7027  -13.4398  -44.3978 C.3       4 UNK        -0.1800 
     54 N           3.6842  -11.6474  -43.0580 N.am      4 UNK        -0.5000 
     55 C           3.3502  -11.0287  -41.9141 C.2       3 UNK         0.5000 
     56 O           3.0066  -11.6379  -40.8993 O.2       3 UNK        -0.5000 
     57 CA          3.4070   -9.4883  -41.8680 C.3       3 UNK         0.1400 
     58 CB          4.6409   -9.0234  -41.0788 C.3       3 UNK        -0.1800 
     59 N           3.4280   -8.8519  -43.1840 N.am      3 UNK        -0.5000 
     60 C           2.3760   -8.7437  -44.0046 C.2       2 UNK         0.5000 
     61 O           1.2525   -9.1713  -43.7358 O.2       2 UNK        -0.5000 
     62 CA          2.6166   -8.0629  -45.3688 C.3       2 UNK         0.1400 
     63 CB          3.9162   -7.2291  -45.4399 C.3       2 UNK        -0.1800 
     64 N           2.5742   -9.0309  -46.4677 N.am      2 UNK        -0.5000 
     65 C           3.3184  -10.1410  -46.5987 C.2       1 UNK         0.5000 
     66 O           4.1752  -10.4926  -45.7866 O.2       1 UNK        -0.5000 
     67 C          -2.1883  -22.5061  -48.0259 C.2       11 UNK         0.5000 
     68 O          -2.5608  -23.4091  -48.7751 O.2       11 UNK        -0.5000 
     69 N          -2.9981  -21.8929  -47.1498 N.am      12 UNK        -0.5000 
     70 CA         -4.3948  -22.2609  -46.9136 C.3       12 UNK         0.1400 
     71 CB         -5.0551  -21.2577  -45.9571 C.3       12 UNK        -0.1800 
     72 C          -4.5496  -23.7071  -46.4108 C.2       12 UNK         0.5000 
     73 O          -5.3580  -24.4527  -46.9667 O.2       12 UNK        -0.5000 
     74 N          -3.7336  -24.0883  -45.4165 N.am      13 UNK        -0.5000 
     75 CA         -3.6589  -25.4408  -44.8583 C.3       13 UNK         0.1400 
     76 CB         -2.7182  -25.4479  -43.6444 C.3       13 UNK        -0.1800 
     77 C          -3.2298  -26.5037  -45.8876 C.2       13 UNK         0.5000 
     78 O          -3.7472  -27.6204  -45.8541 O.2       13 UNK        -0.5000 
     79 N          -2.3520  -26.1274  -46.8274 N.am      14 UNK        -0.5000 
     80 CA         -1.9245  -26.9250  -47.9812 C.3       14 UNK         0.1400 
     81 CB         -0.5635  -26.3979  -48.4704 C.3       14 UNK        -0.1800 
     82 C          -2.9802  -26.9656  -49.1124 C.2       14 UNK         0.5000 
     83 O          -2.6288  -26.8598  -50.2894 O.2       14 UNK        -0.5000 
     84 N          -4.2594  -27.1103  -48.7363 N.am      15 UNK        -0.5000 
     85 CA         -5.4487  -27.1853  -49.5899 C.3       15 UNK         0.1400 
     86 CB         -5.4811  -28.5372  -50.3327 C.3       15 UNK        -0.1800 
     87 C          -5.5856  -25.9787  -50.5404 C.2       15 UNK         0.5000 
     88 O          -5.8663  -26.1609  -51.7253 O.2       15 UNK        -0.5000 
     89 N          -5.3424  -24.7702  -50.0120 N.am      16 UNK        -0.5000 
     90 CA         -5.3007  -23.4961  -50.7407 C.3       16 UNK         0.1400 
     91 CB         -6.7102  -23.1025  -51.2288 C.3       16 UNK        -0.1800 
     92 C          -4.2449  -23.4931  -51.8654 C.2       16 UNK         0.5000 
     93 O          -4.5441  -23.1101  -52.9972 O.2       16 UNK        -0.5000 
     94 N          -3.0362  -23.9616  -51.5259 N.am      17 UNK        -0.5000 
     95 CA         -1.8880  -24.2119  -52.4034 C.3       17 UNK         0.1400 
     96 CB         -1.2961  -22.8823  -52.9124 C.3       17 UNK        -0.1800 
     97 C          -2.2257  -25.1965  -53.5437 C.2       17 UNK         0.5000 
     98 O          -1.8458  -24.9662  -54.6919 O.2       17 UNK        -0.5000 
     99 N          -2.9636  -26.2615  -53.1973 N.am      18 UNK        -0.5000 
    100 CA        -3.5903  -27.2351  -54.0981 C.3       18 UNK         0.1400 
    101 CB        -2.5259  -28.0961  -54.8098 C.3       18 UNK        -0.1800 
    102 C         -4.5910  -26.5655  -55.0675 C.2       18 UNK         0.5000 
    103 O         -4.5123  -26.7615  -56.2820 O.2       18 UNK        -0.5000 
    104 N         -5.5121  -25.7828  -54.4873 N.am      19 UNK        -0.5000 
    105 CA        -6.5832  -25.0121  -55.1249 C.3       19 UNK         0.1400 
    106 CB        -7.6599  -25.9614  -55.6905 C.3       19 UNK        -0.1800 
    107 C         -6.0677  -23.9905  -56.1610 C.2       19 UNK         0.5000 
    108 O         -6.5688  -23.9459  -57.2871 O.2       19 UNK        -0.5000 
    109 N         -5.0692  -23.1935  -55.7620 N.am      20 UNK        -0.5000 
    110 CA        -4.4083  -22.1990  -56.6097 C.3       20 UNK         0.1400 
    111 CB        -3.0579  -22.7636  -57.0803 C.3       20 UNK        -0.1800 
    112 C         -4.2133  -20.8336  -55.9240 C.2       20 UNK         0.5000 
    113 O         -3.8484  -19.8810  -56.6158 O.2       20 UNK        -0.5000 
    114 N         -4.4367  -20.7381  -54.6066 N.am      21 UNK        -0.5000 
    115 CA        -4.2203  -19.5265  -53.8151 C.3       21 UNK         0.1400 
    116 CB        -2.8539  -19.6203  -53.1094 C.3       21 UNK        -0.1800 
    117 C         -5.3871  -19.2725  -52.8420 C.2       21 UNK         0.5000 
    118 O         -6.4894  -19.7829  -53.0501 O.2       21 UNK        -0.5000 
    119 N         -5.1279  -18.4451  -51.8212 N.am      22 UNK        -0.5000 
    120 CA        -6.0916  -17.9760  -50.8105 C.3       22 UNK         0.1400 
    121 C         -6.6580  -19.0661  -49.8564 C.2       22 UNK         0.5000 
    122 N         -5.9628  -20.1732  -49.6396 N.am      22 UNK        -0.7600 
    123 O         -7.7457  -18.9035  -49.3103 O.2       22 UNK        -0.5000 
    124 C124       -5.5283  -16.7704  -50.0100 C.3       23 UNK        -0.0398 
    125 S125       -3.9392  -17.1163  -49.1660 S.3       23 UNK        -0.2404 
    126 C126       -2.7825  -16.1865  -50.2167 C.3       23 UNK        -0.0205 
    127 H127        3.2336   -8.8392  -51.7727 H         1 UNK         0.0600 
    128 H128        2.7304   -7.5451  -50.6799 H         1 UNK         0.0600 
    129 H129        1.6610   -8.9194  -50.9739 H         1 UNK         0.0600 
    130 H130        1.6494  -10.3783  -49.2898 H         1 UNK         0.3000 
    131 H131        4.0109  -11.4700  -48.1184 H         1 UNK         0.0600 
    132 H132        1.1009  -11.7369  -47.1909 H         1 UNK         0.0800 
    133 H133        2.4347  -12.7203  -46.6475 H         1 UNK         0.0800 
    134 H134        2.5518  -15.2601  -47.7609 H         1 UNK         0.0800 
    135 H135        1.0574  -14.6884  -47.0582 H         1 UNK         0.0800 
    136 H136       -1.0281  -14.6693  -48.7740 H         1 UNK         0.1150 
    137 H137       -1.3298  -18.3926  -50.8688 H         1 UNK         0.1150 
    138 H138        2.3789  -17.2607  -49.0543 H         1 UNK         0.1150 
    139 H139        0.6797  -19.6259  -51.3991 H         1 UNK         0.0800 
    140 H140        2.2373  -19.0453  -50.8719 H         1 UNK         0.0800 
    141 H141       -0.9891  -20.9585  -49.8923 H         1 UNK         0.0800 
    142 H142       -0.9167  -19.9524  -48.4600 H         1 UNK         0.0800 
    143 H143       -0.1550  -22.9112  -48.4924 H         1 UNK         0.0600 
    144 H144        0.1298  -20.9727  -46.4324 H         1 UNK         0.3000 
    145 H145        0.1234  -23.3229  -43.6956 H         1 UNK         0.0600 
    146 H146        2.4252  -23.2291  -44.6389 H         1 UNK         0.0600 
    147 H147        2.2519  -21.5059  -44.9405 H         1 UNK         0.0600 
    148 H148        2.2472  -22.1191  -43.2885 H         1 UNK         0.0600 
    149 H149        0.3135  -20.4902  -43.6960 H         1 UNK         0.3000 
    150 H150       -3.2177  -19.8249  -43.4273 H         1 UNK         0.0600 
    151 H151       -2.4069  -20.3468  -41.1366 H         1 UNK         0.0600 
    152 H152       -2.3653  -18.6145  -41.4317 H         1 UNK         0.0600 
    153 H153       -0.8746  -19.5530  -41.4729 H         1 UNK         0.0600 
    154 H154       -1.0423  -18.0250  -43.4871 H         1 UNK         0.3000 
    155 H155       -0.8123  -17.6372  -47.0451 H         1 UNK         0.0600 
    156 H156       -1.0459  -15.2665  -46.2240 H         1 UNK         0.0600 
    157 H157       -1.7658  -15.8583  -44.7322 H         1 UNK         0.0600 
    158 H158       -2.5823  -16.1117  -46.2670 H         1 UNK         0.0600 
    159 H159        0.7306  -16.5274  -44.9207 H         1 UNK         0.3000 
    160 H160        3.1862  -19.1368  -44.7325 H         1 UNK         0.0600 
    161 H161        3.3173  -16.2606  -45.7714 H         1 UNK         0.0600 
    162 H162        3.8644  -17.6881  -46.6358 H         1 UNK         0.0600 
    163 H163        4.6676  -17.2041  -45.1495 H         1 UNK         0.0600 
    164 H164        2.7424  -16.6163  -43.3766 H         1 UNK         0.3000 
    165 H165        0.8851  -17.9858  -40.6632 H         1 UNK         0.0600 
    166 H166        2.7594  -17.1017  -39.3000 H         1 UNK         0.0600 
    167 H167        3.2273  -18.6151  -40.0581 H         1 UNK         0.0600 
    168 H168        3.8192  -17.0918  -40.7103 H         1 UNK         0.0600 
    169 H169        2.0321  -15.4127  -41.0834 H         1 UNK         0.3000 
    170 H170       -0.3684  -14.0375  -43.2536 H         1 UNK         0.0600 
    171 H171       -1.6368  -13.9192  -41.1026 H         1 UNK         0.0600 
    172 H172       -0.1509  -13.5573  -40.2308 H         1 UNK         0.0600 
    173 H173       -0.7830  -12.4162  -41.4176 H         1 UNK         0.0600 
    174 H174        1.7566  -12.9043  -41.6716 H         1 UNK         0.3000 
    175 H175        4.1846  -13.5347  -42.3383 H         1 UNK         0.0600 
    176 H176        5.6822  -12.9863  -44.2459 H         1 UNK         0.0600 
    177 H177        4.8544  -14.5169  -44.4764 H         1 UNK         0.0600 
    178 H178        4.3213  -13.0956  -45.3575 H         1 UNK         0.0600 
    179 H179        3.9175  -11.0852  -43.8708 H         1 UNK         0.3000 
    180 H180        2.5162   -9.1475  -41.3361 H         1 UNK         0.0600 
    181 H181        5.5681   -9.3257  -41.5672 H         1 UNK         0.0600 
    182 H182        4.6460   -9.4473  -40.0736 H         1 UNK         0.0600 
    183 H183        4.6552   -7.9386  -40.9712 H         1 UNK         0.0600 
    184 H184        4.3207   -8.5046  -43.5036 H         1 UNK         0.3000 
    185 H185        1.7797   -7.3796  -45.5205 H         1 UNK         0.0600 
    186 H186        3.9486   -6.4819  -44.6459 H         1 UNK         0.0600 
    187 H187        4.8122   -7.8450  -45.3570 H         1 UNK         0.0600 
    188 H188        3.9780   -6.6918  -46.3864 H         1 UNK         0.0600 
    189 H189        1.8874   -8.8448  -47.1845 H         1 UNK         0.3000 
    190 H190       -2.6366  -21.1139  -46.6041 H         1 UNK         0.3000 
    191 H191       -4.9176  -22.1910  -47.8656 H         1 UNK         0.0600 
    192 H192       -5.0164  -20.2460  -46.3619 H         1 UNK         0.0600 
    193 H193       -6.1055  -21.5040  -45.7977 H         1 UNK         0.0600 
    194 H194       -4.5698  -21.2461  -44.9821 H         1 UNK         0.0600 
    195 H195       -3.1238  -23.3929  -44.9931 H         1 UNK         0.3000 
    196 H196       -4.6596  -25.7066  -44.5122 H         1 UNK         0.0600 
    197 H197       -2.6667  -26.4404  -43.1951 H         1 UNK         0.0600 
    198 H198       -3.0647  -24.7597  -42.8733 H         1 UNK         0.0600 
    199 H199       -1.7039  -25.1585  -43.9193 H         1 UNK         0.0600 
    200 H200       -1.9511  -25.1984  -46.7580 H         1 UNK         0.3000 
    201 H201       -1.7789  -27.9553  -47.6510 H         1 UNK         0.0600 
    202 H202        0.1723  -26.3987  -47.6661 H         1 UNK         0.0600 
    203 H203       -0.6415  -25.3792  -48.8505 H         1 UNK         0.0600 
    204 H204       -0.1652  -27.0194  -49.2732 H         1 UNK         0.0600 
    205 H205       -4.4304  -27.1931  -47.7406 H         1 UNK         0.3000 
    206 H206       -6.3119  -27.1489  -48.9240 H         1 UNK         0.0600 
    207 H207       -5.4233  -29.3715  -49.6338 H         1 UNK         0.0600 
    208 H208       -6.4067  -28.6529  -50.8979 H         1 UNK         0.0600 
    209 H209       -4.6532  -28.6323  -51.0359 H         1 UNK         0.0600 
    210 H210       -5.1171  -24.7252  -49.0235 H         1 UNK         0.3000 
    211 H211       -4.9717  -22.7411  -50.0311 H         1 UNK         0.0600 
    212 H212       -7.1026  -23.8083  -51.9602 H         1 UNK         0.0600 
    213 H213       -6.7019  -22.1197  -51.6998 H         1 UNK         0.0600 
    214 H214       -7.4145  -23.0557  -50.3984 H         1 UNK         0.0600 
    215 H215       -2.8933  -24.2008  -50.5488 H         1 UNK         0.3000 
    216 H216       -1.1320  -24.6999  -51.7865 H         1 UNK         0.0600 
    217 H217       -0.3596  -23.0510  -53.4449 H         1 UNK         0.0600 
    218 H218       -1.0823  -22.2021  -52.0884 H         1 UNK         0.0600 
    219 H219       -1.9752  -22.3797  -53.6011 H         1 UNK         0.0600 
    220 H220       -3.1738  -26.3764  -52.2105 H         1 UNK         0.3000 
    221 H221       -4.1781  -27.9008  -53.4645 H         1 UNK         0.0600 
    222 H222       -1.9192  -27.5088  -55.4994 H         1 UNK         0.0600 
    223 H223       -1.8558  -28.5667  -54.0904 H         1 UNK         0.0600 
    224 H224       -2.9947  -28.8937  -55.3870 H         1 UNK         0.0600 
    225 H225       -5.5040  -25.7370  -53.4698 H         1 UNK         0.3000 
    226 H226       -7.0485  -24.4268  -54.3311 H         1 UNK         0.0600 
    227 H227       -8.0322  -26.6364  -54.9198 H         1 UNK         0.0600 
    228 H228       -8.5150  -25.4012  -56.0704 H         1 UNK         0.0600 
    229 H229       -7.2747  -26.5684  -56.5104 H         1 UNK         0.0600 
    230 H230       -4.7272  -23.2866  -54.8075 H         1 UNK         0.3000 
    231 H231       -5.0177  -22.0017  -57.4938 H         1 UNK         0.0600 
    232 H232       -2.3684  -22.8922  -56.2459 H         1 UNK         0.0600 
    233 H233       -2.5814  -22.0948  -57.7980 H         1 UNK         0.0600 
    234 H234       -3.1798  -23.7315  -57.5672 H         1 UNK         0.0600 
    235 H235       -4.7526  -21.5501  -54.0850 H         1 UNK         0.3000 
    236 H236       -4.1990  -18.6561  -54.4736 H         1 UNK         0.0600 
    237 H237       -2.0681  -19.9120  -53.8064 H         1 UNK         0.0600 
    238 H238       -2.5619  -18.6540  -52.7017 H         1 UNK         0.0600 
    239 H239       -2.8672  -20.3462  -52.2953 H         1 UNK         0.0600 
    240 H240       -4.1899  -18.0922  -51.7147 H         1 UNK         0.3000 
    241 H241       -6.9557  -17.6070  -51.3665 H         1 UNK         0.0600 
    242 H242       -6.3476  -20.8667  -49.0221 H         1 UNK         0.3800 
    243 H243       -5.0530  -20.2849  -50.0521 H         1 UNK         0.3800 
    244 H244       -5.4015  -15.9190  -50.6799 H         1 UNK         0.0800 
    245 H245       -6.2488  -16.4370  -49.2609 H         1 UNK         0.0800 
    246 H246       -2.9819  -15.1190  -50.1098 H         1 UNK         0.0800 
    247 H247       -2.9549  -16.4265  -51.2663 H         1 UNK         0.0800 
@<TRIPOS>BOND
     1    1    2 1    
     2    1  127 1    
     3    1  128 1    
     4    1  129 1    
     5    2    3 2    
     6    2    4 am   BACKBONE|DICT|INTERRES
     7    4    5 1    
     8    4  130 1    
     9    5    6 1    
    10    5   65 1    
    11    5  131 1    
    12    6    7 1    
    13    6  132 1    
    14    6  133 1    
    15    7    8 1    
    16    8    9 1    
    17    8  134 1    
    18    8  135 1    
    19    9   10 ar   
    20    9   14 ar   
    21   10   11 ar   
    22   10  136 1    
    23   11   12 ar   
    24   11  126 1    
    25   12   13 ar   
    26   12  137 1    
    27   13   14 ar   
    28   13   15 1    
    29   14  138 1    
    30   15   16 1    
    31   15  139 1    
    32   15  140 1    
    33   16   17 1    
    34   17   18 1    
    35   17  141 1    
    36   17  142 1    
    37   18   19 1    
    38   18   67 1    
    39   18  143 1    
    40   19   20 am   BACKBONE|DICT|INTERRES
    41   19  144 1    
    42   20   21 2    
    43   20   22 1    
    44   22   23 1    
    45   22   24 1    
    46   22  145 1    
    47   23  146 1    
    48   23  147 1    
    49   23  148 1    
    50   24   25 am   BACKBONE|DICT|INTERRES
    51   24  149 1    
    52   25   26 2    
    53   25   27 1    
    54   27   28 1    
    55   27   29 1    
    56   27  150 1    
    57   28  151 1    
    58   28  152 1    
    59   28  153 1    
    60   29   30 am   BACKBONE|DICT|INTERRES
    61   29  154 1    
    62   30   31 2    
    63   30   32 1    
    64   32   33 1    
    65   32   34 1    
    66   32  155 1    
    67   33  156 1    
    68   33  157 1    
    69   33  158 1    
    70   34   35 am   BACKBONE|DICT|INTERRES
    71   34  159 1    
    72   35   36 2    
    73   35   37 1    
    74   37   38 1    
    75   37   39 1    
    76   37  160 1    
    77   38  161 1    
    78   38  162 1    
    79   38  163 1    
    80   39   40 am   BACKBONE|DICT|INTERRES
    81   39  164 1    
    82   40   41 2    
    83   40   42 1    
    84   42   43 1    
    85   42   44 1    
    86   42  165 1    
    87   43  166 1    
    88   43  167 1    
    89   43  168 1    
    90   44   45 am   BACKBONE|DICT|INTERRES
    91   44  169 1    
    92   45   46 2    
    93   45   47 1    
    94   47   48 1    
    95   47   49 1    
    96   47  170 1    
    97   48  171 1    
    98   48  172 1    
    99   48  173 1    
   100   49   50 am   BACKBONE|DICT|INTERRES
   101   49  174 1    
   102   50   51 2    
   103   50   52 1    
   104   52   53 1    
   105   52   54 1    
   106   52  175 1    
   107   53  176 1    
   108   53  177 1    
   109   53  178 1    
   110   54   55 am   BACKBONE|DICT|INTERRES
   111   54  179 1    
   112   55   56 2    
   113   55   57 1    
   114   57   58 1    
   115   57   59 1    
   116   57  180 1    
   117   58  181 1    
   118   58  182 1    
   119   58  183 1    
   120   59   60 am   BACKBONE|DICT|INTERRES
   121   59  184 1    
   122   60   61 2    
   123   60   62 1    
   124   62   63 1    
   125   62   64 1    
   126   62  185 1    
   127   63  186 1    
   128   63  187 1    
   129   63  188 1    
   130   64   65 am   BACKBONE|DICT|INTERRES
   131   64  189 1    
   132   65   66 2    
   133   67   68 2    
   134   67   69 am   BACKBONE|DICT|INTERRES
   135   69   70 1    
   136   69  190 1    
   137   70   71 1    
   138   70   72 1    
   139   70  191 1    
   140   71  192 1    
   141   71  193 1    
   142   71  194 1    
   143   72   73 2    
   144   72   74 am   BACKBONE|DICT|INTERRES
   145   74   75 1    
   146   74  195 1    
   147   75   76 1    
   148   75   77 1    
   149   75  196 1    
   150   76  197 1    
   151   76  198 1    
   152   76  199 1    
   153   77   78 2    
   154   77   79 am   BACKBONE|DICT|INTERRES
   155   79   80 1    
   156   79  200 1    
   157   80   81 1    
   158   80   82 1    
   159   80  201 1    
   160   81  202 1    
   161   81  203 1    
   162   81  204 1    
   163   82   83 2    
   164   82   84 am   BACKBONE|DICT|INTERRES
   165   84   85 1    
   166   84  205 1    
   167   85   86 1    
   168   85   87 1    
   169   85  206 1    
   170   86  207 1    
   171   86  208 1    
   172   86  209 1    
   173   87   88 2    
   174   87   89 am   BACKBONE|DICT|INTERRES
   175   89   90 1    
   176   89  210 1    
   177   90   91 1    
   178   90   92 1    
   179   90  211 1    
   180   91  212 1    
   181   91  213 1    
   182   91  214 1    
   183   92   93 2    
   184   92   94 am   BACKBONE|DICT|INTERRES
   185   94   95 1    
   186   94  215 1    
   187   95   96 1    
   188   95   97 1    
   189   95  216 1    
   190   96  217 1    
   191   96  218 1    
   192   96  219 1    
   193   97   98 2    
   194   97   99 am   BACKBONE|DICT|INTERRES
   195   99  100 1    
   196   99  220 1    
   197  100  101 1    
   198  100  102 1    
   199  100  221 1    
   200  101  222 1    
   201  101  223 1    
   202  101  224 1    
   203  102  103 2    
   204  102  104 am   BACKBONE|DICT|INTERRES
   205  104  105 1    
   206  104  225 1    
   207  105  106 1    
   208  105  107 1    
   209  105  226 1    
   210  106  227 1    
   211  106  228 1    
   212  106  229 1    
   213  107  108 2    
   214  107  109 am   BACKBONE|DICT|INTERRES
   215  109  110 1    
   216  109  230 1    
   217  110  111 1    
   218  110  112 1    
   219  110  231 1    
   220  111  232 1    
   221  111  233 1    
   222  111  234 1    
   223  112  113 2    
   224  112  114 am   BACKBONE|DICT|INTERRES
   225  114  115 1    
   226  114  235 1    
   227  115  116 1    
   228  115  117 1    
   229  115  236 1    
   230  116  237 1    
   231  116  238 1    
   232  116  239 1    
   233  117  118 2    
   234  117  119 am   BACKBONE|DICT|INTERRES
   235  119  120 1    
   236  119  240 1    
   237  120  121 1    
   238  120  124 1    
   239  120  241 1    
   240  121  122 am   BACKBONE|DICT|INTERRES
   241  121  123 2    
   242  122  242 1    
   243  122  243 1    
   244  124  125 1    
   245  124  244 1    
   246  124  245 1    
   247  125  126 1    
   248  126  246 1    
   249  126  247 1    
@<TRIPOS>SUBSTRUCTURE
     1 UNK         1 GROUP             0       ****    0 ROOT    
