@<TRIPOS>MOLECULE
3R540
247   249    1
SMALL
USER_CHARGES


@<TRIPOS>ATOM
      1 CA          1.5000  -18.5368  -44.2807 C.3       0 UNK        -0.1800 
      2 C           1.5006  -17.0537  -44.6166 C.2       0 UNK         0.5000 
      3 O           2.3362  -16.3073  -44.1038 O.2       0 UNK        -0.5000 
      4 N           0.5895  -16.6194  -45.4996 N.am      1 UNK        -0.5000 
      5 CA          0.4283  -15.2296  -45.9645 C.3       1 UNK         0.1400 
      6 C6         -0.8487  -14.9973  -46.8174 C.3       23 UNK        -0.0398 
      7 S7         -1.2233  -16.3006  -48.0380 S.3       23 UNK        -0.2404 
      8 C8         -0.3928  -15.6860  -49.5368 C.3       23 UNK        -0.0205 
      9 C9          0.2527  -16.8408  -50.2831 C.ar      23 UNK        -0.0193 
     10 C10        -0.2509  -17.2867  -51.5069 C.ar      23 UNK        -0.1150 
     11 C11         0.3348  -18.3802  -52.1531 C.ar      23 UNK        -0.0193 
     12 C12         1.4249  -19.0306  -51.5631 C.ar      23 UNK        -0.1150 
     13 C13         1.9190  -18.6138  -50.3222 C.ar      23 UNK        -0.0193 
     14 C14         1.3445  -17.4949  -49.7130 C.ar      23 UNK        -0.1150 
     15 C15         3.0462  -19.3865  -49.6360 C.3       23 UNK        -0.0205 
     16 S16         2.7992  -19.5181  -47.8287 S.3       23 UNK        -0.2404 
     17 C17         4.0489  -20.7545  -47.3153 C.3       23 UNK        -0.0398 
     18 CA          3.4587  -22.1649  -47.0307 C.3       11 UNK         0.1400 
     19 N           2.2000  -22.0708  -46.2919 N.am      11 UNK        -0.5000 
     20 C           1.5013  -23.0659  -45.7355 C.2       10 UNK         0.5000 
     21 O           1.9116  -24.2218  -45.6340 O.2       10 UNK        -0.5000 
     22 CA          0.0862  -22.6941  -45.2410 C.3       10 UNK         0.1400 
     23 CB          0.0882  -22.4396  -43.7268 C.3       10 UNK        -0.1800 
     24 N          -0.4800  -21.5174  -45.9161 N.am      10 UNK        -0.5000 
     25 C          -0.7387  -21.4303  -47.2276 C.2       9 UNK         0.5000 
     26 O          -0.5549  -22.3621  -48.0119 O.2       9 UNK        -0.5000 
     27 CA         -1.2537  -20.0705  -47.7369 C.3       9 UNK         0.1400 
     28 CB         -1.4604  -20.0576  -49.2564 C.3       9 UNK        -0.1800 
     29 N          -2.4942  -19.6517  -47.0760 N.am      9 UNK        -0.5000 
     30 C          -2.5449  -19.0545  -45.8791 C.2       8 UNK         0.5000 
     31 O          -1.5386  -18.8715  -45.1881 O.2       8 UNK        -0.5000 
     32 CA         -3.9268  -18.6012  -45.3614 C.3       8 UNK         0.1400 
     33 CB         -4.8077  -19.7962  -44.9702 C.3       8 UNK        -0.1800 
     34 N          -3.7553  -17.7675  -44.1728 N.am      8 UNK        -0.5000 
     35 C          -3.6159  -16.4385  -44.1835 C.2       7 UNK         0.5000 
     36 O          -3.8345  -15.7409  -45.1754 O.2       7 UNK        -0.5000 
     37 CA         -3.1299  -15.8094  -42.8586 C.3       7 UNK         0.1400 
     38 CB         -1.8232  -16.4642  -42.3761 C.3       7 UNK        -0.1800 
     39 N          -2.9064  -14.3654  -42.9505 N.am      7 UNK        -0.5000 
     40 C          -3.8669  -13.4338  -42.9883 C.2       6 UNK         0.5000 
     41 O          -5.0699  -13.6944  -42.9281 O.2       6 UNK        -0.5000 
     42 CA         -3.4204  -11.9599  -43.0691 C.3       6 UNK         0.1400 
     43 CB         -3.7813  -11.2182  -41.7715 C.3       6 UNK        -0.1800 
     44 N          -1.9854  -11.7834  -43.3108 N.am      6 UNK        -0.5000 
     45 C          -1.3970  -11.7511  -44.5110 C.2       5 UNK         0.5000 
     46 O          -1.9898  -11.9783  -45.5649 O.2       5 UNK        -0.5000 
     47 CA          0.1039  -11.3941  -44.5472 C.3       5 UNK         0.1400 
     48 CB          0.3339   -9.9090  -44.2058 C.3       5 UNK        -0.1800 
     49 N           0.9682  -12.2697  -43.7415 N.am      5 UNK        -0.5000 
     50 C           0.9995  -12.4286  -42.4099 C.2       4 UNK         0.5000 
     51 O           0.2575  -11.8278  -41.6316 O.2       4 UNK        -0.5000 
     52 CA          2.0058  -13.4457  -41.8394 C.3       4 UNK         0.1400 
     53 CB          1.2679  -14.6787  -41.2984 C.3       4 UNK        -0.1800 
     54 N           3.0125  -13.8974  -42.8038 N.am      4 UNK        -0.5000 
     55 C           4.1650  -13.2586  -43.0476 C.2       3 UNK         0.5000 
     56 O           4.4463  -12.1587  -42.5707 O.2       3 UNK        -0.5000 
     57 CA          5.1787  -13.9640  -43.9634 C.3       3 UNK         0.1400 
     58 CB          5.9421  -15.0478  -43.1853 C.3       3 UNK        -0.1800 
     59 N           4.5264  -14.5767  -45.1201 N.am      3 UNK        -0.5000 
     60 C           4.8101  -14.2933  -46.3998 C.2       2 UNK         0.5000 
     61 O           5.6839  -13.4983  -46.7487 O.2       2 UNK        -0.5000 
     62 CA          3.9764  -15.0092  -47.4841 C.3       2 UNK         0.1400 
     63 CB          4.7351  -16.2265  -48.0328 C.3       2 UNK        -0.1800 
     64 N           2.6615  -15.4425  -47.0108 N.am      2 UNK        -0.5000 
     65 C           1.6759  -14.6155  -46.6389 C.2       1 UNK         0.5000 
     66 O           1.7429  -13.3935  -46.7628 O.2       1 UNK        -0.5000 
     67 C           3.3400  -22.9806  -48.3373 C.2       11 UNK         0.5000 
     68 O           4.3347  -23.5728  -48.7587 O.2       11 UNK        -0.5000 
     69 N           2.1568  -22.9824  -48.9680 N.am      12 UNK        -0.5000 
     70 CA          1.9176  -23.6422  -50.2482 C.3       12 UNK         0.1400 
     71 CB          0.8749  -22.8496  -51.0482 C.3       12 UNK        -0.1800 
     72 C           1.4757  -25.1001  -50.0647 C.2       12 UNK         0.5000 
     73 O           2.0409  -25.9839  -50.7107 O.2       12 UNK        -0.5000 
     74 N           0.4827  -25.3333  -49.1975 N.am      13 UNK        -0.5000 
     75 CA         -0.1030  -26.6482  -48.9457 C.3       13 UNK         0.1400 
     76 CB         -0.9946  -27.0680  -50.1338 C.3       13 UNK        -0.1800 
     77 C          -0.9267  -26.6228  -47.6523 C.2       13 UNK         0.5000 
     78 O          -1.2229  -25.5480  -47.1270 O.2       13 UNK        -0.5000 
     79 N          -1.3258  -27.8177  -47.1932 N.am      14 UNK        -0.5000 
     80 CA         -2.2474  -28.0177  -46.0706 C.3       14 UNK         0.1400 
     81 CB         -2.2704  -29.5058  -45.6911 C.3       14 UNK        -0.1800 
     82 C          -3.6726  -27.5125  -46.3720 C.2       14 UNK         0.5000 
     83 O          -4.3547  -27.0366  -45.4638 O.2       14 UNK        -0.5000 
     84 N          -4.0750  -27.5554  -47.6514 N.am      15 UNK        -0.5000 
     85 CA         -5.2900  -26.9373  -48.1922 C.3       15 UNK         0.1400 
     86 CB         -5.6798  -27.6630  -49.4921 C.3       15 UNK        -0.1800 
     87 C          -5.0848  -25.4210  -48.4027 C.2       15 UNK         0.5000 
     88 O          -5.2937  -24.9036  -49.5009 O.2       15 UNK        -0.5000 
     89 N          -4.6364  -24.7454  -47.3395 N.am      16 UNK        -0.5000 
     90 CA         -4.1003  -23.3862  -47.3191 C.3       16 UNK         0.1400 
     91 CB         -3.6900  -23.0678  -45.8745 C.3       16 UNK        -0.1800 
     92 C          -5.0519  -22.3054  -47.8591 C.2       16 UNK         0.5000 
     93 O          -4.5905  -21.3328  -48.4562 O.2       16 UNK        -0.5000 
     94 N          -6.3590  -22.4848  -47.6308 N.am      17 UNK        -0.5000 
     95 CA         -7.4052  -21.5719  -48.0921 C.3       17 UNK         0.1400 
     96 CB         -8.7011  -21.8602  -47.3198 C.3       17 UNK        -0.1800 
     97 C          -7.6471  -21.6605  -49.6105 C.2       17 UNK         0.5000 
     98 O          -7.9868  -20.6512  -50.2280 O.2       17 UNK        -0.5000 
     99 N          -7.4612  -22.8572  -50.1838 N.am      18 UNK        -0.5000 
    100 CA        -7.5747  -23.1092  -51.6195 C.3       18 UNK         0.1400 
    101 CB        -7.9507  -24.5809  -51.8518 C.3       18 UNK        -0.1800 
    102 C         -6.2666  -22.7606  -52.3456 C.2       18 UNK         0.5000 
    103 O         -6.3038  -22.1756  -53.4279 O.2       18 UNK        -0.5000 
    104 N         -5.1304  -23.1016  -51.7218 N.am      19 UNK        -0.5000 
    105 CA        -3.7815  -22.8812  -52.2441 C.3       19 UNK         0.1400 
    106 CB        -2.7788  -23.6214  -51.3507 C.3       19 UNK        -0.1800 
    107 C         -3.4004  -21.3949  -52.3882 C.2       19 UNK         0.5000 
    108 O         -2.5417  -21.0720  -53.2076 O.2       19 UNK        -0.5000 
    109 N         -4.0744  -20.5148  -51.6328 N.am      20 UNK        -0.5000 
    110 CA        -3.9295  -19.0564  -51.6693 C.3       20 UNK         0.1400 
    111 CB        -4.7011  -18.4529  -50.4853 C.3       20 UNK        -0.1800 
    112 C         -4.3555  -18.3935  -52.9968 C.2       20 UNK         0.5000 
    113 O         -4.0626  -17.2133  -53.1977 O.2       20 UNK        -0.5000 
    114 N         -5.0008  -19.1551  -53.8935 N.am      21 UNK        -0.5000 
    115 CA        -5.4561  -18.7417  -55.2245 C.3       21 UNK         0.1400 
    116 CB        -6.1919  -19.9192  -55.8821 C.3       21 UNK        -0.1800 
    117 C         -4.3585  -18.1991  -56.1668 C.2       21 UNK         0.5000 
    118 O         -4.6995  -17.5476  -57.1554 O.2       21 UNK        -0.5000 
    119 N         -3.0766  -18.4451  -55.8534 N.am      22 UNK        -0.5000 
    120 CA        -1.9269  -17.8111  -56.5233 C.3       22 UNK         0.1400 
    121 C         -1.8261  -16.2659  -56.3150 C.2       22 UNK         0.5000 
    122 N         -2.4753  -15.6856  -55.3098 N.am      22 UNK        -0.7600 
    123 O         -1.1601  -15.5846  -57.0900 O.2       22 UNK        -0.5000 
    124 C124       -0.5949  -18.5770  -56.2496 C.3       23 UNK        -0.0398 
    125 S125        0.4590  -17.9725  -54.8775 S.3       23 UNK        -0.2404 
    126 C126       -0.2378  -18.8769  -53.4700 C.3       23 UNK        -0.0205 
    127 H127        2.5096  -18.8751  -44.0478 H         1 UNK         0.0600 
    128 H128        1.1339  -19.1290  -45.1183 H         1 UNK         0.0600 
    129 H129        0.8637  -18.7260  -43.4164 H         1 UNK         0.0600 
    130 H130       -0.0933  -17.2775  -45.8567 H         1 UNK         0.3000 
    131 H131        0.2927  -14.6427  -45.0548 H         1 UNK         0.0600 
    132 H132       -1.6996  -14.9440  -46.1433 H         1 UNK         0.0800 
    133 H133       -0.8398  -14.0240  -47.3123 H         1 UNK         0.0800 
    134 H134       -1.1197  -15.1687  -50.1645 H         1 UNK         0.0800 
    135 H135        0.3758  -14.9558  -49.2822 H         1 UNK         0.0800 
    136 H136       -1.1027  -16.7923  -51.9529 H         1 UNK         0.1150 
    137 H137        1.8748  -19.8743  -52.0653 H         1 UNK         0.1150 
    138 H138        1.7144  -17.1534  -48.7606 H         1 UNK         0.1150 
    139 H139        3.1149  -20.3910  -50.0551 H         1 UNK         0.0800 
    140 H140        3.9974  -18.8943  -49.8399 H         1 UNK         0.0800 
    141 H141        4.5030  -20.3762  -46.3985 H         1 UNK         0.0800 
    142 H142        4.8627  -20.7916  -48.0423 H         1 UNK         0.0800 
    143 H143        4.1655  -22.7020  -46.3948 H         1 UNK         0.0600 
    144 H144        1.7692  -21.1586  -46.3170 H         1 UNK         0.3000 
    145 H145       -0.5634  -23.5458  -45.4476 H         1 UNK         0.0600 
    146 H146       -0.9207  -22.2538  -43.3578 H         1 UNK         0.0600 
    147 H147        0.4779  -23.3029  -43.1858 H         1 UNK         0.0600 
    148 H148        0.7059  -21.5797  -43.4646 H         1 UNK         0.0600 
    149 H149       -0.6828  -20.7052  -45.3426 H         1 UNK         0.3000 
    150 H150       -0.4723  -19.3385  -47.5211 H         1 UNK         0.0600 
    151 H151       -2.2315  -20.7620  -49.5639 H         1 UNK         0.0600 
    152 H152       -0.5430  -20.3237  -49.7814 H         1 UNK         0.0600 
    153 H153       -1.7445  -19.0622  -49.5921 H         1 UNK         0.0600 
    154 H154       -3.3505  -19.8651  -47.5749 H         1 UNK         0.3000 
    155 H155       -4.4263  -18.0369  -46.1517 H         1 UNK         0.0600 
    156 H156       -4.3039  -20.4605  -44.2669 H         1 UNK         0.0600 
    157 H157       -5.0846  -20.3781  -45.8455 H         1 UNK         0.0600 
    158 H158       -5.7376  -19.4649  -44.5075 H         1 UNK         0.0600 
    159 H159       -3.5094  -18.2649  -43.3296 H         1 UNK         0.3000 
    160 H160       -3.9018  -15.9896  -42.1074 H         1 UNK         0.0600 
    161 H161       -1.0347  -16.3690  -43.1219 H         1 UNK         0.0600 
    162 H162       -1.9525  -17.5277  -42.1739 H         1 UNK         0.0600 
    163 H163       -1.4738  -16.0087  -41.4496 H         1 UNK         0.0600 
    164 H164       -1.9507  -14.0546  -43.0236 H         1 UNK         0.3000 
    165 H165       -3.9775  -11.4993  -43.8877 H         1 UNK         0.0600 
    166 H166       -4.8501  -11.2837  -41.5638 H         1 UNK         0.0600 
    167 H167       -3.2527  -11.6331  -40.9123 H         1 UNK         0.0600 
    168 H168       -3.5304  -10.1594  -41.8402 H         1 UNK         0.0600 
    169 H169       -1.3931  -11.6328  -42.4974 H         1 UNK         0.3000 
    170 H170        0.4243  -11.5274  -45.5804 H         1 UNK         0.0600 
    171 H171       -0.2411   -9.2645  -44.8717 H         1 UNK         0.0600 
    172 H172        0.0357   -9.6682  -43.1852 H         1 UNK         0.0600 
    173 H173        1.3837   -9.6387  -44.3196 H         1 UNK         0.0600 
    174 H174        1.6400  -12.8029  -44.2752 H         1 UNK         0.3000 
    175 H175        2.5078  -12.9625  -40.9984 H         1 UNK         0.0600 
    176 H176        1.9567  -15.3642  -40.8043 H         1 UNK         0.0600 
    177 H177        0.5081  -14.3990  -40.5674 H         1 UNK         0.0600 
    178 H178        0.7728  -15.2253  -42.0991 H         1 UNK         0.0600 
    179 H179        2.8465  -14.8089  -43.2253 H         1 UNK         0.3000 
    180 H180        5.8998  -13.2088  -44.2826 H         1 UNK         0.0600 
    181 H181        5.2781  -15.8437  -42.8451 H         1 UNK         0.0600 
    182 H182        6.4318  -14.6276  -42.3059 H         1 UNK         0.0600 
    183 H183        6.7170  -15.5012  -43.8035 H         1 UNK         0.0600 
    184 H184        3.7877  -15.2435  -44.9215 H         1 UNK         0.3000 
    185 H185        3.8267  -14.3021  -48.3027 H         1 UNK         0.0600 
    186 H186        5.7315  -15.9461  -48.3768 H         1 UNK         0.0600 
    187 H187        4.8542  -17.0033  -47.2764 H         1 UNK         0.0600 
    188 H188        4.2123  -16.6608  -48.8840 H         1 UNK         0.0600 
    189 H189        2.5402  -16.4314  -46.8489 H         1 UNK         0.3000 
    190 H190        1.3538  -22.5383  -48.5357 H         1 UNK         0.3000 
    191 H191        2.8395  -23.6442  -50.8341 H         1 UNK         0.0600 
    192 H192       -0.0730  -22.7757  -50.5180 H         1 UNK         0.0600 
    193 H193        1.2210  -21.8381  -51.2418 H         1 UNK         0.0600 
    194 H194        0.6812  -23.3181  -52.0138 H         1 UNK         0.0600 
    195 H195        0.0759  -24.5725  -48.6620 H         1 UNK         0.3000 
    196 H196        0.7033  -27.3732  -48.8169 H         1 UNK         0.0600 
    197 H197       -1.3978  -28.0712  -49.9932 H         1 UNK         0.0600 
    198 H198       -0.4415  -27.0802  -51.0727 H         1 UNK         0.0600 
    199 H199       -1.8398  -26.3907  -50.2539 H         1 UNK         0.0600 
    200 H200       -1.0252  -28.6517  -47.6769 H         1 UNK         0.3000 
    201 H201       -1.8694  -27.4510  -45.2170 H         1 UNK         0.0600 
    202 H202       -2.9314  -29.6814  -44.8412 H         1 UNK         0.0600 
    203 H203       -2.6231  -30.1273  -46.5151 H         1 UNK         0.0600 
    204 H204       -1.2779  -29.8558  -45.4064 H         1 UNK         0.0600 
    205 H205       -3.4349  -27.9382  -48.3306 H         1 UNK         0.3000 
    206 H206       -6.1060  -27.0626  -47.4776 H         1 UNK         0.0600 
    207 H207       -5.8365  -28.7276  -49.3176 H         1 UNK         0.0600 
    208 H208       -6.6086  -27.2626  -49.9003 H         1 UNK         0.0600 
    209 H209       -4.9110  -27.5576  -50.2588 H         1 UNK         0.0600 
    210 H210       -4.5089  -25.2810  -46.4880 H         1 UNK         0.3000 
    211 H211       -3.2045  -23.3794  -47.9429 H         1 UNK         0.0600 
    212 H212       -4.5459  -23.0845  -45.1988 H         1 UNK         0.0600 
    213 H213       -3.2337  -22.0834  -45.8008 H         1 UNK         0.0600 
    214 H214       -2.9602  -23.7887  -45.5063 H         1 UNK         0.0600 
    215 H215       -6.6529  -23.3070  -47.1243 H         1 UNK         0.3000 
    216 H216       -7.0952  -20.5492  -47.8654 H         1 UNK         0.0600 
    217 H217       -9.4969  -21.1794  -47.6250 H         1 UNK         0.0600 
    218 H218       -8.5574  -21.7302  -46.2470 H         1 UNK         0.0600 
    219 H219       -9.0552  -22.8775  -47.4914 H         1 UNK         0.0600 
    220 H220       -7.1133  -23.6200  -49.6181 H         1 UNK         0.3000 
    221 H221       -8.3704  -22.4875  -52.0359 H         1 UNK         0.0600 
    222 H222       -7.1896  -25.2605  -51.4672 H         1 UNK         0.0600 
    223 H223       -8.8954  -24.8271  -51.3668 H         1 UNK         0.0600 
    224 H224       -8.0675  -24.7888  -52.9161 H         1 UNK         0.0600 
    225 H225       -5.1953  -23.6264  -50.8528 H         1 UNK         0.3000 
    226 H226       -3.7406  -23.3261  -53.2403 H         1 UNK         0.0600 
    227 H227       -1.7901  -23.6210  -51.8069 H         1 UNK         0.0600 
    228 H228       -2.6971  -23.1644  -50.3637 H         1 UNK         0.0600 
    229 H229       -3.0694  -24.6626  -51.2167 H         1 UNK         0.0600 
    230 H230       -4.7405  -20.8811  -50.9667 H         1 UNK         0.3000 
    231 H231       -2.8718  -18.8261  -51.5419 H         1 UNK         0.0600 
    232 H232       -5.7652  -18.6862  -50.5395 H         1 UNK         0.0600 
    233 H233       -4.6008  -17.3669  -50.4622 H         1 UNK         0.0600 
    234 H234       -4.3236  -18.8286  -49.5347 H         1 UNK         0.0600 
    235 H235       -5.2010  -20.1143  -53.6396 H         1 UNK         0.3000 
    236 H236       -6.1733  -17.9316  -55.0801 H         1 UNK         0.0600 
    237 H237       -7.0549  -20.2244  -55.2902 H         1 UNK         0.0600 
    238 H238       -6.5602  -19.6519  -56.8735 H         1 UNK         0.0600 
    239 H239       -5.5393  -20.7859  -55.9953 H         1 UNK         0.0600 
    240 H240       -2.8798  -18.9996  -55.0332 H         1 UNK         0.3000 
    241 H241       -2.1204  -17.9323  -57.5912 H         1 UNK         0.0600 
    242 H242       -3.0220  -16.2338  -54.6545 H         1 UNK         0.3800 
    243 H243       -2.4080  -14.6878  -55.1892 H         1 UNK         0.3800 
    244 H244       -0.7821  -19.6439  -56.1184 H         1 UNK         0.0800 
    245 H245        0.0237  -18.5115  -57.1458 H         1 UNK         0.0800 
    246 H246       -0.0520  -19.9455  -53.5896 H         1 UNK         0.0800 
    247 H247       -1.3190  -18.7454  -53.4658 H         1 UNK         0.0800 
@<TRIPOS>BOND
     1    1    2 1    
     2    1  127 1    
     3    1  128 1    
     4    1  129 1    
     5    2    3 2    
     6    2    4 am   BACKBONE|DICT|INTERRES
     7    4    5 1    
     8    4  130 1    
     9    5    6 1    
    10    5   65 1    
    11    5  131 1    
    12    6    7 1    
    13    6  132 1    
    14    6  133 1    
    15    7    8 1    
    16    8    9 1    
    17    8  134 1    
    18    8  135 1    
    19    9   10 ar   
    20    9   14 ar   
    21   10   11 ar   
    22   10  136 1    
    23   11   12 ar   
    24   11  126 1    
    25   12   13 ar   
    26   12  137 1    
    27   13   14 ar   
    28   13   15 1    
    29   14  138 1    
    30   15   16 1    
    31   15  139 1    
    32   15  140 1    
    33   16   17 1    
    34   17   18 1    
    35   17  141 1    
    36   17  142 1    
    37   18   19 1    
    38   18   67 1    
    39   18  143 1    
    40   19   20 am   BACKBONE|DICT|INTERRES
    41   19  144 1    
    42   20   21 2    
    43   20   22 1    
    44   22   23 1    
    45   22   24 1    
    46   22  145 1    
    47   23  146 1    
    48   23  147 1    
    49   23  148 1    
    50   24   25 am   BACKBONE|DICT|INTERRES
    51   24  149 1    
    52   25   26 2    
    53   25   27 1    
    54   27   28 1    
    55   27   29 1    
    56   27  150 1    
    57   28  151 1    
    58   28  152 1    
    59   28  153 1    
    60   29   30 am   BACKBONE|DICT|INTERRES
    61   29  154 1    
    62   30   31 2    
    63   30   32 1    
    64   32   33 1    
    65   32   34 1    
    66   32  155 1    
    67   33  156 1    
    68   33  157 1    
    69   33  158 1    
    70   34   35 am   BACKBONE|DICT|INTERRES
    71   34  159 1    
    72   35   36 2    
    73   35   37 1    
    74   37   38 1    
    75   37   39 1    
    76   37  160 1    
    77   38  161 1    
    78   38  162 1    
    79   38  163 1    
    80   39   40 am   BACKBONE|DICT|INTERRES
    81   39  164 1    
    82   40   41 2    
    83   40   42 1    
    84   42   43 1    
    85   42   44 1    
    86   42  165 1    
    87   43  166 1    
    88   43  167 1    
    89   43  168 1    
    90   44   45 am   BACKBONE|DICT|INTERRES
    91   44  169 1    
    92   45   46 2    
    93   45   47 1    
    94   47   48 1    
    95   47   49 1    
    96   47  170 1    
    97   48  171 1    
    98   48  172 1    
    99   48  173 1    
   100   49   50 am   BACKBONE|DICT|INTERRES
   101   49  174 1    
   102   50   51 2    
   103   50   52 1    
   104   52   53 1    
   105   52   54 1    
   106   52  175 1    
   107   53  176 1    
   108   53  177 1    
   109   53  178 1    
   110   54   55 am   BACKBONE|DICT|INTERRES
   111   54  179 1    
   112   55   56 2    
   113   55   57 1    
   114   57   58 1    
   115   57   59 1    
   116   57  180 1    
   117   58  181 1    
   118   58  182 1    
   119   58  183 1    
   120   59   60 am   BACKBONE|DICT|INTERRES
   121   59  184 1    
   122   60   61 2    
   123   60   62 1    
   124   62   63 1    
   125   62   64 1    
   126   62  185 1    
   127   63  186 1    
   128   63  187 1    
   129   63  188 1    
   130   64   65 am   BACKBONE|DICT|INTERRES
   131   64  189 1    
   132   65   66 2    
   133   67   68 2    
   134   67   69 am   BACKBONE|DICT|INTERRES
   135   69   70 1    
   136   69  190 1    
   137   70   71 1    
   138   70   72 1    
   139   70  191 1    
   140   71  192 1    
   141   71  193 1    
   142   71  194 1    
   143   72   73 2    
   144   72   74 am   BACKBONE|DICT|INTERRES
   145   74   75 1    
   146   74  195 1    
   147   75   76 1    
   148   75   77 1    
   149   75  196 1    
   150   76  197 1    
   151   76  198 1    
   152   76  199 1    
   153   77   78 2    
   154   77   79 am   BACKBONE|DICT|INTERRES
   155   79   80 1    
   156   79  200 1    
   157   80   81 1    
   158   80   82 1    
   159   80  201 1    
   160   81  202 1    
   161   81  203 1    
   162   81  204 1    
   163   82   83 2    
   164   82   84 am   BACKBONE|DICT|INTERRES
   165   84   85 1    
   166   84  205 1    
   167   85   86 1    
   168   85   87 1    
   169   85  206 1    
   170   86  207 1    
   171   86  208 1    
   172   86  209 1    
   173   87   88 2    
   174   87   89 am   BACKBONE|DICT|INTERRES
   175   89   90 1    
   176   89  210 1    
   177   90   91 1    
   178   90   92 1    
   179   90  211 1    
   180   91  212 1    
   181   91  213 1    
   182   91  214 1    
   183   92   93 2    
   184   92   94 am   BACKBONE|DICT|INTERRES
   185   94   95 1    
   186   94  215 1    
   187   95   96 1    
   188   95   97 1    
   189   95  216 1    
   190   96  217 1    
   191   96  218 1    
   192   96  219 1    
   193   97   98 2    
   194   97   99 am   BACKBONE|DICT|INTERRES
   195   99  100 1    
   196   99  220 1    
   197  100  101 1    
   198  100  102 1    
   199  100  221 1    
   200  101  222 1    
   201  101  223 1    
   202  101  224 1    
   203  102  103 2    
   204  102  104 am   BACKBONE|DICT|INTERRES
   205  104  105 1    
   206  104  225 1    
   207  105  106 1    
   208  105  107 1    
   209  105  226 1    
   210  106  227 1    
   211  106  228 1    
   212  106  229 1    
   213  107  108 2    
   214  107  109 am   BACKBONE|DICT|INTERRES
   215  109  110 1    
   216  109  230 1    
   217  110  111 1    
   218  110  112 1    
   219  110  231 1    
   220  111  232 1    
   221  111  233 1    
   222  111  234 1    
   223  112  113 2    
   224  112  114 am   BACKBONE|DICT|INTERRES
   225  114  115 1    
   226  114  235 1    
   227  115  116 1    
   228  115  117 1    
   229  115  236 1    
   230  116  237 1    
   231  116  238 1    
   232  116  239 1    
   233  117  118 2    
   234  117  119 am   BACKBONE|DICT|INTERRES
   235  119  120 1    
   236  119  240 1    
   237  120  121 1    
   238  120  124 1    
   239  120  241 1    
   240  121  122 am   BACKBONE|DICT|INTERRES
   241  121  123 2    
   242  122  242 1    
   243  122  243 1    
   244  124  125 1    
   245  124  244 1    
   246  124  245 1    
   247  125  126 1    
   248  126  246 1    
   249  126  247 1    
@<TRIPOS>SUBSTRUCTURE
     1 UNK         1 GROUP             0       ****    0 ROOT    
