@<TRIPOS>MOLECULE
3R540
247   249    1
SMALL
USER_CHARGES


@<TRIPOS>ATOM
      1 CA          5.8477  -16.4133  -44.4376 C.3       0 UNK        -0.1800 
      2 C           4.9220  -16.7639  -45.5941 C.2       0 UNK         0.5000 
      3 O           4.4323  -17.8885  -45.6629 O.2       0 UNK        -0.5000 
      4 N           4.6870  -15.8075  -46.5000 N.am      1 UNK        -0.5000 
      5 CA          3.7742  -15.9306  -47.6389 C.3       1 UNK         0.1400 
      6 C6          4.1044  -14.8516  -48.7017 C.3       23 UNK        -0.0398 
      7 S7          3.0291  -14.8099  -50.1804 S.3       23 UNK        -0.2404 
      8 C8          3.7761  -16.0766  -51.2531 C.3       23 UNK        -0.0205 
      9 C9          3.0780  -17.4222  -51.1140 C.ar      23 UNK        -0.0193 
     10 C10         1.8686  -17.6512  -51.7770 C.ar      23 UNK        -0.1150 
     11 C11         1.2330  -18.8956  -51.7003 C.ar      23 UNK        -0.0193 
     12 C12         1.8162  -19.9123  -50.9382 C.ar      23 UNK        -0.1150 
     13 C13         3.0342  -19.7029  -50.2837 C.ar      23 UNK        -0.0193 
     14 C14         3.6598  -18.4558  -50.3753 C.ar      23 UNK        -0.1150 
     15 C15         3.7108  -20.8501  -49.5461 C.3       23 UNK        -0.0205 
     16 S16         3.9575  -20.5306  -47.7703 S.3       23 UNK        -0.2404 
     17 C17         2.2575  -20.3228  -47.1438 C.3       23 UNK        -0.0398 
     18 CA          1.5530  -21.6737  -46.8451 C.3       11 UNK         0.1400 
     19 N           0.8089  -21.6495  -45.5820 N.am      11 UNK        -0.5000 
     20 C           0.3881  -22.7456  -44.9363 C.2       10 UNK         0.5000 
     21 O           0.4020  -23.8720  -45.4292 O.2       10 UNK        -0.5000 
     22 CA         -0.1237  -22.5639  -43.5014 C.3       10 UNK         0.1400 
     23 CB          0.9168  -21.8690  -42.6059 C.3       10 UNK        -0.1800 
     24 N          -1.3613  -21.7940  -43.4971 N.am      10 UNK        -0.5000 
     25 C          -2.5559  -22.2648  -43.1148 C.2       9 UNK         0.5000 
     26 O          -2.7336  -23.4117  -42.7029 O.2       9 UNK        -0.5000 
     27 CA         -3.7630  -21.3042  -43.1775 C.3       9 UNK         0.1400 
     28 CB         -4.4448  -21.1860  -41.8042 C.3       9 UNK        -0.1800 
     29 N          -3.4286  -19.9573  -43.6415 N.am      9 UNK        -0.5000 
     30 C          -3.1905  -19.6174  -44.9130 C.2       8 UNK         0.5000 
     31 O          -3.1815  -20.4169  -45.8487 O.2       8 UNK        -0.5000 
     32 CA         -2.8359  -18.1391  -45.1466 C.3       8 UNK         0.1400 
     33 CB         -4.0799  -17.2468  -44.9922 C.3       8 UNK        -0.1800 
     34 N          -1.7925  -17.6470  -44.2406 N.am      8 UNK        -0.5000 
     35 C          -0.5641  -18.1615  -44.0870 C.2       7 UNK         0.5000 
     36 O          -0.1668  -19.1499  -44.7063 O.2       7 UNK        -0.5000 
     37 CA          0.3820  -17.4401  -43.1036 C.3       7 UNK         0.1400 
     38 CB          1.8601  -17.6792  -43.4516 C.3       7 UNK        -0.1800 
     39 N           0.1590  -15.9930  -43.0417 N.am      7 UNK        -0.5000 
     40 C          -0.7803  -15.3685  -42.3194 C.2       6 UNK         0.5000 
     41 O          -1.6660  -15.9755  -41.7175 O.2       6 UNK        -0.5000 
     42 CA         -0.7765  -13.8234  -42.3060 C.3       6 UNK         0.1400 
     43 CB         -0.8699  -13.2615  -40.8732 C.3       6 UNK        -0.1800 
     44 N           0.3305  -13.2040  -43.0494 N.am      6 UNK        -0.5000 
     45 C           1.6444  -13.2311  -42.7712 C.2       5 UNK         0.5000 
     46 O           2.1192  -13.7880  -41.7813 O.2       5 UNK        -0.5000 
     47 CA          2.5878  -12.5647  -43.7940 C.3       5 UNK         0.1400 
     48 CB          3.8829  -13.3731  -43.9734 C.3       5 UNK        -0.1800 
     49 N           1.9349  -12.4267  -45.0987 N.am      5 UNK        -0.5000 
     50 C           1.5661  -11.2646  -45.6533 C.2       4 UNK         0.5000 
     51 O           1.8144  -10.1608  -45.1672 O.2       4 UNK        -0.5000 
     52 CA          0.7401  -11.3478  -46.9509 C.3       4 UNK         0.1400 
     53 CB          1.6601  -11.4853  -48.1722 C.3       4 UNK        -0.1800 
     54 N          -0.2325  -12.4424  -46.9628 N.am      4 UNK        -0.5000 
     55 C          -1.2451  -12.6162  -46.1051 C.2       3 UNK         0.5000 
     56 O          -1.4590  -11.8713  -45.1494 O.2       3 UNK        -0.5000 
     57 CA         -2.1462  -13.8525  -46.3032 C.3       3 UNK         0.1400 
     58 CB         -3.2507  -13.5836  -47.3422 C.3       3 UNK        -0.1800 
     59 N          -1.4179  -15.0944  -46.5972 N.am      3 UNK        -0.5000 
     60 C          -0.6956  -15.4038  -47.6824 C.2       2 UNK         0.5000 
     61 O          -0.5449  -14.6610  -48.6542 O.2       2 UNK        -0.5000 
     62 CA          0.0111  -16.7682  -47.6530 C.3       2 UNK         0.1400 
     63 CB         -0.5950  -17.6972  -48.7096 C.3       2 UNK        -0.1800 
     64 N           1.4505  -16.6572  -47.8762 N.am      2 UNK        -0.5000 
     65 C           2.3017  -15.9001  -47.1693 C.2       1 UNK         0.5000 
     66 O           1.9700  -15.1978  -46.2069 O.2       1 UNK        -0.5000 
     67 C           0.6806  -22.1389  -48.0253 C.2       11 UNK         0.5000 
     68 O           1.0461  -23.0850  -48.7240 O.2       11 UNK        -0.5000 
     69 N          -0.4772  -21.4899  -48.2101 N.am      12 UNK        -0.5000 
     70 CA         -1.4273  -21.8374  -49.2688 C.3       12 UNK         0.1400 
     71 CB         -2.4198  -20.6900  -49.4853 C.3       12 UNK        -0.1800 
     72 C          -2.1447  -23.1703  -48.9979 C.2       12 UNK         0.5000 
     73 O          -2.4515  -23.8901  -49.9465 O.2       12 UNK        -0.5000 
     74 N          -2.3412  -23.5065  -47.7152 N.am      13 UNK        -0.5000 
     75 CA         -2.8679  -24.7983  -47.2771 C.3       13 UNK         0.1400 
     76 CB         -3.1675  -24.7522  -45.7735 C.3       13 UNK        -0.1800 
     77 C          -1.9174  -25.9614  -47.6197 C.2       13 UNK         0.5000 
     78 O          -2.3723  -26.9723  -48.1543 O.2       13 UNK        -0.5000 
     79 N          -0.6119  -25.7802  -47.3668 N.am      14 UNK        -0.5000 
     80 CA          0.4480  -26.7251  -47.7341 C.3       14 UNK         0.1400 
     81 CB          1.7730  -26.2922  -47.0891 C.3       14 UNK        -0.1800 
     82 C           0.6136  -26.8815  -49.2579 C.2       14 UNK         0.5000 
     83 O           0.9136  -27.9797  -49.7269 O.2       14 UNK        -0.5000 
     84 N           0.3738  -25.7943  -50.0039 N.am      15 UNK        -0.5000 
     85 CA          0.3304  -25.7728  -51.4681 C.3       15 UNK         0.1400 
     86 CB          0.4882  -24.3203  -51.9481 C.3       15 UNK        -0.1800 
     87 C          -0.9503  -26.4047  -52.0603 C.2       15 UNK         0.5000 
     88 O          -1.0192  -26.5735  -53.2784 O.2       15 UNK        -0.5000 
     89 N          -1.9341  -26.7296  -51.2056 N.am      16 UNK        -0.5000 
     90 CA         -3.2620  -27.2675  -51.5222 C.3       16 UNK         0.1400 
     91 CB         -3.1561  -28.6759  -52.1436 C.3       16 UNK        -0.1800 
     92 C          -4.1201  -26.2925  -52.3566 C.2       16 UNK         0.5000 
     93 O          -4.8813  -26.7206  -53.2268 O.2       16 UNK        -0.5000 
     94 N          -3.9758  -24.9951  -52.0702 N.am      17 UNK        -0.5000 
     95 CA         -4.6885  -23.8904  -52.6997 C.3       17 UNK         0.1400 
     96 CB         -3.6424  -22.8566  -53.1461 C.3       17 UNK        -0.1800 
     97 C          -5.6847  -23.2648  -51.7067 C.2       17 UNK         0.5000 
     98 O          -5.7084  -23.6322  -50.5286 O.2       17 UNK        -0.5000 
     99 N          -6.4906  -22.3132  -52.1978 N.am      18 UNK        -0.5000 
    100 CA        -7.3883  -21.4914  -51.3847 C.3       18 UNK         0.1400 
    101 CB        -8.3151  -20.6844  -52.3065 C.3       18 UNK        -0.1800 
    102 C         -6.5710  -20.5599  -50.4730 C.2       18 UNK         0.5000 
    103 O         -5.8013  -19.7469  -50.9878 O.2       18 UNK        -0.5000 
    104 N         -6.7391  -20.7162  -49.1536 N.am      19 UNK        -0.5000 
    105 CA        -5.8990  -20.1509  -48.0922 C.3       19 UNK         0.1400 
    106 CB        -6.5546  -20.4408  -46.7318 C.3       19 UNK        -0.1800 
    107 C         -5.5753  -18.6507  -48.2257 C.2       19 UNK         0.5000 
    108 O         -4.4160  -18.2583  -48.1061 O.2       19 UNK        -0.5000 
    109 N         -6.6093  -17.8401  -48.4709 N.am      20 UNK        -0.5000 
    110 CA        -6.5021  -16.3825  -48.5204 C.3       20 UNK         0.1400 
    111 CB        -7.8242  -15.7877  -48.0080 C.3       20 UNK        -0.1800 
    112 C         -6.1699  -15.8260  -49.9190 C.2       20 UNK         0.5000 
    113 O         -5.9324  -14.6219  -50.0266 O.2       20 UNK        -0.5000 
    114 N         -6.2063  -16.6685  -50.9617 N.am      21 UNK        -0.5000 
    115 CA        -6.1900  -16.2266  -52.3600 C.3       21 UNK         0.1400 
    116 CB        -7.5698  -16.5171  -52.9745 C.3       21 UNK        -0.1800 
    117 C         -5.0845  -16.8644  -53.2172 C.2       21 UNK         0.5000 
    118 O         -4.7391  -16.2859  -54.2482 O.2       21 UNK        -0.5000 
    119 N         -4.5795  -18.0415  -52.8229 N.am      22 UNK        -0.5000 
    120 CA        -3.6649  -18.8945  -53.6076 C.3       22 UNK         0.1400 
    121 C         -4.3109  -19.5077  -54.8920 C.2       22 UNK         0.5000 
    122 N         -5.6319  -19.5326  -55.0240 N.am      22 UNK        -0.7600 
    123 O         -3.6125  -20.0078  -55.7693 O.2       22 UNK        -0.5000 
    124 C124       -2.2825  -18.2409  -53.8946 C.3       23 UNK        -0.0398 
    125 S125       -1.3127  -17.9086  -52.3844 S.3       23 UNK        -0.2404 
    126 C126       -0.0158  -19.1853  -52.5266 C.3       23 UNK        -0.0205 
    127 H127        5.3061  -16.4776  -43.4938 H         1 UNK         0.0600 
    128 H128        6.6839  -17.1115  -44.4009 H         1 UNK         0.0600 
    129 H129        6.2508  -15.4046  -44.5309 H         1 UNK         0.0600 
    130 H130        5.1021  -14.8971  -46.3689 H         1 UNK         0.3000 
    131 H131        3.9551  -16.9076  -48.0881 H         1 UNK         0.0600 
    132 H132        4.0575  -13.8627  -48.2440 H         1 UNK         0.0800 
    133 H133        5.1380  -14.9665  -49.0307 H         1 UNK         0.0800 
    134 H134        4.8441  -16.1689  -51.0509 H         1 UNK         0.0800 
    135 H135        3.6972  -15.7418  -52.2884 H         1 UNK         0.0800 
    136 H136        1.4342  -16.8642  -52.3775 H         1 UNK         0.1150 
    137 H137        1.3471  -20.8853  -50.8946 H         1 UNK         0.1150 
    138 H138        4.6133  -18.3022  -49.8894 H         1 UNK         0.1150 
    139 H139        3.1569  -21.7803  -49.6733 H         1 UNK         0.0800 
    140 H140        4.6868  -21.0236  -50.0012 H         1 UNK         0.0800 
    141 H141        1.6887  -19.6880  -47.8214 H         1 UNK         0.0800 
    142 H142        2.3509  -19.7382  -46.2269 H         1 UNK         0.0800 
    143 H143        2.3255  -22.4354  -46.7139 H         1 UNK         0.0600 
    144 H144        0.6664  -20.7371  -45.1556 H         1 UNK         0.3000 
    145 H145       -0.2869  -23.5638  -43.0939 H         1 UNK         0.0600 
    146 H146        0.5877  -21.8553  -41.5669 H         1 UNK         0.0600 
    147 H147        1.8725  -22.3938  -42.6367 H         1 UNK         0.0600 
    148 H148        1.0969  -20.8381  -42.9078 H         1 UNK         0.0600 
    149 H149       -1.3077  -20.8556  -43.8709 H         1 UNK         0.3000 
    150 H150       -4.4806  -21.7405  -43.8758 H         1 UNK         0.0600 
    151 H151       -4.7733  -22.1608  -41.4412 H         1 UNK         0.0600 
    152 H152       -5.3280  -20.5490  -41.8556 H         1 UNK         0.0600 
    153 H153       -3.7706  -20.7672  -41.0561 H         1 UNK         0.0600 
    154 H154       -3.3745  -19.2399  -42.9330 H         1 UNK         0.3000 
    155 H155       -2.4707  -18.0523  -46.1711 H         1 UNK         0.0600 
    156 H156       -4.9307  -17.6462  -45.5431 H         1 UNK         0.0600 
    157 H157       -4.3880  -17.1582  -43.9498 H         1 UNK         0.0600 
    158 H158       -3.8961  -16.2429  -45.3728 H         1 UNK         0.0600 
    159 H159       -2.0519  -16.8992  -43.6085 H         1 UNK         0.3000 
    160 H160        0.1977  -17.8664  -42.1155 H         1 UNK         0.0600 
    161 H161        2.5216  -17.1624  -42.7560 H         1 UNK         0.0600 
    162 H162        2.1172  -18.7378  -43.4134 H         1 UNK         0.0600 
    163 H163        2.0890  -17.3249  -44.4560 H         1 UNK         0.0600 
    164 H164        0.8311  -15.4222  -43.5335 H         1 UNK         0.3000 
    165 H165       -1.6853  -13.5231  -42.8291 H         1 UNK         0.0600 
    166 H166       -0.8886  -12.1717  -40.8775 H         1 UNK         0.0600 
    167 H167       -1.7829  -13.5978  -40.3804 H         1 UNK         0.0600 
    168 H168       -0.0321  -13.5815  -40.2535 H         1 UNK         0.0600 
    169 H169        0.0447  -12.6856  -43.8720 H         1 UNK         0.3000 
    170 H170        2.8538  -11.5868  -43.3887 H         1 UNK         0.0600 
    171 H171        4.5128  -12.9479  -44.7547 H         1 UNK         0.0600 
    172 H172        3.6654  -14.4074  -44.2364 H         1 UNK         0.0600 
    173 H173        4.4695  -13.3863  -43.0541 H         1 UNK         0.0600 
    174 H174        1.7200  -13.2963  -45.5790 H         1 UNK         0.3000 
    175 H175        0.1834  -10.4133  -47.0458 H         1 UNK         0.0600 
    176 H176        2.1876  -12.4386  -48.1662 H         1 UNK         0.0600 
    177 H177        1.0933  -11.4253  -49.1015 H         1 UNK         0.0600 
    178 H178        2.4082  -10.6919  -48.1946 H         1 UNK         0.0600 
    179 H179       -0.1461  -13.1254  -47.7123 H         1 UNK         0.3000 
    180 H180       -2.6419  -14.0265  -45.3469 H         1 UNK         0.0600 
    181 H181       -2.8423  -13.3621  -48.3286 H         1 UNK         0.0600 
    182 H182       -3.8629  -12.7309  -47.0465 H         1 UNK         0.0600 
    183 H183       -3.9148  -14.4416  -47.4418 H         1 UNK         0.0600 
    184 H184       -1.4345  -15.7727  -45.8506 H         1 UNK         0.3000 
    185 H185       -0.1266  -17.2248  -46.6756 H         1 UNK         0.0600 
    186 H186       -0.4348  -17.3013  -49.7116 H         1 UNK         0.0600 
    187 H187       -0.1597  -18.6929  -48.6732 H         1 UNK         0.0600 
    188 H188       -1.6713  -17.8046  -48.5692 H         1 UNK         0.0600 
    189 H189        1.8031  -17.1349  -48.6933 H         1 UNK         0.3000 
    190 H190       -0.7481  -20.7600  -47.5668 H         1 UNK         0.3000 
    191 H191       -0.8724  -21.9612  -50.2003 H         1 UNK         0.0600 
    192 H192       -2.7871  -20.3040  -48.5368 H         1 UNK         0.0600 
    193 H193       -3.2796  -21.0041  -50.0790 H         1 UNK         0.0600 
    194 H194       -1.9509  -19.8640  -50.0183 H         1 UNK         0.0600 
    195 H195       -2.0613  -22.8547  -46.9972 H         1 UNK         0.3000 
    196 H196       -3.8091  -24.9695  -47.8045 H         1 UNK         0.0600 
    197 H197       -3.6148  -25.6880  -45.4365 H         1 UNK         0.0600 
    198 H198       -3.8683  -23.9521  -45.5346 H         1 UNK         0.0600 
    199 H199       -2.2622  -24.5941  -45.1874 H         1 UNK         0.0600 
    200 H200       -0.3122  -24.9425  -46.8755 H         1 UNK         0.3000 
    201 H201        0.1779  -27.7031  -47.3306 H         1 UNK         0.0600 
    202 H202        1.6945  -26.2766  -46.0020 H         1 UNK         0.0600 
    203 H203        2.0742  -25.2967  -47.4171 H         1 UNK         0.0600 
    204 H204        2.5781  -26.9816  -47.3463 H         1 UNK         0.0600 
    205 H205        0.2013  -24.9148  -49.5312 H         1 UNK         0.3000 
    206 H206        1.1803  -26.3466  -51.8433 H         1 UNK         0.0600 
    207 H207        1.3730  -23.8511  -51.5171 H         1 UNK         0.0600 
    208 H208        0.5936  -24.2781  -53.0327 H         1 UNK         0.0600 
    209 H209       -0.3777  -23.7146  -51.6843 H         1 UNK         0.0600 
    210 H210       -1.7813  -26.5364  -50.2238 H         1 UNK         0.3000 
    211 H211       -3.7772  -27.3723  -50.5665 H         1 UNK         0.0600 
    212 H212       -2.7125  -28.6495  -53.1391 H         1 UNK         0.0600 
    213 H213       -4.1406  -29.1356  -52.2378 H         1 UNK         0.0600 
    214 H214       -2.5496  -29.3352  -51.5226 H         1 UNK         0.0600 
    215 H215       -3.3815  -24.7279  -51.2869 H         1 UNK         0.3000 
    216 H216       -5.2434  -24.2359  -53.5741 H         1 UNK         0.0600 
    217 H217       -4.1087  -22.0653  -53.7285 H         1 UNK         0.0600 
    218 H218       -2.8801  -23.3129  -53.7783 H         1 UNK         0.0600 
    219 H219       -3.1383  -22.3947  -52.2961 H         1 UNK         0.0600 
    220 H220       -6.4038  -22.0514  -53.1686 H         1 UNK         0.3000 
    221 H221       -8.0046  -22.1518  -50.7710 H         1 UNK         0.0600 
    222 H222       -7.7528  -20.0394  -52.9811 H         1 UNK         0.0600 
    223 H223       -8.9357  -21.3430  -52.9144 H         1 UNK         0.0600 
    224 H224       -8.9862  -20.0489  -51.7272 H         1 UNK         0.0600 
    225 H225       -7.4046  -21.4112  -48.8479 H         1 UNK         0.3000 
    226 H226       -4.9549  -20.6936  -48.1190 H         1 UNK         0.0600 
    227 H227       -6.6219  -21.5133  -46.5483 H         1 UNK         0.0600 
    228 H228       -5.9766  -20.0120  -45.9133 H         1 UNK         0.0600 
    229 H229       -7.5612  -20.0254  -46.6719 H         1 UNK         0.0600 
    230 H230       -7.5303  -18.2389  -48.5806 H         1 UNK         0.3000 
    231 H231       -5.7088  -16.0541  -47.8457 H         1 UNK         0.0600 
    232 H232       -7.7803  -14.6982  -47.9782 H         1 UNK         0.0600 
    233 H233       -8.0435  -16.1283  -46.9958 H         1 UNK         0.0600 
    234 H234       -8.6642  -16.0651  -48.6461 H         1 UNK         0.0600 
    235 H235       -6.3366  -17.6573  -50.7879 H         1 UNK         0.3000 
    236 H236       -6.0261  -15.1489  -52.4210 H         1 UNK         0.0600 
    237 H237       -8.3541  -15.9682  -52.4531 H         1 UNK         0.0600 
    238 H238       -7.6072  -16.2162  -54.0225 H         1 UNK         0.0600 
    239 H239       -7.8171  -17.5775  -52.9265 H         1 UNK         0.0600 
    240 H240       -4.9481  -18.4846  -51.9852 H         1 UNK         0.3000 
    241 H241       -3.4768  -19.7592  -52.9707 H         1 UNK         0.0600 
    242 H242       -6.0366  -19.9318  -55.8563 H         1 UNK         0.3800 
    243 H243       -6.2233  -19.1182  -54.3244 H         1 UNK         0.3800 
    244 H244       -1.6877  -18.8775  -54.5500 H         1 UNK         0.0800 
    245 H245       -2.3988  -17.3051  -54.4408 H         1 UNK         0.0800 
    246 H246       -0.4487  -20.1490  -52.2536 H         1 UNK         0.0800 
    247 H247        0.3033  -19.2715  -53.5657 H         1 UNK         0.0800 
@<TRIPOS>BOND
     1    1    2 1    
     2    1  127 1    
     3    1  128 1    
     4    1  129 1    
     5    2    3 2    
     6    2    4 am   BACKBONE|DICT|INTERRES
     7    4    5 1    
     8    4  130 1    
     9    5    6 1    
    10    5   65 1    
    11    5  131 1    
    12    6    7 1    
    13    6  132 1    
    14    6  133 1    
    15    7    8 1    
    16    8    9 1    
    17    8  134 1    
    18    8  135 1    
    19    9   10 ar   
    20    9   14 ar   
    21   10   11 ar   
    22   10  136 1    
    23   11   12 ar   
    24   11  126 1    
    25   12   13 ar   
    26   12  137 1    
    27   13   14 ar   
    28   13   15 1    
    29   14  138 1    
    30   15   16 1    
    31   15  139 1    
    32   15  140 1    
    33   16   17 1    
    34   17   18 1    
    35   17  141 1    
    36   17  142 1    
    37   18   19 1    
    38   18   67 1    
    39   18  143 1    
    40   19   20 am   BACKBONE|DICT|INTERRES
    41   19  144 1    
    42   20   21 2    
    43   20   22 1    
    44   22   23 1    
    45   22   24 1    
    46   22  145 1    
    47   23  146 1    
    48   23  147 1    
    49   23  148 1    
    50   24   25 am   BACKBONE|DICT|INTERRES
    51   24  149 1    
    52   25   26 2    
    53   25   27 1    
    54   27   28 1    
    55   27   29 1    
    56   27  150 1    
    57   28  151 1    
    58   28  152 1    
    59   28  153 1    
    60   29   30 am   BACKBONE|DICT|INTERRES
    61   29  154 1    
    62   30   31 2    
    63   30   32 1    
    64   32   33 1    
    65   32   34 1    
    66   32  155 1    
    67   33  156 1    
    68   33  157 1    
    69   33  158 1    
    70   34   35 am   BACKBONE|DICT|INTERRES
    71   34  159 1    
    72   35   36 2    
    73   35   37 1    
    74   37   38 1    
    75   37   39 1    
    76   37  160 1    
    77   38  161 1    
    78   38  162 1    
    79   38  163 1    
    80   39   40 am   BACKBONE|DICT|INTERRES
    81   39  164 1    
    82   40   41 2    
    83   40   42 1    
    84   42   43 1    
    85   42   44 1    
    86   42  165 1    
    87   43  166 1    
    88   43  167 1    
    89   43  168 1    
    90   44   45 am   BACKBONE|DICT|INTERRES
    91   44  169 1    
    92   45   46 2    
    93   45   47 1    
    94   47   48 1    
    95   47   49 1    
    96   47  170 1    
    97   48  171 1    
    98   48  172 1    
    99   48  173 1    
   100   49   50 am   BACKBONE|DICT|INTERRES
   101   49  174 1    
   102   50   51 2    
   103   50   52 1    
   104   52   53 1    
   105   52   54 1    
   106   52  175 1    
   107   53  176 1    
   108   53  177 1    
   109   53  178 1    
   110   54   55 am   BACKBONE|DICT|INTERRES
   111   54  179 1    
   112   55   56 2    
   113   55   57 1    
   114   57   58 1    
   115   57   59 1    
   116   57  180 1    
   117   58  181 1    
   118   58  182 1    
   119   58  183 1    
   120   59   60 am   BACKBONE|DICT|INTERRES
   121   59  184 1    
   122   60   61 2    
   123   60   62 1    
   124   62   63 1    
   125   62   64 1    
   126   62  185 1    
   127   63  186 1    
   128   63  187 1    
   129   63  188 1    
   130   64   65 am   BACKBONE|DICT|INTERRES
   131   64  189 1    
   132   65   66 2    
   133   67   68 2    
   134   67   69 am   BACKBONE|DICT|INTERRES
   135   69   70 1    
   136   69  190 1    
   137   70   71 1    
   138   70   72 1    
   139   70  191 1    
   140   71  192 1    
   141   71  193 1    
   142   71  194 1    
   143   72   73 2    
   144   72   74 am   BACKBONE|DICT|INTERRES
   145   74   75 1    
   146   74  195 1    
   147   75   76 1    
   148   75   77 1    
   149   75  196 1    
   150   76  197 1    
   151   76  198 1    
   152   76  199 1    
   153   77   78 2    
   154   77   79 am   BACKBONE|DICT|INTERRES
   155   79   80 1    
   156   79  200 1    
   157   80   81 1    
   158   80   82 1    
   159   80  201 1    
   160   81  202 1    
   161   81  203 1    
   162   81  204 1    
   163   82   83 2    
   164   82   84 am   BACKBONE|DICT|INTERRES
   165   84   85 1    
   166   84  205 1    
   167   85   86 1    
   168   85   87 1    
   169   85  206 1    
   170   86  207 1    
   171   86  208 1    
   172   86  209 1    
   173   87   88 2    
   174   87   89 am   BACKBONE|DICT|INTERRES
   175   89   90 1    
   176   89  210 1    
   177   90   91 1    
   178   90   92 1    
   179   90  211 1    
   180   91  212 1    
   181   91  213 1    
   182   91  214 1    
   183   92   93 2    
   184   92   94 am   BACKBONE|DICT|INTERRES
   185   94   95 1    
   186   94  215 1    
   187   95   96 1    
   188   95   97 1    
   189   95  216 1    
   190   96  217 1    
   191   96  218 1    
   192   96  219 1    
   193   97   98 2    
   194   97   99 am   BACKBONE|DICT|INTERRES
   195   99  100 1    
   196   99  220 1    
   197  100  101 1    
   198  100  102 1    
   199  100  221 1    
   200  101  222 1    
   201  101  223 1    
   202  101  224 1    
   203  102  103 2    
   204  102  104 am   BACKBONE|DICT|INTERRES
   205  104  105 1    
   206  104  225 1    
   207  105  106 1    
   208  105  107 1    
   209  105  226 1    
   210  106  227 1    
   211  106  228 1    
   212  106  229 1    
   213  107  108 2    
   214  107  109 am   BACKBONE|DICT|INTERRES
   215  109  110 1    
   216  109  230 1    
   217  110  111 1    
   218  110  112 1    
   219  110  231 1    
   220  111  232 1    
   221  111  233 1    
   222  111  234 1    
   223  112  113 2    
   224  112  114 am   BACKBONE|DICT|INTERRES
   225  114  115 1    
   226  114  235 1    
   227  115  116 1    
   228  115  117 1    
   229  115  236 1    
   230  116  237 1    
   231  116  238 1    
   232  116  239 1    
   233  117  118 2    
   234  117  119 am   BACKBONE|DICT|INTERRES
   235  119  120 1    
   236  119  240 1    
   237  120  121 1    
   238  120  124 1    
   239  120  241 1    
   240  121  122 am   BACKBONE|DICT|INTERRES
   241  121  123 2    
   242  122  242 1    
   243  122  243 1    
   244  124  125 1    
   245  124  244 1    
   246  124  245 1    
   247  125  126 1    
   248  126  246 1    
   249  126  247 1    
@<TRIPOS>SUBSTRUCTURE
     1 UNK         1 GROUP             0       ****    0 ROOT    
