@<TRIPOS>MOLECULE
3R540
247   249    1
SMALL
USER_CHARGES


@<TRIPOS>ATOM
      1 CA         -5.7219  -14.6623  -52.8782 C.3       0 UNK        -0.1800 
      2 C          -4.5779  -14.4905  -51.8893 C.2       0 UNK         0.5000 
      3 O          -4.2266  -13.3599  -51.5517 O.2       0 UNK        -0.5000 
      4 N          -3.9943  -15.6028  -51.4290 N.am      1 UNK        -0.5000 
      5 CA         -2.9636  -15.6383  -50.3913 C.3       1 UNK         0.1400 
      6 C6         -2.2600  -17.0184  -50.3446 C.3       23 UNK        -0.0398 
      7 S7         -0.6709  -16.9520  -49.4453 S.3       23 UNK        -0.2404 
      8 C8          0.5476  -17.2544  -50.7621 C.3       23 UNK        -0.0205 
      9 C9          0.8559  -18.7352  -50.9289 C.ar      23 UNK        -0.0193 
     10 C10         0.1394  -19.5064  -51.8466 C.ar      23 UNK        -0.1150 
     11 C11         0.4708  -20.8479  -52.0653 C.ar      23 UNK        -0.0193 
     12 C12         1.5016  -21.4268  -51.3199 C.ar      23 UNK        -0.1150 
     13 C13         2.2138  -20.6751  -50.3806 C.ar      23 UNK        -0.0193 
     14 C14         1.8912  -19.3260  -50.1975 C.ar      23 UNK        -0.1150 
     15 C15         3.3512  -21.3226  -49.5968 C.3       23 UNK        -0.0205 
     16 S16         3.2033  -21.1115  -47.7919 S.3       23 UNK        -0.2404 
     17 C17         1.6213  -21.9400  -47.4236 C.3       23 UNK        -0.0398 
     18 CA          1.7662  -23.1749  -46.4991 C.3       11 UNK         0.1400 
     19 N           2.3877  -22.8287  -45.2228 N.am      11 UNK        -0.5000 
     20 C           3.0517  -23.6701  -44.4242 C.2       10 UNK         0.5000 
     21 O           3.2668  -24.8498  -44.7102 O.2       10 UNK        -0.5000 
     22 CA          3.5448  -23.0887  -43.0803 C.3       10 UNK         0.1400 
     23 CB          4.6307  -23.9501  -42.4025 C.3       10 UNK        -0.1800 
     24 N           3.9666  -21.6869  -43.1792 N.am      10 UNK        -0.5000 
     25 C           4.9845  -21.1765  -43.8887 C.2       9 UNK         0.5000 
     26 O           5.7842  -21.8602  -44.5291 O.2       9 UNK        -0.5000 
     27 CA          5.1439  -19.6396  -43.8926 C.3       9 UNK         0.1400 
     28 CB          4.8442  -19.0629  -45.2842 C.3       9 UNK        -0.1800 
     29 N           4.2910  -18.9559  -42.9185 N.am      9 UNK        -0.5000 
     30 C           4.5354  -18.8710  -41.6047 C.2       8 UNK         0.5000 
     31 O           5.5486  -19.3185  -41.0666 O.2       8 UNK        -0.5000 
     32 CA          3.4448  -18.2046  -40.7431 C.3       8 UNK         0.1400 
     33 CB          3.6157  -16.6782  -40.7307 C.3       8 UNK        -0.1800 
     34 N           2.0872  -18.5422  -41.1802 N.am      8 UNK        -0.5000 
     35 C           1.5626  -19.7760  -41.1400 C.2       7 UNK         0.5000 
     36 O           2.1566  -20.7575  -40.6937 O.2       7 UNK        -0.5000 
     37 CA          0.1593  -19.9594  -41.7428 C.3       7 UNK         0.1400 
     38 CB         -0.9246  -19.5424  -40.7381 C.3       7 UNK        -0.1800 
     39 N          -0.0167  -19.2292  -42.9983 N.am      7 UNK        -0.5000 
     40 C           0.6607  -19.4883  -44.1258 C.2       6 UNK         0.5000 
     41 O           1.4960  -20.3831  -44.2278 O.2       6 UNK        -0.5000 
     42 CA          0.3992  -18.5711  -45.3316 C.3       6 UNK         0.1400 
     43 CB         -0.9119  -18.9522  -46.0303 C.3       6 UNK        -0.1800 
     44 N           0.3672  -17.1589  -44.9632 N.am      6 UNK        -0.5000 
     45 C           1.3867  -16.4899  -44.4071 C.2       5 UNK         0.5000 
     46 O           2.4954  -16.9779  -44.1899 O.2       5 UNK        -0.5000 
     47 CA          1.0934  -15.0483  -43.9646 C.3       5 UNK         0.1400 
     48 CB          1.1414  -14.0869  -45.1616 C.3       5 UNK        -0.1800 
     49 N          -0.2041  -14.9464  -43.2957 N.am      5 UNK        -0.5000 
     50 C          -0.4746  -15.4712  -42.0918 C.2       4 UNK         0.5000 
     51 O           0.3528  -16.0692  -41.4032 O.2       4 UNK        -0.5000 
     52 CA         -1.9246  -15.3359  -41.5923 C.3       4 UNK         0.1400 
     53 CB         -2.1621  -13.9471  -40.9809 C.3       4 UNK        -0.1800 
     54 N          -2.9081  -15.5775  -42.6496 N.am      4 UNK        -0.5000 
     55 C          -3.1070  -16.7676  -43.2328 C.2       3 UNK         0.5000 
     56 O          -2.4985  -17.7899  -42.9242 O.2       3 UNK        -0.5000 
     57 CA         -4.1239  -16.8198  -44.3857 C.3       3 UNK         0.1400 
     58 CB         -5.5405  -17.0737  -43.8512 C.3       3 UNK        -0.1800 
     59 N          -4.1229  -15.6276  -45.2367 N.am      3 UNK        -0.5000 
     60 C          -3.0685  -15.2073  -45.9475 C.2       2 UNK         0.5000 
     61 O          -1.9452  -15.7088  -45.8734 O.2       2 UNK        -0.5000 
     62 CA         -3.3037  -14.0296  -46.9065 C.3       2 UNK         0.1400 
     63 CB         -2.5087  -12.7914  -46.4643 C.3       2 UNK        -0.1800 
     64 N          -2.9115  -14.4023  -48.2643 N.am      2 UNK        -0.5000 
     65 C          -3.5883  -15.2703  -49.0275 C.2       1 UNK         0.5000 
     66 O          -4.6626  -15.7779  -48.6933 O.2       1 UNK        -0.5000 
     67 C           0.3724  -23.7826  -46.2486 C.2       11 UNK         0.5000 
     68 O          -0.3348  -23.3478  -45.3356 O.2       11 UNK        -0.5000 
     69 N          -0.0431  -24.7096  -47.1241 N.am      12 UNK        -0.5000 
     70 CA         -1.3987  -25.2775  -47.1542 C.3       12 UNK         0.1400 
     71 CB         -1.4217  -26.4749  -48.1152 C.3       12 UNK        -0.1800 
     72 C          -2.4826  -24.2529  -47.5515 C.2       12 UNK         0.5000 
     73 O          -3.6597  -24.4594  -47.2520 O.2       12 UNK        -0.5000 
     74 N          -2.0593  -23.1488  -48.1849 N.am      13 UNK        -0.5000 
     75 CA         -2.8677  -22.0063  -48.6123 C.3       13 UNK         0.1400 
     76 CB         -1.9419  -20.9622  -49.2495 C.3       13 UNK        -0.1800 
     77 C          -3.7195  -21.3602  -47.5040 C.2       13 UNK         0.5000 
     78 O          -4.7644  -20.7926  -47.8182 O.2       13 UNK        -0.5000 
     79 N          -3.2908  -21.4897  -46.2397 N.am      14 UNK        -0.5000 
     80 CA         -4.0283  -21.0342  -45.0600 C.3       14 UNK         0.1400 
     81 CB         -3.1293  -21.1667  -43.8219 C.3       14 UNK        -0.1800 
     82 C          -5.3482  -21.7969  -44.8394 C.2       14 UNK         0.5000 
     83 O          -6.3117  -21.2070  -44.3500 O.2       14 UNK        -0.5000 
     84 N          -5.3665  -23.0845  -45.2081 N.am      15 UNK        -0.5000 
     85 CA         -6.5395  -23.9518  -45.1346 C.3       15 UNK         0.1400 
     86 CB         -6.0966  -25.3606  -44.7090 C.3       15 UNK        -0.1800 
     87 C          -7.2745  -24.0032  -46.4831 C.2       15 UNK         0.5000 
     88 O          -8.5057  -23.9894  -46.5037 O.2       15 UNK        -0.5000 
     89 N          -6.5107  -24.0688  -47.5829 N.am      16 UNK        -0.5000 
     90 CA         -7.0313  -24.2105  -48.9433 C.3       16 UNK         0.1400 
     91 CB         -5.9003  -24.7025  -49.8601 C.3       16 UNK        -0.1800 
     92 C          -7.6663  -22.9277  -49.5144 C.2       16 UNK         0.5000 
     93 O          -8.4808  -23.0321  -50.4321 O.2       16 UNK        -0.5000 
     94 N          -7.2743  -21.7557  -48.9875 N.am      17 UNK        -0.5000 
     95 CA         -7.6386  -20.4099  -49.4528 C.3       17 UNK         0.1400 
     96 CB         -9.1394  -20.1313  -49.2273 C.3       17 UNK        -0.1800 
     97 C          -7.1782  -20.1682  -50.9067 C.2       17 UNK         0.5000 
     98 O          -7.9596  -19.7249  -51.7511 O.2       17 UNK        -0.5000 
     99 N          -5.9156  -20.5271  -51.1719 N.am      18 UNK        -0.5000 
    100 CA        -5.2850  -20.4925  -52.4905 C.3       18 UNK         0.1400 
    101 CB        -3.9774  -21.2936  -52.4251 C.3       18 UNK        -0.1800 
    102 C         -5.0121  -19.0637  -52.9965 C.2       18 UNK         0.5000 
    103 O         -4.9803  -18.1157  -52.2082 O.2       18 UNK        -0.5000 
    104 N         -4.7922  -18.9513  -54.3121 N.am      19 UNK        -0.5000 
    105 CA        -4.4334  -17.7188  -55.0141 C.3       19 UNK         0.1400 
    106 CB        -4.4696  -17.9932  -56.5265 C.3       19 UNK        -0.1800 
    107 C         -3.0498  -17.1749  -54.6076 C.2       19 UNK         0.5000 
    108 O         -2.2088  -17.9194  -54.1061 O.2       19 UNK        -0.5000 
    109 N         -2.8201  -15.8858  -54.8829 N.am      20 UNK        -0.5000 
    110 CA        -1.5586  -15.1897  -54.6064 C.3       20 UNK         0.1400 
    111 CB        -1.8288  -13.6760  -54.6040 C.3       20 UNK        -0.1800 
    112 C         -0.4223  -15.5331  -55.5960 C.2       20 UNK         0.5000 
    113 O          0.7047  -15.0794  -55.3958 O.2       20 UNK        -0.5000 
    114 N         -0.7366  -16.2843  -56.6617 N.am      21 UNK        -0.5000 
    115 CA         0.1954  -16.6826  -57.7174 C.3       21 UNK         0.1400 
    116 CB        -0.6036  -17.2593  -58.8967 C.3       21 UNK        -0.1800 
    117 C          1.2671  -17.6855  -57.2486 C.2       21 UNK         0.5000 
    118 O          2.4053  -17.6111  -57.7148 O.2       21 UNK        -0.5000 
    119 N          0.8870  -18.6021  -56.3506 N.am      22 UNK        -0.5000 
    120 CA         1.7884  -19.5656  -55.7006 C.3       22 UNK         0.1400 
    121 C          2.5034  -18.9785  -54.4486 C.2       22 UNK         0.5000 
    122 N          3.4662  -19.6966  -53.8846 N.am      22 UNK        -0.7600 
    123 O          2.2202  -17.8739  -53.9908 O.2       22 UNK        -0.5000 
    124 C124        1.0949  -20.9345  -55.4442 C.3       23 UNK        -0.0398 
    125 S125       -0.5619  -20.8504  -54.6767 S.3       23 UNK        -0.2404 
    126 C126       -0.2952  -21.6898  -53.0787 C.3       23 UNK        -0.0205 
    127 H127       -5.3987  -14.3823  -53.8803 H         1 UNK         0.0600 
    128 H128       -6.5592  -14.0232  -52.5982 H         1 UNK         0.0600 
    129 H129       -6.0814  -15.6908  -52.9036 H         1 UNK         0.0600 
    130 H130       -4.3650  -16.5114  -51.7068 H         1 UNK         0.3000 
    131 H131       -2.2186  -14.8839  -50.6547 H         1 UNK         0.0600 
    132 H132       -2.9031  -17.7683  -49.8813 H         1 UNK         0.0800 
    133 H133       -2.0767  -17.3769  -51.3581 H         1 UNK         0.0800 
    134 H134        1.4659  -16.7211  -50.5124 H         1 UNK         0.0800 
    135 H135        0.2046  -16.8277  -51.7062 H         1 UNK         0.0800 
    136 H136       -0.6590  -19.0533  -52.4150 H         1 UNK         0.1150 
    137 H137        1.7548  -22.4659  -51.4763 H         1 UNK         0.1150 
    138 H138        2.4506  -18.7339  -49.4871 H         1 UNK         0.1150 
    139 H139        3.4197  -22.3889  -49.8177 H         1 UNK         0.0800 
    140 H140        4.2933  -20.8810  -49.9235 H         1 UNK         0.0800 
    141 H141        1.1428  -22.2241  -48.3617 H         1 UNK         0.0800 
    142 H142        0.9690  -21.1956  -46.9674 H         1 UNK         0.0800 
    143 H143        2.3889  -23.9157  -47.0054 H         1 UNK         0.0600 
    144 H144        2.1898  -21.8908  -44.8771 H         1 UNK         0.3000 
    145 H145        2.6746  -23.0878  -42.4225 H         1 UNK         0.0600 
    146 H146        4.9452  -23.5127  -41.4549 H         1 UNK         0.0600 
    147 H147        4.2563  -24.9516  -42.1879 H         1 UNK         0.0600 
    148 H148        5.5141  -24.0609  -43.0317 H         1 UNK         0.0600 
    149 H149        3.3562  -21.0259  -42.7167 H         1 UNK         0.3000 
    150 H150        6.1876  -19.4236  -43.6557 H         1 UNK         0.0600 
    151 H151        5.4517  -19.5429  -46.0523 H         1 UNK         0.0600 
    152 H152        5.0559  -17.9943  -45.3218 H         1 UNK         0.0600 
    153 H153        3.7972  -19.2034  -45.5545 H         1 UNK         0.0600 
    154 H154        3.4611  -18.5024  -43.2889 H         1 UNK         0.3000 
    155 H155        3.5650  -18.5668  -39.7200 H         1 UNK         0.0600 
    156 H156        4.6130  -16.3991  -40.3885 H         1 UNK         0.0600 
    157 H157        2.8976  -16.2071  -40.0593 H         1 UNK         0.0600 
    158 H158        3.4761  -16.2486  -41.7230 H         1 UNK         0.0600 
    159 H159        1.5180  -17.7781  -41.5293 H         1 UNK         0.3000 
    160 H160        0.0282  -21.0221  -41.9578 H         1 UNK         0.0600 
    161 H161       -0.8892  -18.4730  -40.5281 H         1 UNK         0.0600 
    162 H162       -0.8044  -20.0691  -39.7907 H         1 UNK         0.0600 
    163 H163       -1.9202  -19.7768  -41.1147 H         1 UNK         0.0600 
    164 H164       -0.7360  -18.5111  -43.0058 H         1 UNK         0.3000 
    165 H165        1.2176  -18.7125  -46.0409 H         1 UNK         0.0600 
    166 H166       -1.0367  -18.4068  -46.9639 H         1 UNK         0.0600 
    167 H167       -0.9327  -20.0151  -46.2652 H         1 UNK         0.0600 
    168 H168       -1.7776  -18.7383  -45.4062 H         1 UNK         0.0600 
    169 H169       -0.4993  -16.6594  -45.1501 H         1 UNK         0.3000 
    170 H170        1.8672  -14.7478  -43.2550 H         1 UNK         0.0600 
    171 H171        2.1312  -14.0901  -45.6197 H         1 UNK         0.0600 
    172 H172        0.4257  -14.3672  -45.9345 H         1 UNK         0.0600 
    173 H173        0.9267  -13.0625  -44.8571 H         1 UNK         0.0600 
    174 H174       -0.9558  -14.5294  -43.8240 H         1 UNK         0.3000 
    175 H175       -2.0770  -16.0826  -40.8099 H         1 UNK         0.0600 
    176 H176       -1.4500  -13.7475  -40.1790 H         1 UNK         0.0600 
    177 H177       -2.0529  -13.1543  -41.7220 H         1 UNK         0.0600 
    178 H178       -3.1617  -13.8710  -40.5525 H         1 UNK         0.0600 
    179 H179       -3.4484  -14.7866  -42.9675 H         1 UNK         0.3000 
    180 H180       -3.8505  -17.6636  -45.0205 H         1 UNK         0.0600 
    181 H181       -5.5697  -17.9758  -43.2379 H         1 UNK         0.0600 
    182 H182       -5.8946  -16.2454  -43.2363 H         1 UNK         0.0600 
    183 H183       -6.2501  -17.2163  -44.6664 H         1 UNK         0.0600 
    184 H184       -5.0110  -15.1626  -45.3581 H         1 UNK         0.3000 
    185 H185       -4.3647  -13.7708  -46.9080 H         1 UNK         0.0600 
    186 H186       -2.7691  -12.5025  -45.4453 H         1 UNK         0.0600 
    187 H187       -1.4336  -12.9682  -46.4915 H         1 UNK         0.0600 
    188 H188       -2.7220  -11.9379  -47.1079 H         1 UNK         0.0600 
    189 H189       -2.0169  -14.0599  -48.5825 H         1 UNK         0.3000 
    190 H190        0.5898  -25.0294  -47.8438 H         1 UNK         0.3000 
    191 H191       -1.6418  -25.6358  -46.1517 H         1 UNK         0.0600 
    192 H192       -1.1717  -26.1788  -49.1348 H         1 UNK         0.0600 
    193 H193       -2.4100  -26.9364  -48.1408 H         1 UNK         0.0600 
    194 H194       -0.7142  -27.2440  -47.8046 H         1 UNK         0.0600 
    195 H195       -1.0771  -23.0964  -48.4027 H         1 UNK         0.3000 
    196 H196       -3.5546  -22.3615  -49.3805 H         1 UNK         0.0600 
    197 H197       -2.5010  -20.0876  -49.5814 H         1 UNK         0.0600 
    198 H198       -1.4397  -21.3752  -50.1221 H         1 UNK         0.0600 
    199 H199       -1.1737  -20.6158  -48.5587 H         1 UNK         0.0600 
    200 H200       -2.4300  -21.9911  -46.0690 H         1 UNK         0.3000 
    201 H201       -4.2728  -19.9803  -45.2007 H         1 UNK         0.0600 
    202 H202       -3.6314  -20.7866  -42.9313 H         1 UNK         0.0600 
    203 H203       -2.8547  -22.2049  -43.6306 H         1 UNK         0.0600 
    204 H204       -2.2097  -20.5981  -43.9381 H         1 UNK         0.0600 
    205 H205       -4.5437  -23.4784  -45.6485 H         1 UNK         0.3000 
    206 H206       -7.2380  -23.5782  -44.3828 H         1 UNK         0.0600 
    207 H207       -5.6169  -25.3422  -43.7303 H         1 UNK         0.0600 
    208 H208       -6.9517  -26.0341  -44.6395 H         1 UNK         0.0600 
    209 H209       -5.3916  -25.7962  -45.4184 H         1 UNK         0.0600 
    210 H210       -5.5019  -24.1275  -47.4746 H         1 UNK         0.3000 
    211 H211       -7.8081  -24.9781  -48.9298 H         1 UNK         0.0600 
    212 H212       -6.2660  -24.8785  -50.8726 H         1 UNK         0.0600 
    213 H213       -5.4792  -25.6412  -49.4992 H         1 UNK         0.0600 
    214 H214       -5.0906  -23.9775  -49.9272 H         1 UNK         0.0600 
    215 H215       -6.5679  -21.7729  -48.2611 H         1 UNK         0.3000 
    216 H216       -7.0804  -19.7057  -48.8340 H         1 UNK         0.0600 
    217 H217       -9.3810  -19.0941  -49.4620 H         1 UNK         0.0600 
    218 H218       -9.4188  -20.3026  -48.1878 H         1 UNK         0.0600 
    219 H219       -9.7714  -20.7622  -49.8527 H         1 UNK         0.0600 
    220 H220       -5.3424  -20.8358  -50.4017 H         1 UNK         0.3000 
    221 H221       -5.9593  -20.9834  -53.1955 H         1 UNK         0.0600 
    222 H222       -4.1395  -22.2976  -52.0324 H         1 UNK         0.0600 
    223 H223       -3.5380  -21.4017  -53.4174 H         1 UNK         0.0600 
    224 H224       -3.2396  -20.7955  -51.7969 H         1 UNK         0.0600 
    225 H225       -4.7950  -19.7899  -54.8734 H         1 UNK         0.3000 
    226 H226       -5.1854  -16.9648  -54.7767 H         1 UNK         0.0600 
    227 H227       -3.7314  -18.7423  -56.8169 H         1 UNK         0.0600 
    228 H228       -5.4508  -18.3513  -56.8391 H         1 UNK         0.0600 
    229 H229       -4.2620  -17.0886  -57.0994 H         1 UNK         0.0600 
    230 H230       -3.5420  -15.3384  -55.3288 H         1 UNK         0.3000 
    231 H231       -1.2166  -15.4756  -53.6091 H         1 UNK         0.0600 
    232 H232       -2.5838  -13.4078  -53.8659 H         1 UNK         0.0600 
    233 H233       -2.1726  -13.3274  -55.5785 H         1 UNK         0.0600 
    234 H234       -0.9262  -13.1162  -54.3553 H         1 UNK         0.0600 
    235 H235       -1.6885  -16.6034  -56.7517 H         1 UNK         0.3000 
    236 H236        0.7128  -15.7858  -58.0647 H         1 UNK         0.0600 
    237 H237       -1.3057  -16.5263  -59.2944 H         1 UNK         0.0600 
    238 H238        0.0595  -17.5486  -59.7131 H         1 UNK         0.0600 
    239 H239       -1.1705  -18.1445  -58.6050 H         1 UNK         0.0600 
    240 H240       -0.0487  -18.5609  -55.9718 H         1 UNK         0.3000 
    241 H241        2.5992  -19.7724  -56.4018 H         1 UNK         0.0600 
    242 H242        3.7436  -20.5967  -54.2414 H         1 UNK         0.3800 
    243 H243        3.9259  -19.3244  -53.0694 H         1 UNK         0.3800 
    244 H244        0.9630  -21.4371  -56.4031 H         1 UNK         0.0800 
    245 H245        1.7374  -21.5994  -54.8659 H         1 UNK         0.0800 
    246 H246       -1.2619  -21.9448  -52.6483 H         1 UNK         0.0800 
    247 H247        0.2115  -22.6388  -53.2600 H         1 UNK         0.0800 
@<TRIPOS>BOND
     1    1    2 1    
     2    1  127 1    
     3    1  128 1    
     4    1  129 1    
     5    2    3 2    
     6    2    4 am   BACKBONE|DICT|INTERRES
     7    4    5 1    
     8    4  130 1    
     9    5    6 1    
    10    5   65 1    
    11    5  131 1    
    12    6    7 1    
    13    6  132 1    
    14    6  133 1    
    15    7    8 1    
    16    8    9 1    
    17    8  134 1    
    18    8  135 1    
    19    9   10 ar   
    20    9   14 ar   
    21   10   11 ar   
    22   10  136 1    
    23   11   12 ar   
    24   11  126 1    
    25   12   13 ar   
    26   12  137 1    
    27   13   14 ar   
    28   13   15 1    
    29   14  138 1    
    30   15   16 1    
    31   15  139 1    
    32   15  140 1    
    33   16   17 1    
    34   17   18 1    
    35   17  141 1    
    36   17  142 1    
    37   18   19 1    
    38   18   67 1    
    39   18  143 1    
    40   19   20 am   BACKBONE|DICT|INTERRES
    41   19  144 1    
    42   20   21 2    
    43   20   22 1    
    44   22   23 1    
    45   22   24 1    
    46   22  145 1    
    47   23  146 1    
    48   23  147 1    
    49   23  148 1    
    50   24   25 am   BACKBONE|DICT|INTERRES
    51   24  149 1    
    52   25   26 2    
    53   25   27 1    
    54   27   28 1    
    55   27   29 1    
    56   27  150 1    
    57   28  151 1    
    58   28  152 1    
    59   28  153 1    
    60   29   30 am   BACKBONE|DICT|INTERRES
    61   29  154 1    
    62   30   31 2    
    63   30   32 1    
    64   32   33 1    
    65   32   34 1    
    66   32  155 1    
    67   33  156 1    
    68   33  157 1    
    69   33  158 1    
    70   34   35 am   BACKBONE|DICT|INTERRES
    71   34  159 1    
    72   35   36 2    
    73   35   37 1    
    74   37   38 1    
    75   37   39 1    
    76   37  160 1    
    77   38  161 1    
    78   38  162 1    
    79   38  163 1    
    80   39   40 am   BACKBONE|DICT|INTERRES
    81   39  164 1    
    82   40   41 2    
    83   40   42 1    
    84   42   43 1    
    85   42   44 1    
    86   42  165 1    
    87   43  166 1    
    88   43  167 1    
    89   43  168 1    
    90   44   45 am   BACKBONE|DICT|INTERRES
    91   44  169 1    
    92   45   46 2    
    93   45   47 1    
    94   47   48 1    
    95   47   49 1    
    96   47  170 1    
    97   48  171 1    
    98   48  172 1    
    99   48  173 1    
   100   49   50 am   BACKBONE|DICT|INTERRES
   101   49  174 1    
   102   50   51 2    
   103   50   52 1    
   104   52   53 1    
   105   52   54 1    
   106   52  175 1    
   107   53  176 1    
   108   53  177 1    
   109   53  178 1    
   110   54   55 am   BACKBONE|DICT|INTERRES
   111   54  179 1    
   112   55   56 2    
   113   55   57 1    
   114   57   58 1    
   115   57   59 1    
   116   57  180 1    
   117   58  181 1    
   118   58  182 1    
   119   58  183 1    
   120   59   60 am   BACKBONE|DICT|INTERRES
   121   59  184 1    
   122   60   61 2    
   123   60   62 1    
   124   62   63 1    
   125   62   64 1    
   126   62  185 1    
   127   63  186 1    
   128   63  187 1    
   129   63  188 1    
   130   64   65 am   BACKBONE|DICT|INTERRES
   131   64  189 1    
   132   65   66 2    
   133   67   68 2    
   134   67   69 am   BACKBONE|DICT|INTERRES
   135   69   70 1    
   136   69  190 1    
   137   70   71 1    
   138   70   72 1    
   139   70  191 1    
   140   71  192 1    
   141   71  193 1    
   142   71  194 1    
   143   72   73 2    
   144   72   74 am   BACKBONE|DICT|INTERRES
   145   74   75 1    
   146   74  195 1    
   147   75   76 1    
   148   75   77 1    
   149   75  196 1    
   150   76  197 1    
   151   76  198 1    
   152   76  199 1    
   153   77   78 2    
   154   77   79 am   BACKBONE|DICT|INTERRES
   155   79   80 1    
   156   79  200 1    
   157   80   81 1    
   158   80   82 1    
   159   80  201 1    
   160   81  202 1    
   161   81  203 1    
   162   81  204 1    
   163   82   83 2    
   164   82   84 am   BACKBONE|DICT|INTERRES
   165   84   85 1    
   166   84  205 1    
   167   85   86 1    
   168   85   87 1    
   169   85  206 1    
   170   86  207 1    
   171   86  208 1    
   172   86  209 1    
   173   87   88 2    
   174   87   89 am   BACKBONE|DICT|INTERRES
   175   89   90 1    
   176   89  210 1    
   177   90   91 1    
   178   90   92 1    
   179   90  211 1    
   180   91  212 1    
   181   91  213 1    
   182   91  214 1    
   183   92   93 2    
   184   92   94 am   BACKBONE|DICT|INTERRES
   185   94   95 1    
   186   94  215 1    
   187   95   96 1    
   188   95   97 1    
   189   95  216 1    
   190   96  217 1    
   191   96  218 1    
   192   96  219 1    
   193   97   98 2    
   194   97   99 am   BACKBONE|DICT|INTERRES
   195   99  100 1    
   196   99  220 1    
   197  100  101 1    
   198  100  102 1    
   199  100  221 1    
   200  101  222 1    
   201  101  223 1    
   202  101  224 1    
   203  102  103 2    
   204  102  104 am   BACKBONE|DICT|INTERRES
   205  104  105 1    
   206  104  225 1    
   207  105  106 1    
   208  105  107 1    
   209  105  226 1    
   210  106  227 1    
   211  106  228 1    
   212  106  229 1    
   213  107  108 2    
   214  107  109 am   BACKBONE|DICT|INTERRES
   215  109  110 1    
   216  109  230 1    
   217  110  111 1    
   218  110  112 1    
   219  110  231 1    
   220  111  232 1    
   221  111  233 1    
   222  111  234 1    
   223  112  113 2    
   224  112  114 am   BACKBONE|DICT|INTERRES
   225  114  115 1    
   226  114  235 1    
   227  115  116 1    
   228  115  117 1    
   229  115  236 1    
   230  116  237 1    
   231  116  238 1    
   232  116  239 1    
   233  117  118 2    
   234  117  119 am   BACKBONE|DICT|INTERRES
   235  119  120 1    
   236  119  240 1    
   237  120  121 1    
   238  120  124 1    
   239  120  241 1    
   240  121  122 am   BACKBONE|DICT|INTERRES
   241  121  123 2    
   242  122  242 1    
   243  122  243 1    
   244  124  125 1    
   245  124  244 1    
   246  124  245 1    
   247  125  126 1    
   248  126  246 1    
   249  126  247 1    
@<TRIPOS>SUBSTRUCTURE
     1 UNK         1 GROUP             0       ****    0 ROOT    
