@<TRIPOS>MOLECULE
3R540
247   249    1
SMALL
USER_CHARGES


@<TRIPOS>ATOM
      1 CA          7.2123  -16.0763  -44.7713 C.3       0 UNK        -0.1800 
      2 C           5.7466  -15.9822  -44.3739 C.2       0 UNK         0.5000 
      3 O           5.4176  -16.1237  -43.1966 O.2       0 UNK        -0.5000 
      4 N           4.8630  -15.7255  -45.3448 N.am      1 UNK        -0.5000 
      5 CA          3.4057  -15.6247  -45.1937 C.3       1 UNK         0.1400 
      6 C6          2.6769  -16.0116  -46.5087 C.3       23 UNK        -0.0398 
      7 S7          3.1664  -15.0202  -47.9642 S.3       23 UNK        -0.2404 
      8 C8          1.5834  -14.9107  -48.8687 C.3       23 UNK        -0.0205 
      9 C9          1.1231  -16.1709  -49.6065 C.ar      23 UNK        -0.0193 
     10 C10        -0.1031  -16.1178  -50.2753 C.ar      23 UNK        -0.1150 
     11 C11        -0.5928  -17.2226  -50.9770 C.ar      23 UNK        -0.0193 
     12 C12         0.1614  -18.3981  -51.0073 C.ar      23 UNK        -0.1150 
     13 C13         1.3887  -18.4779  -50.3430 C.ar      23 UNK        -0.0193 
     14 C14         1.8646  -17.3604  -49.6498 C.ar      23 UNK        -0.1150 
     15 C15         2.2219  -19.7555  -50.3904 C.3       23 UNK        -0.0205 
     16 S16         1.2616  -21.2711  -50.0624 S.3       23 UNK        -0.2404 
     17 C17         0.6480  -20.9531  -48.3791 C.3       23 UNK        -0.0398 
     18 CA          0.0660  -22.2147  -47.6953 C.3       11 UNK         0.1400 
     19 N           0.0785  -22.0635  -46.2396 N.am      11 UNK        -0.5000 
     20 C          -0.1069  -23.0449  -45.3470 C.2       10 UNK         0.5000 
     21 O          -0.4311  -24.1887  -45.6633 O.2       10 UNK        -0.5000 
     22 CA          0.0736  -22.6786  -43.8570 C.3       10 UNK         0.1400 
     23 CB          0.5481  -23.8732  -43.0042 C.3       10 UNK        -0.1800 
     24 N           0.9350  -21.5071  -43.6525 N.am      10 UNK        -0.5000 
     25 C           2.2297  -21.3712  -43.9850 C.2       9 UNK         0.5000 
     26 O           2.9241  -22.2898  -44.4204 O.2       9 UNK        -0.5000 
     27 CA          2.8452  -19.9624  -43.8608 C.3       9 UNK         0.1400 
     28 CB          3.3529  -19.4778  -45.2287 C.3       9 UNK        -0.1800 
     29 N           1.8854  -18.9822  -43.3461 N.am      9 UNK        -0.5000 
     30 C           1.7776  -18.6217  -42.0602 C.2       8 UNK         0.5000 
     31 O           2.5441  -18.9997  -41.1742 O.2       8 UNK        -0.5000 
     32 CA          0.5837  -17.7188  -41.6945 C.3       8 UNK         0.1400 
     33 CB          0.9990  -16.2406  -41.7032 C.3       8 UNK        -0.1800 
     34 N          -0.5728  -17.9152  -42.5763 N.am      8 UNK        -0.5000 
     35 C          -1.3332  -19.0220  -42.5773 C.2       7 UNK         0.5000 
     36 O          -1.1181  -19.9870  -41.8450 O.2       7 UNK        -0.5000 
     37 CA         -2.5020  -19.1047  -43.5785 C.3       7 UNK         0.1400 
     38 CB         -3.8246  -18.7338  -42.8924 C.3       7 UNK        -0.1800 
     39 N          -2.3336  -18.2688  -44.7647 N.am      7 UNK        -0.5000 
     40 C          -1.3898  -18.4288  -45.7006 C.2       6 UNK         0.5000 
     41 O          -0.5440  -19.3249  -45.6776 O.2       6 UNK        -0.5000 
     42 CA         -1.3815  -17.3900  -46.8380 C.3       6 UNK         0.1400 
     43 CB         -2.3591  -17.8294  -47.9372 C.3       6 UNK        -0.1800 
     44 N          -1.7325  -16.0230  -46.4263 N.am      6 UNK        -0.5000 
     45 C          -1.1905  -15.3362  -45.4115 C.2       5 UNK         0.5000 
     46 O          -0.3534  -15.8047  -44.6391 O.2       5 UNK        -0.5000 
     47 CA         -1.6429  -13.8799  -45.2507 C.3       5 UNK         0.1400 
     48 CB         -1.8255  -13.5068  -43.7696 C.3       5 UNK        -0.1800 
     49 N          -0.6047  -13.0357  -45.8233 N.am      5 UNK        -0.5000 
     50 C          -0.7184  -12.2711  -46.9132 C.2       4 UNK         0.5000 
     51 O          -1.7603  -12.1534  -47.5608 O.2       4 UNK        -0.5000 
     52 CA          0.5630  -11.5209  -47.3403 C.3       4 UNK         0.1400 
     53 CB          0.3364  -10.5389  -48.5083 C.3       4 UNK        -0.1800 
     54 N           1.2339  -10.8578  -46.2164 N.am      4 UNK        -0.5000 
     55 C           0.7465   -9.8875  -45.4299 C.2       3 UNK         0.5000 
     56 O          -0.3660   -9.3783  -45.5774 O.2       3 UNK        -0.5000 
     57 CA          1.6588   -9.4317  -44.2704 C.3       3 UNK         0.1400 
     58 CB          0.9757   -8.4135  -43.3388 C.3       3 UNK        -0.1800 
     59 N           2.0963  -10.5754  -43.4695 N.am      3 UNK        -0.5000 
     60 C           3.1859  -11.3191  -43.6973 C.2       2 UNK         0.5000 
     61 O           3.9936  -11.0763  -44.5963 O.2       2 UNK        -0.5000 
     62 CA          3.3987  -12.5613  -42.8001 C.3       2 UNK         0.1400 
     63 CB          2.2500  -12.8194  -41.7998 C.3       2 UNK        -0.1800 
     64 N           3.6591  -13.7832  -43.5704 N.am      2 UNK        -0.5000 
     65 C           2.9475  -14.2701  -44.5982 C.2       1 UNK         0.5000 
     66 O           1.9643  -13.6972  -45.0655 O.2       1 UNK        -0.5000 
     67 C          -1.3423  -22.5637  -48.2177 C.2       11 UNK         0.5000 
     68 O          -1.4825  -23.4171  -49.0957 O.2       11 UNK        -0.5000 
     69 N          -2.3652  -21.9278  -47.6297 N.am      12 UNK        -0.5000 
     70 CA         -3.7734  -22.2101  -47.9054 C.3       12 UNK         0.1400 
     71 CB         -4.6327  -21.0435  -47.3947 C.3       12 UNK        -0.1800 
     72 C          -4.2365  -23.5426  -47.2878 C.2       12 UNK         0.5000 
     73 O          -5.0410  -24.2443  -47.8992 O.2       12 UNK        -0.5000 
     74 N          -3.7089  -23.8734  -46.1001 N.am      13 UNK        -0.5000 
     75 CA         -4.0336  -25.0899  -45.3513 C.3       13 UNK         0.1400 
     76 CB         -3.5449  -24.9431  -43.9021 C.3       13 UNK        -0.1800 
     77 C          -3.4518  -26.3570  -46.0029 C.2       13 UNK         0.5000 
     78 O          -4.1446  -27.3709  -46.0913 O.2       13 UNK        -0.5000 
     79 N          -2.2027  -26.2638  -46.4784 N.am      14 UNK        -0.5000 
     80 CA         -1.5080  -27.3156  -47.2246 C.3       14 UNK         0.1400 
     81 CB          0.0012  -27.0247  -47.1902 C.3       14 UNK        -0.1800 
     82 C          -1.9880  -27.4436  -48.6845 C.2       14 UNK         0.5000 
     83 O          -1.6406  -28.4217  -49.3467 O.2       14 UNK        -0.5000 
     84 N          -2.7411  -26.4414  -49.1634 N.am      15 UNK        -0.5000 
     85 CA         -3.2357  -26.2546  -50.5318 C.3       15 UNK         0.1400 
     86 CB         -4.1666  -27.4063  -50.9623 C.3       15 UNK        -0.1800 
     87 C          -2.1167  -25.9741  -51.5571 C.2       15 UNK         0.5000 
     88 O          -2.3506  -26.0711  -52.7624 O.2       15 UNK        -0.5000 
     89 N          -0.9379  -25.5620  -51.0695 N.am      16 UNK        -0.5000 
     90 CA          0.2032  -25.1011  -51.8635 C.3       16 UNK         0.1400 
     91 CB          1.4259  -24.9696  -50.9437 C.3       16 UNK        -0.1800 
     92 C          -0.0865  -23.7763  -52.5974 C.2       16 UNK         0.5000 
     93 O           0.5083  -23.5127  -53.6425 O.2       16 UNK        -0.5000 
     94 N          -1.0407  -23.0015  -52.0627 N.am      17 UNK        -0.5000 
     95 CA         -1.6302  -21.8108  -52.6732 C.3       17 UNK         0.1400 
     96 CB         -2.4926  -21.1140  -51.6080 C.3       17 UNK        -0.1800 
     97 C          -2.4717  -22.1087  -53.9355 C.2       17 UNK         0.5000 
     98 O          -2.8074  -21.1750  -54.6625 O.2       17 UNK        -0.5000 
     99 N          -2.8237  -23.3873  -54.1569 N.am      18 UNK        -0.5000 
    100 CA        -3.6195  -23.9508  -55.2593 C.3       18 UNK         0.1400 
    101 CB        -2.9856  -23.6340  -56.6289 C.3       18 UNK        -0.1800 
    102 C         -5.1215  -23.5938  -55.2248 C.2       18 UNK         0.5000 
    103 O         -5.8858  -24.1137  -56.0391 O.2       18 UNK        -0.5000 
    104 N         -5.5263  -22.7522  -54.2719 N.am      19 UNK        -0.5000 
    105 CA        -6.8799  -22.2970  -53.9946 C.3       19 UNK         0.1400 
    106 CB        -7.3494  -21.3155  -55.0837 C.3       19 UNK        -0.1800 
    107 C         -6.8558  -21.6240  -52.6159 C.2       19 UNK         0.5000 
    108 O         -5.7798  -21.2384  -52.1448 O.2       19 UNK        -0.5000 
    109 N         -8.0352  -21.4847  -51.9970 N.am      20 UNK        -0.5000 
    110 CA        -8.2372  -20.8424  -50.6964 C.3       20 UNK         0.1400 
    111 CB        -9.7250  -20.9207  -50.3188 C.3       20 UNK        -0.1800 
    112 C         -7.7380  -19.3859  -50.7065 C.2       20 UNK         0.5000 
    113 O         -8.3339  -18.5422  -51.3797 O.2       20 UNK        -0.5000 
    114 N         -6.6072  -19.1503  -50.0259 N.am      21 UNK        -0.5000 
    115 CA        -5.8521  -17.8927  -49.9779 C.3       21 UNK         0.1400 
    116 CB        -6.6060  -16.8440  -49.1355 C.3       21 UNK        -0.1800 
    117 C         -5.4466  -17.3714  -51.3755 C.2       21 UNK         0.5000 
    118 O         -5.4565  -16.1619  -51.6072 O.2       21 UNK        -0.5000 
    119 N         -5.1074  -18.3044  -52.2784 N.am      22 UNK        -0.5000 
    120 CA        -4.8055  -18.0764  -53.7042 C.3       22 UNK         0.1400 
    121 C         -6.0474  -17.6700  -54.5608 C.2       22 UNK         0.5000 
    122 N         -7.2741  -17.7385  -54.0543 N.am      22 UNK        -0.7600 
    123 O         -5.9056  -17.3182  -55.7287 O.2       22 UNK        -0.5000 
    124 C124       -3.5880  -17.1324  -53.9525 C.3       23 UNK        -0.0398 
    125 S125       -1.9872  -17.7745  -53.3495 S.3       23 UNK        -0.2404 
    126 C126       -1.9633  -17.1505  -51.6389 C.3       23 UNK        -0.0205 
    127 H127        7.3526  -15.9227  -45.8416 H         1 UNK         0.0600 
    128 H128        7.7944  -15.3234  -44.2400 H         1 UNK         0.0600 
    129 H129        7.6076  -17.0590  -44.5141 H         1 UNK         0.0600 
    130 H130        5.1976  -15.5734  -46.2863 H         1 UNK         0.3000 
    131 H131        3.1023  -16.3665  -44.4523 H         1 UNK         0.0600 
    132 H132        2.8870  -17.0535  -46.7452 H         1 UNK         0.0800 
    133 H133        1.5972  -15.9626  -46.3744 H         1 UNK         0.0800 
    134 H134        1.6737  -14.1045  -49.5979 H         1 UNK         0.0800 
    135 H135        0.8013  -14.6095  -48.1713 H         1 UNK         0.0800 
    136 H136       -0.6862  -15.2080  -50.2399 H         1 UNK         0.1150 
    137 H137       -0.2100  -19.2561  -51.5469 H         1 UNK         0.1150 
    138 H138        2.8214  -17.4278  -49.1550 H         1 UNK         0.1150 
    139 H139        2.6735  -19.8372  -51.3797 H         1 UNK         0.0800 
    140 H140        3.0471  -19.7065  -49.6782 H         1 UNK         0.0800 
    141 H141        1.4942  -20.5800  -47.8006 H         1 UNK         0.0800 
    142 H142       -0.0776  -20.1393  -48.4042 H         1 UNK         0.0800 
    143 H143        0.7163  -23.0614  -47.9257 H         1 UNK         0.0600 
    144 H144        0.2312  -21.1224  -45.8920 H         1 UNK         0.3000 
    145 H145       -0.9156  -22.3926  -43.4975 H         1 UNK         0.0600 
    146 H146        0.6666  -23.5877  -41.9590 H         1 UNK         0.0600 
    147 H147       -0.1725  -24.6907  -43.0354 H         1 UNK         0.0600 
    148 H148        1.5010  -24.2702  -43.3545 H         1 UNK         0.0600 
    149 H149        0.4707  -20.7019  -43.2544 H         1 UNK         0.3000 
    150 H150        3.7034  -20.0428  -43.1906 H         1 UNK         0.0600 
    151 H151        3.9130  -18.5499  -45.1275 H         1 UNK         0.0600 
    152 H152        2.5315  -19.3107  -45.9260 H         1 UNK         0.0600 
    153 H153        4.0279  -20.2037  -45.6838 H         1 UNK         0.0600 
    154 H154        1.1951  -18.6392  -44.0007 H         1 UNK         0.3000 
    155 H155        0.2779  -17.9739  -40.6775 H         1 UNK         0.0600 
    156 H156        0.1660  -15.5913  -41.4334 H         1 UNK         0.0600 
    157 H157        1.3626  -15.9290  -42.6811 H         1 UNK         0.0600 
    158 H158        1.8003  -16.0598  -40.9860 H         1 UNK         0.0600 
    159 H159       -0.7577  -17.1760  -43.2477 H         1 UNK         0.3000 
    160 H160       -2.5711  -20.1426  -43.9110 H         1 UNK         0.0600 
    161 H161       -3.8274  -17.6949  -42.5600 H         1 UNK         0.0600 
    162 H162       -4.0003  -19.3595  -42.0162 H         1 UNK         0.0600 
    163 H163       -4.6712  -18.8746  -43.5648 H         1 UNK         0.0600 
    164 H164       -2.9719  -17.4933  -44.8632 H         1 UNK         0.3000 
    165 H165       -0.3734  -17.3612  -47.2554 H         1 UNK         0.0600 
    166 H166       -3.3729  -17.9330  -47.5492 H         1 UNK         0.0600 
    167 H167       -2.3935  -17.1007  -48.7447 H         1 UNK         0.0600 
    168 H168       -2.0691  -18.7869  -48.3709 H         1 UNK         0.0600 
    169 H169       -2.4039  -15.5482  -47.0123 H         1 UNK         0.3000 
    170 H170       -2.5971  -13.7396  -45.7626 H         1 UNK         0.0600 
    171 H171       -2.5753  -14.1418  -43.2964 H         1 UNK         0.0600 
    172 H172       -0.8984  -13.6162  -43.2056 H         1 UNK         0.0600 
    173 H173       -2.1575  -12.4739  -43.6646 H         1 UNK         0.0600 
    174 H174        0.3250  -13.1599  -45.4197 H         1 UNK         0.3000 
    175 H175        1.2605  -12.2821  -47.6891 H         1 UNK         0.0600 
    176 H176        1.2665  -10.0503  -48.7984 H         1 UNK         0.0600 
    177 H177       -0.0427  -11.0610  -49.3876 H         1 UNK         0.0600 
    178 H178       -0.3855   -9.7625  -48.2537 H         1 UNK         0.0600 
    179 H179        2.1390  -11.2386  -45.9685 H         1 UNK         0.3000 
    180 H180        2.5265   -8.9411  -44.7161 H         1 UNK         0.0600 
    181 H181        1.6515   -8.0894  -42.5473 H         1 UNK         0.0600 
    182 H182        0.6718   -7.5217  -43.8885 H         1 UNK         0.0600 
    183 H183        0.0845   -8.8312  -42.8686 H         1 UNK         0.0600 
    184 H184        1.4640  -10.8711  -42.7399 H         1 UNK         0.3000 
    185 H185        4.3025  -12.3626  -42.2226 H         1 UNK         0.0600 
    186 H186        2.4842  -13.6654  -41.1543 H         1 UNK         0.0600 
    187 H187        2.0873  -11.9629  -41.1446 H         1 UNK         0.0600 
    188 H188        1.3108  -13.0430  -42.3069 H         1 UNK         0.0600 
    189 H189        4.4483  -14.3405  -43.2622 H         1 UNK         0.3000 
    190 H190       -2.1608  -21.2500  -46.9106 H         1 UNK         0.3000 
    191 H191       -3.9107  -22.2835  -48.9861 H         1 UNK         0.0600 
    192 H192       -5.6932  -21.2344  -47.5640 H         1 UNK         0.0600 
    193 H193       -4.3826  -20.1186  -47.9123 H         1 UNK         0.0600 
    194 H194       -4.4962  -20.8773  -46.3253 H         1 UNK         0.0600 
    195 H195       -3.0281  -23.2563  -45.6870 H         1 UNK         0.3000 
    196 H196       -5.1205  -25.1961  -45.3311 H         1 UNK         0.0600 
    197 H197       -3.8054  -25.8231  -43.3128 H         1 UNK         0.0600 
    198 H198       -4.0017  -24.0807  -43.4164 H         1 UNK         0.0600 
    199 H199       -2.4630  -24.8242  -43.8503 H         1 UNK         0.0600 
    200 H200       -1.6686  -25.4159  -46.2994 H         1 UNK         0.3000 
    201 H201       -1.6865  -28.2732  -46.7313 H         1 UNK         0.0600 
    202 H202        0.3692  -26.9723  -46.1653 H         1 UNK         0.0600 
    203 H203        0.2390  -26.0785  -47.6787 H         1 UNK         0.0600 
    204 H204        0.5653  -27.8080  -47.6980 H         1 UNK         0.0600 
    205 H205       -2.9548  -25.6874  -48.5254 H         1 UNK         0.3000 
    206 H206       -3.8387  -25.3459  -50.5011 H         1 UNK         0.0600 
    207 H207       -4.9442  -27.5828  -50.2191 H         1 UNK         0.0600 
    208 H208       -4.6660  -27.1731  -51.9034 H         1 UNK         0.0600 
    209 H209       -3.6211  -28.3389  -51.1078 H         1 UNK         0.0600 
    210 H210       -0.8727  -25.4231  -50.0705 H         1 UNK         0.3000 
    211 H211        0.4197  -25.8570  -52.6210 H         1 UNK         0.0600 
    212 H212        1.2367  -24.2800  -50.1211 H         1 UNK         0.0600 
    213 H213        2.2925  -24.5986  -51.4924 H         1 UNK         0.0600 
    214 H214        1.6998  -25.9333  -50.5141 H         1 UNK         0.0600 
    215 H215       -1.4062  -23.2709  -51.1559 H         1 UNK         0.3000 
    216 H216       -0.8222  -21.1385  -52.9675 H         1 UNK         0.0600 
    217 H217       -2.9740  -20.2237  -52.0101 H         1 UNK         0.0600 
    218 H218       -1.8947  -20.8015  -50.7522 H         1 UNK         0.0600 
    219 H219       -3.2805  -21.7723  -51.2427 H         1 UNK         0.0600 
    220 H220       -2.5010  -24.0805  -53.4920 H         1 UNK         0.3000 
    221 H221       -3.5717  -25.0323  -55.1244 H         1 UNK         0.0600 
    222 H222       -3.0632  -22.5760  -56.8797 H         1 UNK         0.0600 
    223 H223       -1.9310  -23.9090  -56.6485 H         1 UNK         0.0600 
    224 H224       -3.4807  -24.1913  -57.4249 H         1 UNK         0.0600 
    225 H225       -4.8393  -22.3703  -53.6335 H         1 UNK         0.3000 
    226 H226       -7.5477  -23.1596  -53.9533 H         1 UNK         0.0600 
    227 H227       -8.3196  -20.8823  -54.8377 H         1 UNK         0.0600 
    228 H228       -6.6441  -20.4944  -55.2098 H         1 UNK         0.0600 
    229 H229       -7.4543  -21.8126  -56.0478 H         1 UNK         0.0600 
    230 H230       -8.8700  -21.8037  -52.4664 H         1 UNK         0.3000 
    231 H231       -7.6706  -21.4068  -49.9527 H         1 UNK         0.0600 
    232 H232       -9.9070  -20.4492  -49.3522 H         1 UNK         0.0600 
    233 H233      -10.0591  -21.9557  -50.2427 H         1 UNK         0.0600 
    234 H234      -10.3557  -20.4177  -51.0531 H         1 UNK         0.0600 
    235 H235       -6.1705  -19.9336  -49.5627 H         1 UNK         0.3000 
    236 H236       -4.9176  -18.1172  -49.4639 H         1 UNK         0.0600 
    237 H237       -7.5362  -16.5354  -49.6138 H         1 UNK         0.0600 
    238 H238       -6.8502  -17.2344  -48.1476 H         1 UNK         0.0600 
    239 H239       -6.0000  -15.9493  -48.9881 H         1 UNK         0.0600 
    240 H240       -5.1843  -19.2808  -52.0128 H         1 UNK         0.3000 
    241 H241       -4.5298  -19.0582  -54.0905 H         1 UNK         0.0600 
    242 H242       -8.0551  -17.4790  -54.6350 H         1 UNK         0.3800 
    243 H243       -7.4424  -18.0108  -53.0921 H         1 UNK         0.3800 
    244 H244       -3.7667  -16.1376  -53.5447 H         1 UNK         0.0800 
    245 H245       -3.4496  -16.9793  -55.0237 H         1 UNK         0.0800 
    246 H246       -2.3400  -16.1267  -51.6250 H         1 UNK         0.0800 
    247 H247       -2.6495  -17.7494  -51.0429 H         1 UNK         0.0800 
@<TRIPOS>BOND
     1    1    2 1    
     2    1  127 1    
     3    1  128 1    
     4    1  129 1    
     5    2    3 2    
     6    2    4 am   BACKBONE|DICT|INTERRES
     7    4    5 1    
     8    4  130 1    
     9    5    6 1    
    10    5   65 1    
    11    5  131 1    
    12    6    7 1    
    13    6  132 1    
    14    6  133 1    
    15    7    8 1    
    16    8    9 1    
    17    8  134 1    
    18    8  135 1    
    19    9   10 ar   
    20    9   14 ar   
    21   10   11 ar   
    22   10  136 1    
    23   11   12 ar   
    24   11  126 1    
    25   12   13 ar   
    26   12  137 1    
    27   13   14 ar   
    28   13   15 1    
    29   14  138 1    
    30   15   16 1    
    31   15  139 1    
    32   15  140 1    
    33   16   17 1    
    34   17   18 1    
    35   17  141 1    
    36   17  142 1    
    37   18   19 1    
    38   18   67 1    
    39   18  143 1    
    40   19   20 am   BACKBONE|DICT|INTERRES
    41   19  144 1    
    42   20   21 2    
    43   20   22 1    
    44   22   23 1    
    45   22   24 1    
    46   22  145 1    
    47   23  146 1    
    48   23  147 1    
    49   23  148 1    
    50   24   25 am   BACKBONE|DICT|INTERRES
    51   24  149 1    
    52   25   26 2    
    53   25   27 1    
    54   27   28 1    
    55   27   29 1    
    56   27  150 1    
    57   28  151 1    
    58   28  152 1    
    59   28  153 1    
    60   29   30 am   BACKBONE|DICT|INTERRES
    61   29  154 1    
    62   30   31 2    
    63   30   32 1    
    64   32   33 1    
    65   32   34 1    
    66   32  155 1    
    67   33  156 1    
    68   33  157 1    
    69   33  158 1    
    70   34   35 am   BACKBONE|DICT|INTERRES
    71   34  159 1    
    72   35   36 2    
    73   35   37 1    
    74   37   38 1    
    75   37   39 1    
    76   37  160 1    
    77   38  161 1    
    78   38  162 1    
    79   38  163 1    
    80   39   40 am   BACKBONE|DICT|INTERRES
    81   39  164 1    
    82   40   41 2    
    83   40   42 1    
    84   42   43 1    
    85   42   44 1    
    86   42  165 1    
    87   43  166 1    
    88   43  167 1    
    89   43  168 1    
    90   44   45 am   BACKBONE|DICT|INTERRES
    91   44  169 1    
    92   45   46 2    
    93   45   47 1    
    94   47   48 1    
    95   47   49 1    
    96   47  170 1    
    97   48  171 1    
    98   48  172 1    
    99   48  173 1    
   100   49   50 am   BACKBONE|DICT|INTERRES
   101   49  174 1    
   102   50   51 2    
   103   50   52 1    
   104   52   53 1    
   105   52   54 1    
   106   52  175 1    
   107   53  176 1    
   108   53  177 1    
   109   53  178 1    
   110   54   55 am   BACKBONE|DICT|INTERRES
   111   54  179 1    
   112   55   56 2    
   113   55   57 1    
   114   57   58 1    
   115   57   59 1    
   116   57  180 1    
   117   58  181 1    
   118   58  182 1    
   119   58  183 1    
   120   59   60 am   BACKBONE|DICT|INTERRES
   121   59  184 1    
   122   60   61 2    
   123   60   62 1    
   124   62   63 1    
   125   62   64 1    
   126   62  185 1    
   127   63  186 1    
   128   63  187 1    
   129   63  188 1    
   130   64   65 am   BACKBONE|DICT|INTERRES
   131   64  189 1    
   132   65   66 2    
   133   67   68 2    
   134   67   69 am   BACKBONE|DICT|INTERRES
   135   69   70 1    
   136   69  190 1    
   137   70   71 1    
   138   70   72 1    
   139   70  191 1    
   140   71  192 1    
   141   71  193 1    
   142   71  194 1    
   143   72   73 2    
   144   72   74 am   BACKBONE|DICT|INTERRES
   145   74   75 1    
   146   74  195 1    
   147   75   76 1    
   148   75   77 1    
   149   75  196 1    
   150   76  197 1    
   151   76  198 1    
   152   76  199 1    
   153   77   78 2    
   154   77   79 am   BACKBONE|DICT|INTERRES
   155   79   80 1    
   156   79  200 1    
   157   80   81 1    
   158   80   82 1    
   159   80  201 1    
   160   81  202 1    
   161   81  203 1    
   162   81  204 1    
   163   82   83 2    
   164   82   84 am   BACKBONE|DICT|INTERRES
   165   84   85 1    
   166   84  205 1    
   167   85   86 1    
   168   85   87 1    
   169   85  206 1    
   170   86  207 1    
   171   86  208 1    
   172   86  209 1    
   173   87   88 2    
   174   87   89 am   BACKBONE|DICT|INTERRES
   175   89   90 1    
   176   89  210 1    
   177   90   91 1    
   178   90   92 1    
   179   90  211 1    
   180   91  212 1    
   181   91  213 1    
   182   91  214 1    
   183   92   93 2    
   184   92   94 am   BACKBONE|DICT|INTERRES
   185   94   95 1    
   186   94  215 1    
   187   95   96 1    
   188   95   97 1    
   189   95  216 1    
   190   96  217 1    
   191   96  218 1    
   192   96  219 1    
   193   97   98 2    
   194   97   99 am   BACKBONE|DICT|INTERRES
   195   99  100 1    
   196   99  220 1    
   197  100  101 1    
   198  100  102 1    
   199  100  221 1    
   200  101  222 1    
   201  101  223 1    
   202  101  224 1    
   203  102  103 2    
   204  102  104 am   BACKBONE|DICT|INTERRES
   205  104  105 1    
   206  104  225 1    
   207  105  106 1    
   208  105  107 1    
   209  105  226 1    
   210  106  227 1    
   211  106  228 1    
   212  106  229 1    
   213  107  108 2    
   214  107  109 am   BACKBONE|DICT|INTERRES
   215  109  110 1    
   216  109  230 1    
   217  110  111 1    
   218  110  112 1    
   219  110  231 1    
   220  111  232 1    
   221  111  233 1    
   222  111  234 1    
   223  112  113 2    
   224  112  114 am   BACKBONE|DICT|INTERRES
   225  114  115 1    
   226  114  235 1    
   227  115  116 1    
   228  115  117 1    
   229  115  236 1    
   230  116  237 1    
   231  116  238 1    
   232  116  239 1    
   233  117  118 2    
   234  117  119 am   BACKBONE|DICT|INTERRES
   235  119  120 1    
   236  119  240 1    
   237  120  121 1    
   238  120  124 1    
   239  120  241 1    
   240  121  122 am   BACKBONE|DICT|INTERRES
   241  121  123 2    
   242  122  242 1    
   243  122  243 1    
   244  124  125 1    
   245  124  244 1    
   246  124  245 1    
   247  125  126 1    
   248  126  246 1    
   249  126  247 1    
@<TRIPOS>SUBSTRUCTURE
     1 UNK         1 GROUP             0       ****    0 ROOT    
