@<TRIPOS>MOLECULE
3R540
247   249    1
SMALL
USER_CHARGES


@<TRIPOS>ATOM
      1 CA          0.0048   -7.4617  -48.6198 C.3       0 UNK        -0.1800 
      2 C           0.5123   -8.8376  -48.2139 C.2       0 UNK         0.5000 
      3 O           1.7112   -9.0109  -47.9919 O.2       0 UNK        -0.5000 
      4 N          -0.3933   -9.8159  -48.0944 N.am      1 UNK        -0.5000 
      5 CA         -0.1190  -11.2210  -47.7543 C.3       1 UNK         0.1400 
      6 C6         -1.2219  -12.1672  -48.3039 C.3       23 UNK        -0.0398 
      7 S7         -1.5335  -11.9528  -50.0933 S.3       23 UNK        -0.2404 
      8 C8         -2.8614  -13.1652  -50.3899 C.3       23 UNK        -0.0205 
      9 C9         -2.2977  -14.5424  -50.7033 C.ar      23 UNK        -0.0193 
     10 C10        -2.0787  -14.9317  -52.0293 C.ar      23 UNK        -0.1150 
     11 C11        -1.5228  -16.1819  -52.3190 C.ar      23 UNK        -0.0193 
     12 C12        -1.1809  -17.0413  -51.2716 C.ar      23 UNK        -0.1150 
     13 C13        -1.4067  -16.6672  -49.9450 C.ar      23 UNK        -0.0193 
     14 C14        -1.9767  -15.4227  -49.6673 C.ar      23 UNK        -0.1150 
     15 C15        -0.9788  -17.5709  -48.8039 C.3       23 UNK        -0.0205 
     16 S16        -2.3532  -18.5603  -48.1459 S.3       23 UNK        -0.2404 
     17 C17        -1.5425  -19.2983  -46.6888 C.3       23 UNK        -0.0398 
     18 CA         -1.2897  -20.8178  -46.8322 C.3       11 UNK         0.1400 
     19 N          -0.1158  -21.2496  -46.0721 N.am      11 UNK        -0.5000 
     20 C           0.4597  -22.4554  -46.1804 C.2       10 UNK         0.5000 
     21 O           0.1074  -23.3073  -46.9955 O.2       10 UNK        -0.5000 
     22 CA          1.5888  -22.7874  -45.1864 C.3       10 UNK         0.1400 
     23 CB          2.9593  -22.4417  -45.7874 C.3       10 UNK        -0.1800 
     24 N           1.4434  -22.1137  -43.8951 N.am      10 UNK        -0.5000 
     25 C           0.4407  -22.3140  -43.0284 C.2       9 UNK         0.5000 
     26 O          -0.4788  -23.1102  -43.2278 O.2       9 UNK        -0.5000 
     27 CA          0.4373  -21.4667  -41.7355 C.3       9 UNK         0.1400 
     28 CB          1.7235  -20.6348  -41.5284 C.3       9 UNK        -0.1800 
     29 N          -0.7361  -20.5898  -41.6364 N.am      9 UNK        -0.5000 
     30 C          -1.1413  -19.6928  -42.5469 C.2       8 UNK         0.5000 
     31 O          -0.6240  -19.5683  -43.6566 O.2       8 UNK        -0.5000 
     32 CA         -2.3338  -18.7812  -42.1952 C.3       8 UNK         0.1400 
     33 CB         -2.9144  -18.9797  -40.7764 C.3       8 UNK        -0.1800 
     34 N          -1.9834  -17.3831  -42.4562 N.am      8 UNK        -0.5000 
     35 C          -1.0580  -16.6479  -41.8242 C.2       7 UNK         0.5000 
     36 O          -0.4690  -17.0014  -40.8011 O.2       7 UNK        -0.5000 
     37 CA         -0.6991  -15.3101  -42.4986 C.3       7 UNK         0.1400 
     38 CB         -0.0877  -14.2961  -41.5154 C.3       7 UNK        -0.1800 
     39 N           0.2527  -15.5356  -43.5812 N.am      7 UNK        -0.5000 
     40 C          -0.0237  -16.0764  -44.7738 C.2       6 UNK         0.5000 
     41 O          -1.1597  -16.3810  -45.1384 O.2       6 UNK        -0.5000 
     42 CA          1.1693  -16.3229  -45.7122 C.3       6 UNK         0.1400 
     43 CB          1.4717  -15.0665  -46.5435 C.3       6 UNK        -0.1800 
     44 N           2.3698  -16.7243  -44.9813 N.am      6 UNK        -0.5000 
     45 C           2.7504  -17.9935  -44.7766 C.2       5 UNK         0.5000 
     46 O           2.1155  -18.9711  -45.1729 O.2       5 UNK        -0.5000 
     47 CA          4.0843  -18.2238  -44.0381 C.3       5 UNK         0.1400 
     48 CB          5.1781  -18.6357  -45.0356 C.3       5 UNK        -0.1800 
     49 N           4.5424  -17.0450  -43.3006 N.am      5 UNK        -0.5000 
     50 C           4.1481  -16.7295  -42.0601 C.2       4 UNK         0.5000 
     51 O           3.4045  -17.4347  -41.3790 O.2       4 UNK        -0.5000 
     52 CA          4.6529  -15.3874  -41.4897 C.3       4 UNK         0.1400 
     53 CB          5.9557  -15.5960  -40.7027 C.3       4 UNK        -0.1800 
     54 N           4.8593  -14.3290  -42.4883 N.am      4 UNK        -0.5000 
     55 C           3.9084  -13.8487  -43.2997 C.2       3 UNK         0.5000 
     56 O           2.7806  -14.3355  -43.3800 O.2       3 UNK        -0.5000 
     57 CA          4.2890  -12.6623  -44.2061 C.3       3 UNK         0.1400 
     58 CB          4.9336  -13.1721  -45.5044 C.3       3 UNK        -0.1800 
     59 N           3.1298  -11.8325  -44.5492 N.am      3 UNK        -0.5000 
     60 C           2.3852  -11.1483  -43.6684 C.2       2 UNK         0.5000 
     61 O           2.6466  -11.0855  -42.4657 O.2       2 UNK        -0.5000 
     62 CA          1.1577  -10.3864  -44.2048 C.3       2 UNK         0.1400 
     63 CB          1.2794   -8.8828  -43.9034 C.3       2 UNK        -0.1800 
     64 N           0.9501  -10.5423  -45.6463 N.am      2 UNK        -0.5000 
     65 C           0.1033  -11.3996  -46.2293 C.2       1 UNK         0.5000 
     66 O          -0.5120  -12.2666  -45.6076 O.2       1 UNK        -0.5000 
     67 C          -2.5316  -21.6273  -46.4201 C.2       11 UNK         0.5000 
     68 O          -3.2364  -22.1458  -47.2853 O.2       11 UNK        -0.5000 
     69 N          -2.7495  -21.7582  -45.1028 N.am      12 UNK        -0.5000 
     70 CA         -3.8563  -22.5126  -44.5103 C.3       12 UNK         0.1400 
     71 CB         -3.9267  -22.2469  -42.9996 C.3       12 UNK        -0.1800 
     72 C          -3.7648  -24.0191  -44.8025 C.2       12 UNK         0.5000 
     73 O          -4.7803  -24.6345  -45.1274 O.2       12 UNK        -0.5000 
     74 N          -2.5424  -24.5678  -44.7562 N.am      13 UNK        -0.5000 
     75 CA         -2.2288  -25.9486  -45.1366 C.3       13 UNK         0.1400 
     76 CB         -0.7558  -26.2372  -44.8126 C.3       13 UNK        -0.1800 
     77 C          -2.5283  -26.2612  -46.6184 C.2       13 UNK         0.5000 
     78 O          -2.8465  -27.4048  -46.9446 O.2       13 UNK        -0.5000 
     79 N          -2.4570  -25.2346  -47.4754 N.am      14 UNK        -0.5000 
     80 CA         -2.8000  -25.2778  -48.8957 C.3       14 UNK         0.1400 
     81 CB         -1.7642  -24.4472  -49.6715 C.3       14 UNK        -0.1800 
     82 C          -4.2426  -24.7992  -49.1713 C.2       14 UNK         0.5000 
     83 O          -4.5573  -24.4831  -50.3197 O.2       14 UNK        -0.5000 
     84 N          -5.0925  -24.7466  -48.1329 N.am      15 UNK        -0.5000 
     85 CA         -6.5107  -24.3689  -48.1620 C.3       15 UNK         0.1400 
     86 CB         -7.3277  -25.3877  -48.9861 C.3       15 UNK        -0.1800 
     87 C          -6.7279  -22.9116  -48.6174 C.2       15 UNK         0.5000 
     88 O          -7.5190  -22.6560  -49.5244 O.2       15 UNK        -0.5000 
     89 N          -5.9792  -21.9863  -48.0006 N.am      16 UNK        -0.5000 
     90 CA         -5.8584  -20.5644  -48.3539 C.3       16 UNK         0.1400 
     91 CB         -7.1970  -19.8181  -48.1758 C.3       16 UNK        -0.1800 
     92 C          -5.2310  -20.3861  -49.7523 C.2       16 UNK         0.5000 
     93 O          -5.6753  -19.5481  -50.5381 O.2       16 UNK        -0.5000 
     94 N          -4.2287  -21.2327  -50.0317 N.am      17 UNK        -0.5000 
     95 CA         -3.4931  -21.3932  -51.2891 C.3       17 UNK         0.1400 
     96 CB         -2.6597  -20.1397  -51.6080 C.3       17 UNK        -0.1800 
     97 C          -4.3418  -21.8571  -52.4907 C.2       17 UNK         0.5000 
     98 O          -3.8378  -21.8411  -53.6140 O.2       17 UNK        -0.5000 
     99 N          -5.5825  -22.3079  -52.2550 N.am      18 UNK        -0.5000 
    100 CA        -6.4900  -22.8145  -53.2842 C.3       18 UNK         0.1400 
    101 CB        -7.9135  -22.9123  -52.7190 C.3       18 UNK        -0.1800 
    102 C         -6.0474  -24.1719  -53.8560 C.2       18 UNK         0.5000 
    103 O         -6.2504  -24.4137  -55.0458 O.2       18 UNK        -0.5000 
    104 N         -5.4233  -25.0187  -53.0229 N.am      19 UNK        -0.5000 
    105 CA        -4.8717  -26.3126  -53.4360 C.3       19 UNK         0.1400 
    106 CB        -4.5983  -27.1761  -52.1952 C.3       19 UNK        -0.1800 
    107 C         -3.5911  -26.1526  -54.2762 C.2       19 UNK         0.5000 
    108 O         -3.3376  -26.9639  -55.1670 O.2       19 UNK        -0.5000 
    109 N         -2.8229  -25.0940  -53.9872 N.am      20 UNK        -0.5000 
    110 CA        -1.6307  -24.6942  -54.7349 C.3       20 UNK         0.1400 
    111 CB        -0.7142  -23.8947  -53.7938 C.3       20 UNK        -0.1800 
    112 C         -1.9663  -23.8550  -55.9838 C.2       20 UNK         0.5000 
    113 O         -1.0979  -23.6747  -56.8384 O.2       20 UNK        -0.5000 
    114 N         -3.1900  -23.3061  -56.0359 N.am      21 UNK        -0.5000 
    115 CA        -3.7041  -22.3313  -57.0058 C.3       21 UNK         0.1400 
    116 CB        -3.9003  -22.9963  -58.3832 C.3       21 UNK        -0.1800 
    117 C         -2.8477  -21.0455  -57.0715 C.2       21 UNK         0.5000 
    118 O         -2.7063  -20.4518  -58.1421 O.2       21 UNK        -0.5000 
    119 N         -2.2553  -20.6709  -55.9274 N.am      22 UNK        -0.5000 
    120 CA        -1.2127  -19.6388  -55.7783 C.3       22 UNK         0.1400 
    121 C          0.1077  -19.9113  -56.5718 C.2       22 UNK         0.5000 
    122 N          0.3720  -21.1234  -57.0469 N.am      22 UNK        -0.7600 
    123 O          0.9385  -19.0201  -56.7259 O.2       22 UNK        -0.5000 
    124 C124       -1.7653  -18.1943  -55.9711 C.3       23 UNK        -0.0398 
    125 S125       -2.5934  -17.5891  -54.4618 S.3       23 UNK        -0.2404 
    126 C126       -1.2431  -16.5910  -53.7563 C.3       23 UNK        -0.0205 
    127 H127        0.4877   -7.1416  -49.5430 H         1 UNK         0.0600 
    128 H128       -1.0734   -7.4589  -48.7814 H         1 UNK         0.0600 
    129 H129        0.2347   -6.7330  -47.8425 H         1 UNK         0.0600 
    130 H130       -1.3644   -9.6038  -48.2740 H         1 UNK         0.3000 
    131 H131        0.8181  -11.5086  -48.2360 H         1 UNK         0.0600 
    132 H132       -0.9397  -13.2049  -48.1278 H         1 UNK         0.0800 
    133 H133       -2.1618  -12.0069  -47.7726 H         1 UNK         0.0800 
    134 H134       -3.4709  -12.8180  -51.2255 H         1 UNK         0.0800 
    135 H135       -3.5292  -13.2127  -49.5283 H         1 UNK         0.0800 
    136 H136       -2.3253  -14.2548  -52.8353 H         1 UNK         0.1150 
    137 H137       -0.7257  -17.9963  -51.4914 H         1 UNK         0.1150 
    138 H138       -2.1479  -15.1328  -48.6403 H         1 UNK         0.1150 
    139 H139       -0.1680  -18.2310  -49.1161 H         1 UNK         0.0800 
    140 H140       -0.5851  -16.9417  -48.0088 H         1 UNK         0.0800 
    141 H141       -0.5929  -18.7917  -46.5264 H         1 UNK         0.0800 
    142 H142       -2.1374  -19.0610  -45.8051 H         1 UNK         0.0800 
    143 H143       -1.0829  -21.0378  -47.8821 H         1 UNK         0.0600 
    144 H144        0.2178  -20.6112  -45.3560 H         1 UNK         0.3000 
    145 H145        1.5606  -23.8631  -45.0032 H         1 UNK         0.0600 
    146 H146        3.7696  -22.7284  -45.1170 H         1 UNK         0.0600 
    147 H147        3.1153  -22.9692  -46.7293 H         1 UNK         0.0600 
    148 H148        3.0525  -21.3748  -45.9913 H         1 UNK         0.0600 
    149 H149        2.1207  -21.3952  -43.6860 H         1 UNK         0.3000 
    150 H150        0.3667  -22.1773  -40.9110 H         1 UNK         0.0600 
    151 H151        2.6144  -21.2639  -41.5415 H         1 UNK         0.0600 
    152 H152        1.7063  -20.1288  -40.5629 H         1 UNK         0.0600 
    153 H153        1.8405  -19.8651  -42.2919 H         1 UNK         0.0600 
    154 H154       -1.2450  -20.6431  -40.7658 H         1 UNK         0.3000 
    155 H155       -3.1210  -19.0264  -42.9087 H         1 UNK         0.0600 
    156 H156       -3.7436  -18.2951  -40.5979 H         1 UNK         0.0600 
    157 H157       -2.1742  -18.8103  -39.9942 H         1 UNK         0.0600 
    158 H158       -3.3040  -19.9903  -40.6493 H         1 UNK         0.0600 
    159 H159       -2.2948  -17.0284  -43.3528 H         1 UNK         0.3000 
    160 H160       -1.6107  -14.8727  -42.9111 H         1 UNK         0.0600 
    161 H161        0.8566  -14.6532  -41.1017 H         1 UNK         0.0600 
    162 H162       -0.7634  -14.1033  -40.6815 H         1 UNK         0.0600 
    163 H163        0.1071  -13.3422  -42.0068 H         1 UNK         0.0600 
    164 H164        1.2121  -15.2551  -43.3939 H         1 UNK         0.3000 
    165 H165        0.9024  -17.1198  -46.4032 H         1 UNK         0.0600 
    166 H166        1.7249  -14.2152  -45.9113 H         1 UNK         0.0600 
    167 H167        2.3008  -15.2363  -47.2303 H         1 UNK         0.0600 
    168 H168        0.6063  -14.7821  -47.1422 H         1 UNK         0.0600 
    169 H169        2.8942  -15.9785  -44.5414 H         1 UNK         0.3000 
    170 H170        3.9373  -19.0517  -43.3416 H         1 UNK         0.0600 
    171 H171        4.8892  -19.5326  -45.5852 H         1 UNK         0.0600 
    172 H172        5.3723  -17.8507  -45.7676 H         1 UNK         0.0600 
    173 H173        6.1147  -18.8581  -44.5241 H         1 UNK         0.0600 
    174 H174        5.1665  -16.4155  -43.7835 H         1 UNK         0.3000 
    175 H175        3.8904  -15.0302  -40.7942 H         1 UNK         0.0600 
    176 H176        6.7713  -15.9151  -41.3527 H         1 UNK         0.0600 
    177 H177        6.2647  -14.6797  -40.1994 H         1 UNK         0.0600 
    178 H178        5.8305  -16.3599  -39.9340 H         1 UNK         0.0600 
    179 H179        5.7713  -13.8950  -42.4949 H         1 UNK         0.3000 
    180 H180        5.0082  -12.0355  -43.6751 H         1 UNK         0.0600 
    181 H181        5.8256  -13.7638  -45.2945 H         1 UNK         0.0600 
    182 H182        4.2502  -13.8016  -46.0752 H         1 UNK         0.0600 
    183 H183        5.2398  -12.3442  -46.1442 H         1 UNK         0.0600 
    184 H184        2.8341  -11.8372  -45.5132 H         1 UNK         0.3000 
    185 H185        0.2874  -10.7677  -43.6666 H         1 UNK         0.0600 
    186 H186        1.3847   -8.7011  -42.8331 H         1 UNK         0.0600 
    187 H187        2.1458   -8.4428  -44.3990 H         1 UNK         0.0600 
    188 H188        0.3931   -8.3419  -44.2358 H         1 UNK         0.0600 
    189 H189        1.4200   -9.8735  -46.2495 H         1 UNK         0.3000 
    190 H190       -2.0706  -21.3637  -44.4671 H         1 UNK         0.3000 
    191 H191       -4.7840  -22.1493  -44.9574 H         1 UNK         0.0600 
    192 H192       -4.7246  -22.8303  -42.5382 H         1 UNK         0.0600 
    193 H193       -4.1397  -21.1988  -42.7953 H         1 UNK         0.0600 
    194 H194       -2.9970  -22.5101  -42.4950 H         1 UNK         0.0600 
    195 H195       -1.7695  -23.9995  -44.4214 H         1 UNK         0.3000 
    196 H196       -2.8497  -26.6089  -44.5278 H         1 UNK         0.0600 
    197 H197       -0.5082  -27.2795  -45.0174 H         1 UNK         0.0600 
    198 H198       -0.5370  -26.0505  -43.7610 H         1 UNK         0.0600 
    199 H199       -0.0865  -25.6184  -45.4102 H         1 UNK         0.0600 
    200 H200       -2.1790  -24.3294  -47.1187 H         1 UNK         0.3000 
    201 H201       -2.7381  -26.3055  -49.2582 H         1 UNK         0.0600 
    202 H202       -0.7567  -24.8306  -49.5093 H         1 UNK         0.0600 
    203 H203       -1.7720  -23.4033  -49.3570 H         1 UNK         0.0600 
    204 H204       -1.9499  -24.4797  -50.7455 H         1 UNK         0.0600 
    205 H205       -4.7333  -24.9783  -47.2142 H         1 UNK         0.3000 
    206 H206       -6.8642  -24.4226  -47.1314 H         1 UNK         0.0600 
    207 H207       -7.1711  -26.4034  -48.6233 H         1 UNK         0.0600 
    208 H208       -8.3957  -25.1788  -48.9148 H         1 UNK         0.0600 
    209 H209       -7.0626  -25.3656  -50.0437 H         1 UNK         0.0600 
    210 H210       -5.2740  -22.3165  -47.3523 H         1 UNK         0.3000 
    211 H211       -5.1499  -20.1314  -47.6464 H         1 UNK         0.0600 
    212 H212       -7.9424  -20.1336  -48.9061 H         1 UNK         0.0600 
    213 H213       -7.0593  -18.7432  -48.2974 H         1 UNK         0.0600 
    214 H214       -7.6102  -19.9820  -47.1807 H         1 UNK         0.0600 
    215 H215       -3.9538  -21.8630  -49.2874 H         1 UNK         0.3000 
    216 H216       -2.7879  -22.2042  -51.1175 H         1 UNK         0.0600 
    217 H217       -3.2877  -19.2660  -51.7836 H         1 UNK         0.0600 
    218 H218       -2.0446  -20.2833  -52.4966 H         1 UNK         0.0600 
    219 H219       -1.9830  -19.9101  -50.7864 H         1 UNK         0.0600 
    220 H220       -5.9185  -22.3308  -51.3011 H         1 UNK         0.3000 
    221 H221       -6.5008  -22.0939  -54.1047 H         1 UNK         0.0600 
    222 H222       -7.9832  -23.6676  -51.9355 H         1 UNK         0.0600 
    223 H223       -8.2401  -21.9606  -52.2993 H         1 UNK         0.0600 
    224 H224       -8.6240  -23.1862  -53.4998 H         1 UNK         0.0600 
    225 H225       -5.2660  -24.7422  -52.0558 H         1 UNK         0.3000 
    226 H226       -5.6164  -26.8248  -54.0490 H         1 UNK         0.0600 
    227 H227       -5.4862  -27.2640  -51.5688 H         1 UNK         0.0600 
    228 H228       -4.3003  -28.1849  -52.4833 H         1 UNK         0.0600 
    229 H229       -3.7954  -26.7621  -51.5852 H         1 UNK         0.0600 
    230 H230       -3.1190  -24.4819  -53.2416 H         1 UNK         0.3000 
    231 H231       -1.0932  -25.5853  -55.0657 H         1 UNK         0.0600 
    232 H232       -1.1994  -22.9878  -53.4305 H         1 UNK         0.0600 
    233 H233       -0.4230  -24.4894  -52.9278 H         1 UNK         0.0600 
    234 H234        0.2027  -23.5938  -54.3024 H         1 UNK         0.0600 
    235 H235       -3.7983  -23.4733  -55.2466 H         1 UNK         0.3000 
    236 H236       -4.6852  -22.0252  -56.6399 H         1 UNK         0.0600 
    237 H237       -4.5145  -23.8932  -58.3020 H         1 UNK         0.0600 
    238 H238       -4.4035  -22.3214  -59.0765 H         1 UNK         0.0600 
    239 H239       -2.9490  -23.2805  -58.8343 H         1 UNK         0.0600 
    240 H240       -2.5004  -21.1824  -55.0869 H         1 UNK         0.3000 
    241 H241       -0.8832  -19.7262  -54.7425 H         1 UNK         0.0600 
    242 H242        1.2367  -21.2746  -57.5414 H         1 UNK         0.3800 
    243 H243       -0.2764  -21.8964  -56.9377 H         1 UNK         0.3800 
    244 H244       -2.4708  -18.1509  -56.8010 H         1 UNK         0.0800 
    245 H245       -0.9804  -17.4825  -56.2295 H         1 UNK         0.0800 
    246 H246       -0.3128  -17.1603  -53.7940 H         1 UNK         0.0800 
    247 H247       -1.0864  -15.7073  -54.3768 H         1 UNK         0.0800 
@<TRIPOS>BOND
     1    1    2 1    
     2    1  127 1    
     3    1  128 1    
     4    1  129 1    
     5    2    3 2    
     6    2    4 am   BACKBONE|DICT|INTERRES
     7    4    5 1    
     8    4  130 1    
     9    5    6 1    
    10    5   65 1    
    11    5  131 1    
    12    6    7 1    
    13    6  132 1    
    14    6  133 1    
    15    7    8 1    
    16    8    9 1    
    17    8  134 1    
    18    8  135 1    
    19    9   10 ar   
    20    9   14 ar   
    21   10   11 ar   
    22   10  136 1    
    23   11   12 ar   
    24   11  126 1    
    25   12   13 ar   
    26   12  137 1    
    27   13   14 ar   
    28   13   15 1    
    29   14  138 1    
    30   15   16 1    
    31   15  139 1    
    32   15  140 1    
    33   16   17 1    
    34   17   18 1    
    35   17  141 1    
    36   17  142 1    
    37   18   19 1    
    38   18   67 1    
    39   18  143 1    
    40   19   20 am   BACKBONE|DICT|INTERRES
    41   19  144 1    
    42   20   21 2    
    43   20   22 1    
    44   22   23 1    
    45   22   24 1    
    46   22  145 1    
    47   23  146 1    
    48   23  147 1    
    49   23  148 1    
    50   24   25 am   BACKBONE|DICT|INTERRES
    51   24  149 1    
    52   25   26 2    
    53   25   27 1    
    54   27   28 1    
    55   27   29 1    
    56   27  150 1    
    57   28  151 1    
    58   28  152 1    
    59   28  153 1    
    60   29   30 am   BACKBONE|DICT|INTERRES
    61   29  154 1    
    62   30   31 2    
    63   30   32 1    
    64   32   33 1    
    65   32   34 1    
    66   32  155 1    
    67   33  156 1    
    68   33  157 1    
    69   33  158 1    
    70   34   35 am   BACKBONE|DICT|INTERRES
    71   34  159 1    
    72   35   36 2    
    73   35   37 1    
    74   37   38 1    
    75   37   39 1    
    76   37  160 1    
    77   38  161 1    
    78   38  162 1    
    79   38  163 1    
    80   39   40 am   BACKBONE|DICT|INTERRES
    81   39  164 1    
    82   40   41 2    
    83   40   42 1    
    84   42   43 1    
    85   42   44 1    
    86   42  165 1    
    87   43  166 1    
    88   43  167 1    
    89   43  168 1    
    90   44   45 am   BACKBONE|DICT|INTERRES
    91   44  169 1    
    92   45   46 2    
    93   45   47 1    
    94   47   48 1    
    95   47   49 1    
    96   47  170 1    
    97   48  171 1    
    98   48  172 1    
    99   48  173 1    
   100   49   50 am   BACKBONE|DICT|INTERRES
   101   49  174 1    
   102   50   51 2    
   103   50   52 1    
   104   52   53 1    
   105   52   54 1    
   106   52  175 1    
   107   53  176 1    
   108   53  177 1    
   109   53  178 1    
   110   54   55 am   BACKBONE|DICT|INTERRES
   111   54  179 1    
   112   55   56 2    
   113   55   57 1    
   114   57   58 1    
   115   57   59 1    
   116   57  180 1    
   117   58  181 1    
   118   58  182 1    
   119   58  183 1    
   120   59   60 am   BACKBONE|DICT|INTERRES
   121   59  184 1    
   122   60   61 2    
   123   60   62 1    
   124   62   63 1    
   125   62   64 1    
   126   62  185 1    
   127   63  186 1    
   128   63  187 1    
   129   63  188 1    
   130   64   65 am   BACKBONE|DICT|INTERRES
   131   64  189 1    
   132   65   66 2    
   133   67   68 2    
   134   67   69 am   BACKBONE|DICT|INTERRES
   135   69   70 1    
   136   69  190 1    
   137   70   71 1    
   138   70   72 1    
   139   70  191 1    
   140   71  192 1    
   141   71  193 1    
   142   71  194 1    
   143   72   73 2    
   144   72   74 am   BACKBONE|DICT|INTERRES
   145   74   75 1    
   146   74  195 1    
   147   75   76 1    
   148   75   77 1    
   149   75  196 1    
   150   76  197 1    
   151   76  198 1    
   152   76  199 1    
   153   77   78 2    
   154   77   79 am   BACKBONE|DICT|INTERRES
   155   79   80 1    
   156   79  200 1    
   157   80   81 1    
   158   80   82 1    
   159   80  201 1    
   160   81  202 1    
   161   81  203 1    
   162   81  204 1    
   163   82   83 2    
   164   82   84 am   BACKBONE|DICT|INTERRES
   165   84   85 1    
   166   84  205 1    
   167   85   86 1    
   168   85   87 1    
   169   85  206 1    
   170   86  207 1    
   171   86  208 1    
   172   86  209 1    
   173   87   88 2    
   174   87   89 am   BACKBONE|DICT|INTERRES
   175   89   90 1    
   176   89  210 1    
   177   90   91 1    
   178   90   92 1    
   179   90  211 1    
   180   91  212 1    
   181   91  213 1    
   182   91  214 1    
   183   92   93 2    
   184   92   94 am   BACKBONE|DICT|INTERRES
   185   94   95 1    
   186   94  215 1    
   187   95   96 1    
   188   95   97 1    
   189   95  216 1    
   190   96  217 1    
   191   96  218 1    
   192   96  219 1    
   193   97   98 2    
   194   97   99 am   BACKBONE|DICT|INTERRES
   195   99  100 1    
   196   99  220 1    
   197  100  101 1    
   198  100  102 1    
   199  100  221 1    
   200  101  222 1    
   201  101  223 1    
   202  101  224 1    
   203  102  103 2    
   204  102  104 am   BACKBONE|DICT|INTERRES
   205  104  105 1    
   206  104  225 1    
   207  105  106 1    
   208  105  107 1    
   209  105  226 1    
   210  106  227 1    
   211  106  228 1    
   212  106  229 1    
   213  107  108 2    
   214  107  109 am   BACKBONE|DICT|INTERRES
   215  109  110 1    
   216  109  230 1    
   217  110  111 1    
   218  110  112 1    
   219  110  231 1    
   220  111  232 1    
   221  111  233 1    
   222  111  234 1    
   223  112  113 2    
   224  112  114 am   BACKBONE|DICT|INTERRES
   225  114  115 1    
   226  114  235 1    
   227  115  116 1    
   228  115  117 1    
   229  115  236 1    
   230  116  237 1    
   231  116  238 1    
   232  116  239 1    
   233  117  118 2    
   234  117  119 am   BACKBONE|DICT|INTERRES
   235  119  120 1    
   236  119  240 1    
   237  120  121 1    
   238  120  124 1    
   239  120  241 1    
   240  121  122 am   BACKBONE|DICT|INTERRES
   241  121  123 2    
   242  122  242 1    
   243  122  243 1    
   244  124  125 1    
   245  124  244 1    
   246  124  245 1    
   247  125  126 1    
   248  126  246 1    
   249  126  247 1    
@<TRIPOS>SUBSTRUCTURE
     1 UNK         1 GROUP             0       ****    0 ROOT    
