@<TRIPOS>MOLECULE
3R540
247   249    1
SMALL
USER_CHARGES


@<TRIPOS>ATOM
      1 CA          4.4123  -20.1035  -51.1848 C.3       0 UNK        -0.1800 
      2 C           4.2212  -19.5044  -49.7995 C.2       0 UNK         0.5000 
      3 O           4.5523  -20.1440  -48.8023 O.2       0 UNK        -0.5000 
      4 N           3.7079  -18.2691  -49.7319 N.am      1 UNK        -0.5000 
      5 CA          3.3826  -17.5141  -48.5104 C.3       1 UNK         0.1400 
      6 C6          2.3584  -16.3824  -48.8083 C.3       23 UNK        -0.0398 
      7 S7          0.7351  -17.0141  -49.3599 S.3       23 UNK        -0.2404 
      8 C8         -0.3931  -16.0678  -48.2885 C.3       23 UNK        -0.0205 
      9 C9         -1.8565  -16.3835  -48.5686 C.ar      23 UNK        -0.0193 
     10 C10        -2.4480  -15.9758  -49.7693 C.ar      23 UNK        -0.1150 
     11 C11        -3.8041  -16.2157  -50.0130 C.ar      23 UNK        -0.0193 
     12 C12        -4.5650  -16.8775  -49.0456 C.ar      23 UNK        -0.1150 
     13 C13        -3.9896  -17.2954  -47.8434 C.ar      23 UNK        -0.0193 
     14 C14        -2.6344  -17.0384  -47.6083 C.ar      23 UNK        -0.1150 
     15 C15        -4.8575  -17.9720  -46.7910 C.3       23 UNK        -0.0205 
     16 S16        -4.4944  -19.7481  -46.6084 S.3       23 UNK        -0.2404 
     17 C17        -3.1363  -19.7422  -45.3896 C.3       23 UNK        -0.0398 
     18 CA         -1.7769  -20.1301  -46.0196 C.3       11 UNK         0.1400 
     19 N          -0.6543  -19.5014  -45.3243 N.am      11 UNK        -0.5000 
     20 C           0.5966  -19.4482  -45.7999 C.2       10 UNK         0.5000 
     21 O           0.9340  -19.8803  -46.9001 O.2       10 UNK        -0.5000 
     22 CA          1.6575  -18.8586  -44.8593 C.3       10 UNK         0.1400 
     23 CB          1.7264  -17.3356  -45.0094 C.3       10 UNK        -0.1800 
     24 N           1.4068  -19.2069  -43.4581 N.am      10 UNK        -0.5000 
     25 C           1.5873  -20.4438  -42.9720 C.2       9 UNK         0.5000 
     26 O           1.9894  -21.3845  -43.6545 O.2       9 UNK        -0.5000 
     27 CA          1.2329  -20.6967  -41.4962 C.3       9 UNK         0.1400 
     28 CB          2.4562  -20.4413  -40.6033 C.3       9 UNK        -0.1800 
     29 N           0.0910  -19.9296  -40.9931 N.am      9 UNK        -0.5000 
     30 C          -1.1487  -19.9462  -41.5021 C.2       8 UNK         0.5000 
     31 O          -1.4481  -20.5318  -42.5461 O.2       8 UNK        -0.5000 
     32 CA         -2.2418  -19.1838  -40.7340 C.3       8 UNK         0.1400 
     33 CB         -1.7464  -18.4149  -39.4915 C.3       8 UNK        -0.1800 
     34 N          -2.8851  -18.2589  -41.6561 N.am      8 UNK        -0.5000 
     35 C          -4.1851  -17.9409  -41.6730 C.2       7 UNK         0.5000 
     36 O          -5.0075  -18.4065  -40.8826 O.2       7 UNK        -0.5000 
     37 CA         -4.6537  -16.9613  -42.7749 C.3       7 UNK         0.1400 
     38 CB         -5.7461  -15.9891  -42.2826 C.3       7 UNK        -0.1800 
     39 N          -3.5539  -16.2424  -43.4387 N.am      7 UNK        -0.5000 
     40 C          -2.7229  -15.3484  -42.8853 C.2       6 UNK         0.5000 
     41 O          -2.8406  -14.8995  -41.7429 O.2       6 UNK        -0.5000 
     42 CA         -1.5343  -14.9123  -43.7619 C.3       6 UNK         0.1400 
     43 CB         -1.8539  -13.6133  -44.5151 C.3       6 UNK        -0.1800 
     44 N          -0.3190  -14.7256  -42.9705 N.am      6 UNK        -0.5000 
     45 C           0.3000  -15.6762  -42.2595 C.2       5 UNK         0.5000 
     46 O          -0.0205  -16.8692  -42.2865 O.2       5 UNK        -0.5000 
     47 CA          1.5120  -15.2144  -41.4267 C.3       5 UNK         0.1400 
     48 CB          1.8379  -16.1949  -40.2878 C.3       5 UNK        -0.1800 
     49 N           2.7044  -15.0591  -42.2569 N.am      5 UNK        -0.5000 
     50 C           2.9332  -14.0969  -43.1582 C.2       4 UNK         0.5000 
     51 O           2.1532  -13.1650  -43.3605 O.2       4 UNK        -0.5000 
     52 CA          4.2322  -14.1789  -43.9915 C.3       4 UNK         0.1400 
     53 CB          5.2607  -13.1371  -43.5117 C.3       4 UNK        -0.1800 
     54 N           4.8488  -15.5116  -44.1035 N.am      4 UNK        -0.5000 
     55 C           5.4191  -16.2651  -43.1482 C.2       3 UNK         0.5000 
     56 O           5.4437  -15.9500  -41.9590 O.2       3 UNK        -0.5000 
     57 CA          6.0323  -17.6176  -43.5691 C.3       3 UNK         0.1400 
     58 CB          5.1854  -18.7819  -43.0321 C.3       3 UNK        -0.1800 
     59 N           6.1840  -17.7687  -45.0180 N.am      3 UNK        -0.5000 
     60 C           7.1186  -17.1512  -45.7537 C.2       2 UNK         0.5000 
     61 O           7.9892  -16.4221  -45.2775 O.2       2 UNK        -0.5000 
     62 CA          7.0650  -17.3666  -47.2786 C.3       2 UNK         0.1400 
     63 CB          8.0751  -18.4429  -47.7043 C.3       2 UNK        -0.1800 
     64 N           5.7439  -17.7316  -47.7988 N.am      2 UNK        -0.5000 
     65 C           4.6368  -16.9783  -47.7652 C.2       1 UNK         0.5000 
     66 O           4.5866  -15.9033  -47.1646 O.2       1 UNK        -0.5000 
     67 C          -1.5931  -21.6566  -46.0834 C.2       11 UNK         0.5000 
     68 O          -1.7939  -22.2467  -47.1434 O.2       11 UNK        -0.5000 
     69 N          -1.1634  -22.2541  -44.9623 N.am      12 UNK        -0.5000 
     70 CA         -0.8408  -23.6765  -44.8505 C.3       12 UNK         0.1400 
     71 CB         -0.5677  -24.0225  -43.3791 C.3       12 UNK        -0.1800 
     72 C           0.3432  -24.0959  -45.7433 C.2       12 UNK         0.5000 
     73 O           0.2884  -25.1628  -46.3556 O.2       12 UNK        -0.5000 
     74 N           1.3777  -23.2458  -45.8148 N.am      13 UNK        -0.5000 
     75 CA          2.5516  -23.4351  -46.6659 C.3       13 UNK         0.1400 
     76 CB          3.6413  -22.4228  -46.2774 C.3       13 UNK        -0.1800 
     77 C           2.2227  -23.3287  -48.1654 C.2       13 UNK         0.5000 
     78 O           2.6656  -24.1756  -48.9429 O.2       13 UNK        -0.5000 
     79 N           1.4598  -22.2949  -48.5446 N.am      14 UNK        -0.5000 
     80 CA          1.1008  -22.0186  -49.9334 C.3       14 UNK         0.1400 
     81 CB          0.6317  -20.5620  -50.0524 C.3       14 UNK        -0.1800 
     82 C           0.0156  -22.9569  -50.4821 C.2       14 UNK         0.5000 
     83 O           0.0968  -23.3558  -51.6440 O.2       14 UNK        -0.5000 
     84 N          -1.0080  -23.2300  -49.6576 N.am      15 UNK        -0.5000 
     85 CA         -2.2832  -23.8740  -50.0007 C.3       15 UNK         0.1400 
     86 CB         -2.0737  -25.3410  -50.4273 C.3       15 UNK        -0.1800 
     87 C          -3.1095  -23.0671  -51.0286 C.2       15 UNK         0.5000 
     88 O          -3.9830  -23.6284  -51.6905 O.2       15 UNK        -0.5000 
     89 N          -2.8245  -21.7610  -51.1459 N.am      16 UNK        -0.5000 
     90 CA         -3.3386  -20.8673  -52.1838 C.3       16 UNK         0.1400 
     91 CB         -2.6388  -19.5044  -52.0753 C.3       16 UNK        -0.1800 
     92 C          -4.8647  -20.6982  -52.1607 C.2       16 UNK         0.5000 
     93 O          -5.4791  -20.6361  -53.2258 O.2       16 UNK        -0.5000 
     94 N          -5.4482  -20.6618  -50.9559 N.am      17 UNK        -0.5000 
     95 CA         -6.8922  -20.5604  -50.7481 C.3       17 UNK         0.1400 
     96 CB         -7.1676  -20.1881  -49.2845 C.3       17 UNK        -0.1800 
     97 C          -7.6391  -21.8520  -51.1302 C.2       17 UNK         0.5000 
     98 O          -8.7610  -21.7762  -51.6309 O.2       17 UNK        -0.5000 
     99 N          -6.9997  -23.0090  -50.9065 N.am      18 UNK        -0.5000 
    100 CA        -7.5246  -24.3282  -51.2625 C.3       18 UNK         0.1400 
    101 CB        -6.8014  -25.4067  -50.4406 C.3       18 UNK        -0.1800 
    102 C         -7.3918  -24.6048  -52.7698 C.2       18 UNK         0.5000 
    103 O         -8.3134  -25.1536  -53.3746 O.2       18 UNK        -0.5000 
    104 N         -6.2567  -24.1937  -53.3506 N.am      19 UNK        -0.5000 
    105 CA        -5.9599  -24.2859  -54.7807 C.3       19 UNK         0.1400 
    106 CB        -4.4513  -24.0683  -54.9797 C.3       19 UNK        -0.1800 
    107 C         -6.7553  -23.2837  -55.6412 C.2       19 UNK         0.5000 
    108 O         -6.8482  -23.4796  -56.8535 O.2       19 UNK        -0.5000 
    109 N         -7.2811  -22.2245  -55.0064 N.am      20 UNK        -0.5000 
    110 CA        -7.9240  -21.0494  -55.6053 C.3       20 UNK         0.1400 
    111 CB        -9.2346  -21.4307  -56.3244 C.3       20 UNK        -0.1800 
    112 C         -6.9440  -20.2493  -56.4905 C.2       20 UNK         0.5000 
    113 O         -7.3147  -19.7645  -57.5610 O.2       20 UNK        -0.5000 
    114 N         -5.6954  -20.1443  -56.0184 N.am      21 UNK        -0.5000 
    115 CA        -4.5925  -19.4537  -56.6854 C.3       21 UNK         0.1400 
    116 CB        -3.2725  -20.1082  -56.2488 C.3       21 UNK        -0.1800 
    117 C         -4.5704  -17.9438  -56.3824 C.2       21 UNK         0.5000 
    118 O         -3.9171  -17.1939  -57.1093 O.2       21 UNK        -0.5000 
    119 N         -5.2612  -17.5306  -55.3123 N.am      22 UNK        -0.5000 
    120 CA        -5.4013  -16.1386  -54.8618 C.3       22 UNK         0.1400 
    121 C         -6.0974  -15.2263  -55.9111 C.2       22 UNK         0.5000 
    122 N         -5.6236  -14.0007  -56.0907 N.am      22 UNK        -0.7600 
    123 O         -7.0912  -15.6037  -56.5281 O.2       22 UNK        -0.5000 
    124 C124       -6.1546  -16.0588  -53.5110 C.3       23 UNK        -0.0398 
    125 S125       -5.3479  -17.0210  -52.1878 S.3       23 UNK        -0.2404 
    126 C126       -4.4640  -15.7074  -51.2884 C.3       23 UNK        -0.0205 
    127 H127        4.0794  -21.1410  -51.1970 H         1 UNK         0.0600 
    128 H128        5.4669  -20.0818  -51.4590 H         1 UNK         0.0600 
    129 H129        3.8479  -19.5574  -51.9411 H         1 UNK         0.0600 
    130 H130        3.4776  -17.7958  -50.5938 H         1 UNK         0.3000 
    131 H131        2.9098  -18.2157  -47.8216 H         1 UNK         0.0600 
    132 H132        2.7470  -15.7114  -49.5759 H         1 UNK         0.0800 
    133 H133        2.1945  -15.7579  -47.9293 H         1 UNK         0.0800 
    134 H134       -0.2245  -15.0007  -48.4406 H         1 UNK         0.0800 
    135 H135       -0.1510  -16.2749  -47.2454 H         1 UNK         0.0800 
    136 H136       -1.8514  -15.4547  -50.5049 H         1 UNK         0.1150 
    137 H137       -5.6163  -17.0502  -49.2274 H         1 UNK         0.1150 
    138 H138       -2.1842  -17.3355  -46.6737 H         1 UNK         0.1150 
    139 H139       -5.9108  -17.8747  -47.0580 H         1 UNK         0.0800 
    140 H140       -4.7543  -17.4534  -45.8403 H         1 UNK         0.0800 
    141 H141       -3.0724  -18.7507  -44.9449 H         1 UNK         0.0800 
    142 H142       -3.4017  -20.4032  -44.5621 H         1 UNK         0.0800 
    143 H143       -1.7517  -19.7608  -47.0477 H         1 UNK         0.0600 
    144 H144       -0.8101  -19.2269  -44.3648 H         1 UNK         0.3000 
    145 H145        2.6252  -19.2710  -45.1521 H         1 UNK         0.0600 
    146 H146        2.0630  -17.0528  -46.0022 H         1 UNK         0.0600 
    147 H147        2.4264  -16.9056  -44.2972 H         1 UNK         0.0600 
    148 H148        0.7541  -16.8700  -44.8592 H         1 UNK         0.0600 
    149 H149        1.0192  -18.4835  -42.8596 H         1 UNK         0.3000 
    150 H150        0.9690  -21.7520  -41.4064 H         1 UNK         0.0600 
    151 H151        2.7717  -19.3990  -40.6366 H         1 UNK         0.0600 
    152 H152        3.3049  -21.0475  -40.9233 H         1 UNK         0.0600 
    153 H153        2.2495  -20.6982  -39.5643 H         1 UNK         0.0600 
    154 H154        0.2501  -19.3918  -40.1541 H         1 UNK         0.3000 
    155 H155       -2.9619  -19.9374  -40.4090 H         1 UNK         0.0600 
    156 H156       -2.5778  -17.9306  -38.9790 H         1 UNK         0.0600 
    157 H157       -1.0308  -17.6368  -39.7575 H         1 UNK         0.0600 
    158 H158       -1.2744  -19.0816  -38.7689 H         1 UNK         0.0600 
    159 H159       -2.2651  -17.8229  -42.3240 H         1 UNK         0.3000 
    160 H160       -5.1098  -17.5905  -43.5394 H         1 UNK         0.0600 
    161 H161       -5.4087  -15.3899  -41.4368 H         1 UNK         0.0600 
    162 H162       -6.6350  -16.5320  -41.9593 H         1 UNK         0.0600 
    163 H163       -6.0551  -15.3083  -43.0758 H         1 UNK         0.0600 
    164 H164       -3.3877  -16.5038  -44.3983 H         1 UNK         0.3000 
    165 H165       -1.3334  -15.6947  -44.4961 H         1 UNK         0.0600 
    166 H166       -1.0305  -13.3239  -45.1685 H         1 UNK         0.0600 
    167 H167       -2.7389  -13.7316  -45.1417 H         1 UNK         0.0600 
    168 H168       -2.0445  -12.7875  -43.8284 H         1 UNK         0.0600 
    169 H169        0.0688  -13.7912  -42.9475 H         1 UNK         0.3000 
    170 H170        1.2680  -14.2487  -40.9793 H         1 UNK         0.0600 
    171 H171        2.6677  -15.8319  -39.6809 H         1 UNK         0.0600 
    172 H172        2.1101  -17.1779  -40.6704 H         1 UNK         0.0600 
    173 H173        0.9826  -16.3215  -39.6240 H         1 UNK         0.0600 
    174 H174        3.4482  -15.7303  -42.1096 H         1 UNK         0.3000 
    175 H175        3.9489  -13.9101  -45.0104 H         1 UNK         0.0600 
    176 H176        4.8424  -12.1306  -43.5499 H         1 UNK         0.0600 
    177 H177        5.5754  -13.3185  -42.4837 H         1 UNK         0.0600 
    178 H178        6.1502  -13.1429  -44.1418 H         1 UNK         0.0600 
    179 H179        4.8702  -15.8726  -45.0507 H         1 UNK         0.3000 
    180 H180        7.0216  -17.6809  -43.1110 H         1 UNK         0.0600 
    181 H181        5.6215  -19.7460  -43.2943 H         1 UNK         0.0600 
    182 H182        4.1723  -18.7525  -43.4268 H         1 UNK         0.0600 
    183 H183        5.1121  -18.7452  -41.9444 H         1 UNK         0.0600 
    184 H184        5.5208  -18.3639  -45.4911 H         1 UNK         0.3000 
    185 H185        7.3527  -16.4232  -47.7469 H         1 UNK         0.0600 
    186 H186        9.0805  -18.1960  -47.3604 H         1 UNK         0.0600 
    187 H187        7.8172  -19.4199  -47.2935 H         1 UNK         0.0600 
    188 H188        8.1184  -18.5362  -48.7897 H         1 UNK         0.0600 
    189 H189        5.6648  -18.6391  -48.2471 H         1 UNK         0.3000 
    190 H190       -1.0575  -21.6921  -44.1235 H         1 UNK         0.3000 
    191 H191       -1.7177  -24.2406  -45.1752 H         1 UNK         0.0600 
    192 H192       -1.4157  -23.7588  -42.7466 H         1 UNK         0.0600 
    193 H193       -0.3896  -25.0916  -43.2575 H         1 UNK         0.0600 
    194 H194        0.3095  -23.4995  -42.9987 H         1 UNK         0.0600 
    195 H195        1.3823  -22.4271  -45.2148 H         1 UNK         0.3000 
    196 H196        2.9427  -24.4377  -46.4809 H         1 UNK         0.0600 
    197 H197        4.5279  -22.5436  -46.9012 H         1 UNK         0.0600 
    198 H198        3.9520  -22.5546  -45.2410 H         1 UNK         0.0600 
    199 H199        3.2978  -21.3948  -46.3966 H         1 UNK         0.0600 
    200 H200        1.1750  -21.6064  -47.8541 H         1 UNK         0.3000 
    201 H201        1.9930  -22.1390  -50.5505 H         1 UNK         0.0600 
    202 H202        0.4529  -20.2907  -51.0929 H         1 UNK         0.0600 
    203 H203        1.3830  -19.8784  -49.6646 H         1 UNK         0.0600 
    204 H204       -0.2881  -20.3805  -49.4948 H         1 UNK         0.0600 
    205 H205       -0.9853  -22.8450  -48.7156 H         1 UNK         0.3000 
    206 H206       -2.8733  -23.8820  -49.0836 H         1 UNK         0.0600 
    207 H207       -1.4795  -25.8834  -49.6919 H         1 UNK         0.0600 
    208 H208       -3.0281  -25.8606  -50.5197 H         1 UNK         0.0600 
    209 H209       -1.5690  -25.4168  -51.3907 H         1 UNK         0.0600 
    210 H210       -2.1137  -21.3826  -50.5392 H         1 UNK         0.3000 
    211 H211       -3.0759  -21.3085  -53.1469 H         1 UNK         0.0600 
    212 H212       -2.8242  -19.0289  -51.1109 H         1 UNK         0.0600 
    213 H213       -2.9905  -18.8219  -52.8500 H         1 UNK         0.0600 
    214 H214       -1.5612  -19.6011  -52.2019 H         1 UNK         0.0600 
    215 H215       -4.8660  -20.7109  -50.1330 H         1 UNK         0.3000 
    216 H216       -7.2724  -19.7553  -51.3811 H         1 UNK         0.0600 
    217 H217       -8.2380  -20.0876  -49.1009 H         1 UNK         0.0600 
    218 H218       -6.7845  -20.9425  -48.5962 H         1 UNK         0.0600 
    219 H219       -6.7047  -19.2356  -49.0295 H         1 UNK         0.0600 
    220 H220       -6.0586  -22.9790  -50.5423 H         1 UNK         0.3000 
    221 H221       -8.5857  -24.3636  -51.0060 H         1 UNK         0.0600 
    222 H222       -5.7311  -25.4272  -50.6479 H         1 UNK         0.0600 
    223 H223       -6.9324  -25.2408  -49.3712 H         1 UNK         0.0600 
    224 H224       -7.1970  -26.3977  -50.6664 H         1 UNK         0.0600 
    225 H225       -5.5172  -23.8204  -52.7601 H         1 UNK         0.3000 
    226 H226       -6.2126  -25.2916  -55.1224 H         1 UNK         0.0600 
    227 H227       -4.1750  -24.1652  -56.0304 H         1 UNK         0.0600 
    228 H228       -4.1434  -23.0756  -54.6491 H         1 UNK         0.0600 
    229 H229       -3.8693  -24.8016  -54.4209 H         1 UNK         0.0600 
    230 H230       -7.0937  -22.1500  -54.0157 H         1 UNK         0.3000 
    231 H231       -8.1856  -20.3932  -54.7738 H         1 UNK         0.0600 
    232 H232       -9.0519  -22.0313  -57.2157 H         1 UNK         0.0600 
    233 H233       -9.7786  -20.5395  -56.6389 H         1 UNK         0.0600 
    234 H234       -9.8934  -21.9975  -55.6665 H         1 UNK         0.0600 
    235 H235       -5.5061  -20.5204  -55.0924 H         1 UNK         0.3000 
    236 H236       -4.6941  -19.5761  -57.7658 H         1 UNK         0.0600 
    237 H237       -3.0976  -19.9830  -55.1804 H         1 UNK         0.0600 
    238 H238       -3.2687  -21.1762  -56.4681 H         1 UNK         0.0600 
    239 H239       -2.4250  -19.6652  -56.7733 H         1 UNK         0.0600 
    240 H240       -5.7544  -18.2230  -54.7688 H         1 UNK         0.3000 
    241 H241       -4.3903  -15.7575  -54.7050 H         1 UNK         0.0600 
    242 H242       -4.8134  -13.6662  -55.5919 H         1 UNK         0.3800 
    243 H243       -6.0767  -13.3941  -56.7569 H         1 UNK         0.3800 
    244 H244       -7.1729  -16.4355  -53.6236 H         1 UNK         0.0800 
    245 H245       -6.2543  -15.0212  -53.1875 H         1 UNK         0.0800 
    246 H246       -3.7247  -15.2609  -51.9552 H         1 UNK         0.0800 
    247 H247       -5.1648  -14.9157  -51.0204 H         1 UNK         0.0800 
@<TRIPOS>BOND
     1    1    2 1    
     2    1  127 1    
     3    1  128 1    
     4    1  129 1    
     5    2    3 2    
     6    2    4 am   BACKBONE|DICT|INTERRES
     7    4    5 1    
     8    4  130 1    
     9    5    6 1    
    10    5   65 1    
    11    5  131 1    
    12    6    7 1    
    13    6  132 1    
    14    6  133 1    
    15    7    8 1    
    16    8    9 1    
    17    8  134 1    
    18    8  135 1    
    19    9   10 ar   
    20    9   14 ar   
    21   10   11 ar   
    22   10  136 1    
    23   11   12 ar   
    24   11  126 1    
    25   12   13 ar   
    26   12  137 1    
    27   13   14 ar   
    28   13   15 1    
    29   14  138 1    
    30   15   16 1    
    31   15  139 1    
    32   15  140 1    
    33   16   17 1    
    34   17   18 1    
    35   17  141 1    
    36   17  142 1    
    37   18   19 1    
    38   18   67 1    
    39   18  143 1    
    40   19   20 am   BACKBONE|DICT|INTERRES
    41   19  144 1    
    42   20   21 2    
    43   20   22 1    
    44   22   23 1    
    45   22   24 1    
    46   22  145 1    
    47   23  146 1    
    48   23  147 1    
    49   23  148 1    
    50   24   25 am   BACKBONE|DICT|INTERRES
    51   24  149 1    
    52   25   26 2    
    53   25   27 1    
    54   27   28 1    
    55   27   29 1    
    56   27  150 1    
    57   28  151 1    
    58   28  152 1    
    59   28  153 1    
    60   29   30 am   BACKBONE|DICT|INTERRES
    61   29  154 1    
    62   30   31 2    
    63   30   32 1    
    64   32   33 1    
    65   32   34 1    
    66   32  155 1    
    67   33  156 1    
    68   33  157 1    
    69   33  158 1    
    70   34   35 am   BACKBONE|DICT|INTERRES
    71   34  159 1    
    72   35   36 2    
    73   35   37 1    
    74   37   38 1    
    75   37   39 1    
    76   37  160 1    
    77   38  161 1    
    78   38  162 1    
    79   38  163 1    
    80   39   40 am   BACKBONE|DICT|INTERRES
    81   39  164 1    
    82   40   41 2    
    83   40   42 1    
    84   42   43 1    
    85   42   44 1    
    86   42  165 1    
    87   43  166 1    
    88   43  167 1    
    89   43  168 1    
    90   44   45 am   BACKBONE|DICT|INTERRES
    91   44  169 1    
    92   45   46 2    
    93   45   47 1    
    94   47   48 1    
    95   47   49 1    
    96   47  170 1    
    97   48  171 1    
    98   48  172 1    
    99   48  173 1    
   100   49   50 am   BACKBONE|DICT|INTERRES
   101   49  174 1    
   102   50   51 2    
   103   50   52 1    
   104   52   53 1    
   105   52   54 1    
   106   52  175 1    
   107   53  176 1    
   108   53  177 1    
   109   53  178 1    
   110   54   55 am   BACKBONE|DICT|INTERRES
   111   54  179 1    
   112   55   56 2    
   113   55   57 1    
   114   57   58 1    
   115   57   59 1    
   116   57  180 1    
   117   58  181 1    
   118   58  182 1    
   119   58  183 1    
   120   59   60 am   BACKBONE|DICT|INTERRES
   121   59  184 1    
   122   60   61 2    
   123   60   62 1    
   124   62   63 1    
   125   62   64 1    
   126   62  185 1    
   127   63  186 1    
   128   63  187 1    
   129   63  188 1    
   130   64   65 am   BACKBONE|DICT|INTERRES
   131   64  189 1    
   132   65   66 2    
   133   67   68 2    
   134   67   69 am   BACKBONE|DICT|INTERRES
   135   69   70 1    
   136   69  190 1    
   137   70   71 1    
   138   70   72 1    
   139   70  191 1    
   140   71  192 1    
   141   71  193 1    
   142   71  194 1    
   143   72   73 2    
   144   72   74 am   BACKBONE|DICT|INTERRES
   145   74   75 1    
   146   74  195 1    
   147   75   76 1    
   148   75   77 1    
   149   75  196 1    
   150   76  197 1    
   151   76  198 1    
   152   76  199 1    
   153   77   78 2    
   154   77   79 am   BACKBONE|DICT|INTERRES
   155   79   80 1    
   156   79  200 1    
   157   80   81 1    
   158   80   82 1    
   159   80  201 1    
   160   81  202 1    
   161   81  203 1    
   162   81  204 1    
   163   82   83 2    
   164   82   84 am   BACKBONE|DICT|INTERRES
   165   84   85 1    
   166   84  205 1    
   167   85   86 1    
   168   85   87 1    
   169   85  206 1    
   170   86  207 1    
   171   86  208 1    
   172   86  209 1    
   173   87   88 2    
   174   87   89 am   BACKBONE|DICT|INTERRES
   175   89   90 1    
   176   89  210 1    
   177   90   91 1    
   178   90   92 1    
   179   90  211 1    
   180   91  212 1    
   181   91  213 1    
   182   91  214 1    
   183   92   93 2    
   184   92   94 am   BACKBONE|DICT|INTERRES
   185   94   95 1    
   186   94  215 1    
   187   95   96 1    
   188   95   97 1    
   189   95  216 1    
   190   96  217 1    
   191   96  218 1    
   192   96  219 1    
   193   97   98 2    
   194   97   99 am   BACKBONE|DICT|INTERRES
   195   99  100 1    
   196   99  220 1    
   197  100  101 1    
   198  100  102 1    
   199  100  221 1    
   200  101  222 1    
   201  101  223 1    
   202  101  224 1    
   203  102  103 2    
   204  102  104 am   BACKBONE|DICT|INTERRES
   205  104  105 1    
   206  104  225 1    
   207  105  106 1    
   208  105  107 1    
   209  105  226 1    
   210  106  227 1    
   211  106  228 1    
   212  106  229 1    
   213  107  108 2    
   214  107  109 am   BACKBONE|DICT|INTERRES
   215  109  110 1    
   216  109  230 1    
   217  110  111 1    
   218  110  112 1    
   219  110  231 1    
   220  111  232 1    
   221  111  233 1    
   222  111  234 1    
   223  112  113 2    
   224  112  114 am   BACKBONE|DICT|INTERRES
   225  114  115 1    
   226  114  235 1    
   227  115  116 1    
   228  115  117 1    
   229  115  236 1    
   230  116  237 1    
   231  116  238 1    
   232  116  239 1    
   233  117  118 2    
   234  117  119 am   BACKBONE|DICT|INTERRES
   235  119  120 1    
   236  119  240 1    
   237  120  121 1    
   238  120  124 1    
   239  120  241 1    
   240  121  122 am   BACKBONE|DICT|INTERRES
   241  121  123 2    
   242  122  242 1    
   243  122  243 1    
   244  124  125 1    
   245  124  244 1    
   246  124  245 1    
   247  125  126 1    
   248  126  246 1    
   249  126  247 1    
@<TRIPOS>SUBSTRUCTURE
     1 UNK         1 GROUP             0       ****    0 ROOT    
