@<TRIPOS>MOLECULE
3R540
247   249    1
SMALL
USER_CHARGES


@<TRIPOS>ATOM
      1 CA         -4.2687   -9.6008  -45.0731 C.3       0 UNK        -0.1800 
      2 C          -4.5452  -10.0596  -46.4981 C.2       0 UNK         0.5000 
      3 O          -4.7685   -9.2278  -47.3785 O.2       0 UNK        -0.5000 
      4 N          -4.5398  -11.3783  -46.7238 N.am      1 UNK        -0.5000 
      5 CA         -4.6863  -12.0115  -48.0376 C.3       1 UNK         0.1400 
      6 C6         -5.1167  -13.4953  -47.9009 C.3       23 UNK        -0.0398 
      7 S7         -3.8924  -14.5309  -47.0351 S.3       23 UNK        -0.2404 
      8 C8         -4.7690  -16.1151  -46.9191 C.3       23 UNK        -0.0205 
      9 C9         -3.7995  -17.2128  -46.5210 C.ar      23 UNK        -0.0193 
     10 C10        -2.8210  -17.6409  -47.4206 C.ar      23 UNK        -0.1150 
     11 C11        -1.9082  -18.6340  -47.0628 C.ar      23 UNK        -0.0193 
     12 C12        -1.9751  -19.1965  -45.7853 C.ar      23 UNK        -0.1150 
     13 C13        -2.9665  -18.7950  -44.8815 C.ar      23 UNK        -0.0193 
     14 C14        -3.8684  -17.7945  -45.2542 C.ar      23 UNK        -0.1150 
     15 C15        -3.0729  -19.4206  -43.4979 C.3       23 UNK        -0.0205 
     16 S16        -3.4103  -21.2115  -43.5686 S.3       23 UNK        -0.2404 
     17 C17        -1.7191  -21.8904  -43.5508 C.3       23 UNK        -0.0398 
     18 CA         -1.3769  -22.7342  -44.8030 C.3       11 UNK         0.1400 
     19 N           0.0387  -22.5949  -45.1772 N.am      11 UNK        -0.5000 
     20 C           0.6827  -23.2586  -46.1503 C.2       10 UNK         0.5000 
     21 O           0.1712  -24.1363  -46.8432 O.2       10 UNK        -0.5000 
     22 CA          2.1628  -22.9112  -46.3585 C.3       10 UNK         0.1400 
     23 CB          2.3101  -21.6068  -47.1481 C.3       10 UNK        -0.1800 
     24 N           2.8585  -22.7943  -45.0808 N.am      10 UNK        -0.5000 
     25 C           3.2902  -23.8459  -44.3712 C.2       9 UNK         0.5000 
     26 O           3.2434  -25.0101  -44.7699 O.2       9 UNK        -0.5000 
     27 CA          3.8336  -23.5506  -42.9618 C.3       9 UNK         0.1400 
     28 CB          5.3162  -23.1534  -43.0249 C.3       9 UNK        -0.1800 
     29 N           3.0840  -22.5029  -42.2679 N.am      9 UNK        -0.5000 
     30 C           1.7859  -22.5711  -41.9408 C.2       8 UNK         0.5000 
     31 O           1.0616  -23.5385  -42.1805 O.2       8 UNK        -0.5000 
     32 CA          1.1876  -21.3284  -41.2577 C.3       8 UNK         0.1400 
     33 CB          1.3601  -21.4251  -39.7347 C.3       8 UNK        -0.1800 
     34 N           1.7426  -20.0532  -41.7219 N.am      8 UNK        -0.5000 
     35 C           1.7636  -19.5950  -42.9830 C.2       7 UNK         0.5000 
     36 O           1.3459  -20.2391  -43.9498 O.2       7 UNK        -0.5000 
     37 CA          2.3110  -18.1601  -43.1591 C.3       7 UNK         0.1400 
     38 CB          3.5421  -17.8785  -42.2683 C.3       7 UNK        -0.1800 
     39 N           2.6064  -17.7763  -44.5418 N.am      7 UNK        -0.5000 
     40 C           3.5040  -18.3244  -45.3760 C.2       6 UNK         0.5000 
     41 O           4.1476  -19.3452  -45.1270 O.2       6 UNK        -0.5000 
     42 CA          3.7672  -17.5702  -46.6991 C.3       6 UNK         0.1400 
     43 CB          3.0214  -18.2206  -47.8720 C.3       6 UNK        -0.1800 
     44 N           3.4015  -16.1519  -46.6307 N.am      6 UNK        -0.5000 
     45 C           4.0977  -15.2251  -45.9532 C.2       5 UNK         0.5000 
     46 O           5.1503  -15.4695  -45.3621 O.2       5 UNK        -0.5000 
     47 CA          3.5419  -13.7854  -45.9154 C.3       5 UNK         0.1400 
     48 CB          4.3360  -12.8795  -46.8693 C.3       5 UNK        -0.1800 
     49 N           2.1195  -13.6737  -46.2415 N.am      5 UNK        -0.5000 
     50 C           1.1095  -14.1837  -45.5234 C.2       4 UNK         0.5000 
     51 O           1.2632  -14.8056  -44.4714 O.2       4 UNK        -0.5000 
     52 CA         -0.3083  -14.0003  -46.1036 C.3       4 UNK         0.1400 
     53 CB         -0.9415  -12.7220  -45.5312 C.3       4 UNK        -0.1800 
     54 N          -0.3777  -13.9599  -47.5730 N.am      4 UNK        -0.5000 
     55 C           0.1050  -14.9035  -48.3990 C.2       3 UNK         0.5000 
     56 O           0.7566  -15.8713  -48.0067 O.2       3 UNK        -0.5000 
     57 CA         -0.1551  -14.7448  -49.9083 C.3       3 UNK         0.1400 
     58 CB         -0.4393  -16.0959  -50.5857 C.3       3 UNK        -0.1800 
     59 N          -1.2658  -13.8330  -50.1866 N.am      3 UNK        -0.5000 
     60 C          -1.2021  -12.7793  -51.0110 C.2       2 UNK         0.5000 
     61 O          -0.1807  -12.4461  -51.6134 O.2       2 UNK        -0.5000 
     62 CA         -2.4882  -11.9490  -51.2169 C.3       2 UNK         0.1400 
     63 CB         -3.0939  -12.2458  -52.5988 C.3       2 UNK        -0.1800 
     64 N          -3.5343  -12.1237  -50.2019 N.am      2 UNK        -0.5000 
     65 C          -3.4091  -11.8446  -48.8973 C.2       1 UNK         0.5000 
     66 O          -2.3417  -11.5063  -48.3775 O.2       1 UNK        -0.5000 
     67 C          -1.8236  -24.1942  -44.5935 C.2       11 UNK         0.5000 
     68 O          -2.8923  -24.5766  -45.0701 O.2       11 UNK        -0.5000 
     69 N          -0.9710  -24.9826  -43.9238 N.am      12 UNK        -0.5000 
     70 CA         -1.1720  -26.4032  -43.6355 C.3       12 UNK         0.1400 
     71 CB          0.0028  -26.8996  -42.7790 C.3       12 UNK        -0.1800 
     72 C          -1.3403  -27.2942  -44.8839 C.2       12 UNK         0.5000 
     73 O          -2.0115  -28.3234  -44.7966 O.2       12 UNK        -0.5000 
     74 N          -0.7412  -26.8894  -46.0113 N.am      13 UNK        -0.5000 
     75 CA         -0.8539  -27.5693  -47.3005 C.3       13 UNK         0.1400 
     76 CB          0.5353  -27.6280  -47.9557 C.3       13 UNK        -0.1800 
     77 C          -1.8529  -26.8541  -48.2257 C.2       13 UNK         0.5000 
     78 O          -2.6262  -27.5188  -48.9160 O.2       13 UNK        -0.5000 
     79 N          -1.8040  -25.5163  -48.2392 N.am      14 UNK        -0.5000 
     80 CA         -2.5609  -24.6572  -49.1454 C.3       14 UNK         0.1400 
     81 CB         -1.9344  -23.2571  -49.1299 C.3       14 UNK        -0.1800 
     82 C          -4.0552  -24.5418  -48.8130 C.2       14 UNK         0.5000 
     83 O          -4.8466  -24.3000  -49.7230 O.2       14 UNK        -0.5000 
     84 N          -4.4086  -24.6467  -47.5230 N.am      15 UNK        -0.5000 
     85 CA         -5.7412  -24.3859  -46.9640 C.3       15 UNK         0.1400 
     86 CB         -6.7553  -25.4511  -47.4309 C.3       15 UNK        -0.1800 
     87 C          -6.2135  -22.9355  -47.2212 C.2       15 UNK         0.5000 
     88 O          -7.3893  -22.7049  -47.5078 O.2       15 UNK        -0.5000 
     89 N          -5.2648  -21.9910  -47.1208 N.am      16 UNK        -0.5000 
     90 CA         -5.4139  -20.5417  -47.3010 C.3       16 UNK         0.1400 
     91 CB         -6.3682  -19.9509  -46.2410 C.3       16 UNK        -0.1800 
     92 C          -5.7725  -20.1002  -48.7381 C.2       16 UNK         0.5000 
     93 O          -6.3088  -19.0053  -48.9242 O.2       16 UNK        -0.5000 
     94 N          -5.4599  -20.9343  -49.7406 N.am      17 UNK        -0.5000 
     95 CA         -5.6969  -20.6755  -51.1630 C.3       17 UNK         0.1400 
     96 CB         -5.6888  -22.0127  -51.9227 C.3       17 UNK        -0.1800 
     97 C          -4.6917  -19.6622  -51.7510 C.2       17 UNK         0.5000 
     98 O          -3.8551  -20.0236  -52.5840 O.2       17 UNK        -0.5000 
     99 N          -4.7914  -18.4016  -51.3092 N.am      18 UNK        -0.5000 
    100 CA        -3.9192  -17.2883  -51.6967 C.3       18 UNK         0.1400 
    101 CB        -4.2946  -16.0359  -50.8926 C.3       18 UNK        -0.1800 
    102 C         -3.9203  -16.9598  -53.1999 C.2       18 UNK         0.5000 
    103 O         -2.9271  -16.4303  -53.6949 O.2       18 UNK        -0.5000 
    104 N         -5.0078  -17.3050  -53.9030 N.am      19 UNK        -0.5000 
    105 CA        -5.1581  -17.1474  -55.3516 C.3       19 UNK         0.1400 
    106 CB        -6.6020  -17.4941  -55.7450 C.3       19 UNK        -0.1800 
    107 C         -4.1586  -17.9895  -56.1706 C.2       19 UNK         0.5000 
    108 O         -3.7693  -17.5703  -57.2611 O.2       19 UNK        -0.5000 
    109 N         -3.7478  -19.1444  -55.6269 N.am      20 UNK        -0.5000 
    110 CA        -2.7151  -20.0085  -56.2045 C.3       20 UNK         0.1400 
    111 CB        -3.0458  -21.4693  -55.8641 C.3       20 UNK        -0.1800 
    112 C         -1.2936  -19.6262  -55.7388 C.2       20 UNK         0.5000 
    113 O         -0.3245  -20.0898  -56.3398 O.2       20 UNK        -0.5000 
    114 N         -1.2056  -18.7791  -54.7013 N.am      21 UNK        -0.5000 
    115 CA        -0.0108  -18.1836  -54.0932 C.3       21 UNK         0.1400 
    116 CB         0.4921  -17.0317  -54.9863 C.3       21 UNK        -0.1800 
    117 C          1.1051  -19.1996  -53.7454 C.2       21 UNK         0.5000 
    118 O          2.1796  -19.1442  -54.3438 O.2       21 UNK        -0.5000 
    119 N          0.9009  -20.1306  -52.8052 N.am      22 UNK        -0.5000 
    120 CA        -0.3004  -20.4029  -52.0065 C.3       22 UNK         0.1400 
    121 C         -0.7261  -21.8739  -52.2450 C.2       22 UNK         0.5000 
    122 N         -2.0032  -22.1286  -52.4792 N.am      22 UNK        -0.7600 
    123 O          0.0942  -22.7885  -52.1998 O.2       22 UNK        -0.5000 
    124 C124       -0.0301  -20.1248  -50.5050 C.3       23 UNK        -0.0398 
    125 S125       -1.5537  -19.7934  -49.5600 S.3       23 UNK        -0.2404 
    126 C126       -0.8400  -19.0741  -48.0504 C.3       23 UNK        -0.0205 
    127 H127       -5.1176   -9.0355  -44.6885 H         1 UNK         0.0600 
    128 H128       -3.3896   -8.9567  -45.0511 H         1 UNK         0.0600 
    129 H129       -4.0888  -10.4428  -44.4040 H         1 UNK         0.0600 
    130 H130       -4.3225  -12.0108  -45.9674 H         1 UNK         0.3000 
    131 H131       -5.4890  -11.4896  -48.5630 H         1 UNK         0.0600 
    132 H132       -6.0606  -13.5515  -47.3567 H         1 UNK         0.0800 
    133 H133       -5.3159  -13.9316  -48.8807 H         1 UNK         0.0800 
    134 H134       -5.5771  -16.0247  -46.1917 H         1 UNK         0.0800 
    135 H135       -5.2392  -16.3701  -47.8686 H         1 UNK         0.0800 
    136 H136       -2.7591  -17.1938  -48.4000 H         1 UNK         0.1150 
    137 H137       -1.2556  -19.9482  -45.5005 H         1 UNK         0.1150 
    138 H138       -4.6284  -17.4679  -44.5585 H         1 UNK         0.1150 
    139 H139       -2.1674  -19.2112  -42.9272 H         1 UNK         0.0800 
    140 H140       -3.8858  -18.9563  -42.9377 H         1 UNK         0.0800 
    141 H141       -1.0266  -21.0564  -43.4699 H         1 UNK         0.0800 
    142 H142       -1.5845  -22.4586  -42.6284 H         1 UNK         0.0800 
    143 H143       -1.9398  -22.3451  -45.6534 H         1 UNK         0.0600 
    144 H144        0.5595  -21.8788  -44.6793 H         1 UNK         0.3000 
    145 H145        2.6183  -23.7116  -46.9458 H         1 UNK         0.0600 
    146 H146        3.3605  -21.3981  -47.3493 H         1 UNK         0.0600 
    147 H147        1.7984  -21.6700  -48.1085 H         1 UNK         0.0600 
    148 H148        1.8956  -20.7571  -46.6052 H         1 UNK         0.0600 
    149 H149        2.9096  -21.8693  -44.6729 H         1 UNK         0.3000 
    150 H150        3.7474  -24.4672  -42.3744 H         1 UNK         0.0600 
    151 H151        5.9057  -23.9236  -43.5240 H         1 UNK         0.0600 
    152 H152        5.7329  -23.0229  -42.0260 H         1 UNK         0.0600 
    153 H153        5.4602  -22.2217  -43.5740 H         1 UNK         0.0600 
    154 H154        3.5881  -21.6581  -42.0425 H         1 UNK         0.3000 
    155 H155        0.1188  -21.3142  -41.4656 H         1 UNK         0.0600 
    156 H156        0.8515  -20.6057  -39.2263 H         1 UNK         0.0600 
    157 H157        2.4115  -21.3998  -39.4454 H         1 UNK         0.0600 
    158 H158        0.9365  -22.3546  -39.3514 H         1 UNK         0.0600 
    159 H159        2.1074  -19.4503  -40.9989 H         1 UNK         0.3000 
    160 H160        1.5101  -17.4925  -42.8385 H         1 UNK         0.0600 
    161 H161        4.3441  -18.5954  -42.4489 H         1 UNK         0.0600 
    162 H162        3.2930  -17.9195  -41.2077 H         1 UNK         0.0600 
    163 H163        3.9416  -16.8817  -42.4575 H         1 UNK         0.0600 
    164 H164        2.1309  -16.9417  -44.8596 H         1 UNK         0.3000 
    165 H165        4.8373  -17.6322  -46.9078 H         1 UNK         0.0600 
    166 H166        1.9656  -18.3565  -47.6440 H         1 UNK         0.0600 
    167 H167        3.0947  -17.6180  -48.7776 H         1 UNK         0.0600 
    168 H168        3.4424  -19.1975  -48.1038 H         1 UNK         0.0600 
    169 H169        2.5326  -15.8890  -47.0868 H         1 UNK         0.3000 
    170 H170        3.6788  -13.4142  -44.8977 H         1 UNK         0.0600 
    171 H171        5.4018  -12.9050  -46.6379 H         1 UNK         0.0600 
    172 H172        4.2184  -13.1899  -47.9084 H         1 UNK         0.0600 
    173 H173        4.0134  -11.8413  -46.7891 H         1 UNK         0.0600 
    174 H174        1.8904  -13.1934  -47.0990 H         1 UNK         0.3000 
    175 H175       -0.9044  -14.8551  -45.7770 H         1 UNK         0.0600 
    176 H176       -0.4181  -11.8278  -45.8719 H         1 UNK         0.0600 
    177 H177       -1.9850  -12.6273  -45.8264 H         1 UNK         0.0600 
    178 H178       -0.9154  -12.7246  -44.4408 H         1 UNK         0.0600 
    179 H179       -0.8840  -13.1784  -47.9716 H         1 UNK         0.3000 
    180 H180        0.7730  -14.3514  -50.3268 H         1 UNK         0.0600 
    181 H181       -1.2698  -16.6120  -50.1071 H         1 UNK         0.0600 
    182 H182        0.4298  -16.7523  -50.5338 H         1 UNK         0.0600 
    183 H183       -0.6859  -15.9621  -51.6388 H         1 UNK         0.0600 
    184 H184       -2.1343  -14.0193  -49.7067 H         1 UNK         0.3000 
    185 H185       -2.1908  -10.8985  -51.1963 H         1 UNK         0.0600 
    186 H186       -3.9449  -11.5967  -52.8065 H         1 UNK         0.0600 
    187 H187       -2.3629  -12.0797  -53.3913 H         1 UNK         0.0600 
    188 H188       -3.4310  -13.2798  -52.6791 H         1 UNK         0.0600 
    189 H189       -4.4388  -12.4018  -50.5537 H         1 UNK         0.3000 
    190 H190       -0.1286  -24.5627  -43.5436 H         1 UNK         0.3000 
    191 H191       -2.0876  -26.4913  -43.0473 H         1 UNK         0.0600 
    192 H192       -0.1154  -27.9530  -42.5217 H         1 UNK         0.0600 
    193 H193        0.0725  -26.3426  -41.8444 H         1 UNK         0.0600 
    194 H194        0.9535  -26.7921  -43.3034 H         1 UNK         0.0600 
    195 H195       -0.2433  -26.0069  -46.0078 H         1 UNK         0.3000 
    196 H196       -1.2013  -28.5954  -47.1632 H         1 UNK         0.0600 
    197 H197        0.4899  -28.1276  -48.9243 H         1 UNK         0.0600 
    198 H198        1.2384  -28.1840  -47.3354 H         1 UNK         0.0600 
    199 H199        0.9492  -26.6317  -48.1180 H         1 UNK         0.0600 
    200 H200       -1.1084  -25.0464  -47.6630 H         1 UNK         0.3000 
    201 H201       -2.4743  -25.0606  -50.1565 H         1 UNK         0.0600 
    202 H202       -0.8978  -23.2826  -49.4658 H         1 UNK         0.0600 
    203 H203       -1.9522  -22.8134  -48.1342 H         1 UNK         0.0600 
    204 H204       -2.4781  -22.5850  -49.7933 H         1 UNK         0.0600 
    205 H205       -3.6835  -24.8227  -46.8326 H         1 UNK         0.3000 
    206 H206       -5.6402  -24.4828  -45.8821 H         1 UNK         0.0600 
    207 H207       -6.3880  -26.4577  -47.2317 H         1 UNK         0.0600 
    208 H208       -7.7044  -25.3423  -46.9051 H         1 UNK         0.0600 
    209 H209       -6.9640  -25.3751  -48.4984 H         1 UNK         0.0600 
    210 H210       -4.3346  -22.3012  -46.8817 H         1 UNK         0.3000 
    211 H211       -4.4249  -20.1262  -47.1143 H         1 UNK         0.0600 
    212 H212       -7.3936  -20.2933  -46.3791 H         1 UNK         0.0600 
    213 H213       -6.3838  -18.8619  -46.2879 H         1 UNK         0.0600 
    214 H214       -6.0533  -20.2241  -45.2338 H         1 UNK         0.0600 
    215 H215       -5.0368  -21.8234  -49.5142 H         1 UNK         0.3000 
    216 H216       -6.6933  -20.2435  -51.2761 H         1 UNK         0.0600 
    217 H217       -5.8708  -21.8625  -52.9876 H         1 UNK         0.0600 
    218 H218       -6.4671  -22.6796  -51.5513 H         1 UNK         0.0600 
    219 H219       -4.7345  -22.5292  -51.8211 H         1 UNK         0.0600 
    220 H220       -5.4693  -18.2219  -50.5752 H         1 UNK         0.3000 
    221 H221       -2.8999  -17.5769  -51.4373 H         1 UNK         0.0600 
    222 H222       -5.3326  -15.7456  -51.0591 H         1 UNK         0.0600 
    223 H223       -4.1575  -16.1983  -49.8280 H         1 UNK         0.0600 
    224 H224       -3.6664  -15.1894  -51.1694 H         1 UNK         0.0600 
    225 H225       -5.7788  -17.7297  -53.4094 H         1 UNK         0.3000 
    226 H226       -4.9789  -16.0977  -55.5935 H         1 UNK         0.0600 
    227 H227       -7.3165  -16.8485  -55.2342 H         1 UNK         0.0600 
    228 H228       -6.7568  -17.3634  -56.8169 H         1 UNK         0.0600 
    229 H229       -6.8482  -18.5284  -55.5015 H         1 UNK         0.0600 
    230 H230       -4.1005  -19.4124  -54.7162 H         1 UNK         0.3000 
    231 H231       -2.7264  -19.9151  -57.2925 H         1 UNK         0.0600 
    232 H232       -2.2552  -22.1442  -56.1947 H         1 UNK         0.0600 
    233 H233       -3.9671  -21.7840  -56.3543 H         1 UNK         0.0600 
    234 H234       -3.1785  -21.6131  -54.7939 H         1 UNK         0.0600 
    235 H235       -2.0789  -18.4360  -54.3261 H         1 UNK         0.3000 
    236 H236       -0.3292  -17.7376  -53.1514 H         1 UNK         0.0600 
    237 H237       -0.2865  -16.2829  -55.1336 H         1 UNK         0.0600 
    238 H238        1.3450  -16.5261  -54.5318 H         1 UNK         0.0600 
    239 H239        0.8036  -17.3880  -55.9689 H         1 UNK         0.0600 
    240 H240        1.6294  -20.8158  -52.6656 H         1 UNK         0.3000 
    241 H241       -1.1209  -19.7605  -52.3200 H         1 UNK         0.0600 
    242 H242       -2.6907  -21.3780  -52.5142 H         1 UNK         0.3800 
    243 H243       -2.2906  -23.0800  -52.6370 H         1 UNK         0.3800 
    244 H244        0.5170  -20.9444  -50.0365 H         1 UNK         0.0800 
    245 H245        0.6083  -19.2458  -50.4052 H         1 UNK         0.0800 
    246 H246       -0.2389  -18.2085  -48.3213 H         1 UNK         0.0800 
    247 H247       -0.1661  -19.7993  -47.5931 H         1 UNK         0.0800 
@<TRIPOS>BOND
     1    1    2 1    
     2    1  127 1    
     3    1  128 1    
     4    1  129 1    
     5    2    3 2    
     6    2    4 am   BACKBONE|DICT|INTERRES
     7    4    5 1    
     8    4  130 1    
     9    5    6 1    
    10    5   65 1    
    11    5  131 1    
    12    6    7 1    
    13    6  132 1    
    14    6  133 1    
    15    7    8 1    
    16    8    9 1    
    17    8  134 1    
    18    8  135 1    
    19    9   10 ar   
    20    9   14 ar   
    21   10   11 ar   
    22   10  136 1    
    23   11   12 ar   
    24   11  126 1    
    25   12   13 ar   
    26   12  137 1    
    27   13   14 ar   
    28   13   15 1    
    29   14  138 1    
    30   15   16 1    
    31   15  139 1    
    32   15  140 1    
    33   16   17 1    
    34   17   18 1    
    35   17  141 1    
    36   17  142 1    
    37   18   19 1    
    38   18   67 1    
    39   18  143 1    
    40   19   20 am   BACKBONE|DICT|INTERRES
    41   19  144 1    
    42   20   21 2    
    43   20   22 1    
    44   22   23 1    
    45   22   24 1    
    46   22  145 1    
    47   23  146 1    
    48   23  147 1    
    49   23  148 1    
    50   24   25 am   BACKBONE|DICT|INTERRES
    51   24  149 1    
    52   25   26 2    
    53   25   27 1    
    54   27   28 1    
    55   27   29 1    
    56   27  150 1    
    57   28  151 1    
    58   28  152 1    
    59   28  153 1    
    60   29   30 am   BACKBONE|DICT|INTERRES
    61   29  154 1    
    62   30   31 2    
    63   30   32 1    
    64   32   33 1    
    65   32   34 1    
    66   32  155 1    
    67   33  156 1    
    68   33  157 1    
    69   33  158 1    
    70   34   35 am   BACKBONE|DICT|INTERRES
    71   34  159 1    
    72   35   36 2    
    73   35   37 1    
    74   37   38 1    
    75   37   39 1    
    76   37  160 1    
    77   38  161 1    
    78   38  162 1    
    79   38  163 1    
    80   39   40 am   BACKBONE|DICT|INTERRES
    81   39  164 1    
    82   40   41 2    
    83   40   42 1    
    84   42   43 1    
    85   42   44 1    
    86   42  165 1    
    87   43  166 1    
    88   43  167 1    
    89   43  168 1    
    90   44   45 am   BACKBONE|DICT|INTERRES
    91   44  169 1    
    92   45   46 2    
    93   45   47 1    
    94   47   48 1    
    95   47   49 1    
    96   47  170 1    
    97   48  171 1    
    98   48  172 1    
    99   48  173 1    
   100   49   50 am   BACKBONE|DICT|INTERRES
   101   49  174 1    
   102   50   51 2    
   103   50   52 1    
   104   52   53 1    
   105   52   54 1    
   106   52  175 1    
   107   53  176 1    
   108   53  177 1    
   109   53  178 1    
   110   54   55 am   BACKBONE|DICT|INTERRES
   111   54  179 1    
   112   55   56 2    
   113   55   57 1    
   114   57   58 1    
   115   57   59 1    
   116   57  180 1    
   117   58  181 1    
   118   58  182 1    
   119   58  183 1    
   120   59   60 am   BACKBONE|DICT|INTERRES
   121   59  184 1    
   122   60   61 2    
   123   60   62 1    
   124   62   63 1    
   125   62   64 1    
   126   62  185 1    
   127   63  186 1    
   128   63  187 1    
   129   63  188 1    
   130   64   65 am   BACKBONE|DICT|INTERRES
   131   64  189 1    
   132   65   66 2    
   133   67   68 2    
   134   67   69 am   BACKBONE|DICT|INTERRES
   135   69   70 1    
   136   69  190 1    
   137   70   71 1    
   138   70   72 1    
   139   70  191 1    
   140   71  192 1    
   141   71  193 1    
   142   71  194 1    
   143   72   73 2    
   144   72   74 am   BACKBONE|DICT|INTERRES
   145   74   75 1    
   146   74  195 1    
   147   75   76 1    
   148   75   77 1    
   149   75  196 1    
   150   76  197 1    
   151   76  198 1    
   152   76  199 1    
   153   77   78 2    
   154   77   79 am   BACKBONE|DICT|INTERRES
   155   79   80 1    
   156   79  200 1    
   157   80   81 1    
   158   80   82 1    
   159   80  201 1    
   160   81  202 1    
   161   81  203 1    
   162   81  204 1    
   163   82   83 2    
   164   82   84 am   BACKBONE|DICT|INTERRES
   165   84   85 1    
   166   84  205 1    
   167   85   86 1    
   168   85   87 1    
   169   85  206 1    
   170   86  207 1    
   171   86  208 1    
   172   86  209 1    
   173   87   88 2    
   174   87   89 am   BACKBONE|DICT|INTERRES
   175   89   90 1    
   176   89  210 1    
   177   90   91 1    
   178   90   92 1    
   179   90  211 1    
   180   91  212 1    
   181   91  213 1    
   182   91  214 1    
   183   92   93 2    
   184   92   94 am   BACKBONE|DICT|INTERRES
   185   94   95 1    
   186   94  215 1    
   187   95   96 1    
   188   95   97 1    
   189   95  216 1    
   190   96  217 1    
   191   96  218 1    
   192   96  219 1    
   193   97   98 2    
   194   97   99 am   BACKBONE|DICT|INTERRES
   195   99  100 1    
   196   99  220 1    
   197  100  101 1    
   198  100  102 1    
   199  100  221 1    
   200  101  222 1    
   201  101  223 1    
   202  101  224 1    
   203  102  103 2    
   204  102  104 am   BACKBONE|DICT|INTERRES
   205  104  105 1    
   206  104  225 1    
   207  105  106 1    
   208  105  107 1    
   209  105  226 1    
   210  106  227 1    
   211  106  228 1    
   212  106  229 1    
   213  107  108 2    
   214  107  109 am   BACKBONE|DICT|INTERRES
   215  109  110 1    
   216  109  230 1    
   217  110  111 1    
   218  110  112 1    
   219  110  231 1    
   220  111  232 1    
   221  111  233 1    
   222  111  234 1    
   223  112  113 2    
   224  112  114 am   BACKBONE|DICT|INTERRES
   225  114  115 1    
   226  114  235 1    
   227  115  116 1    
   228  115  117 1    
   229  115  236 1    
   230  116  237 1    
   231  116  238 1    
   232  116  239 1    
   233  117  118 2    
   234  117  119 am   BACKBONE|DICT|INTERRES
   235  119  120 1    
   236  119  240 1    
   237  120  121 1    
   238  120  124 1    
   239  120  241 1    
   240  121  122 am   BACKBONE|DICT|INTERRES
   241  121  123 2    
   242  122  242 1    
   243  122  243 1    
   244  124  125 1    
   245  124  244 1    
   246  124  245 1    
   247  125  126 1    
   248  126  246 1    
   249  126  247 1    
@<TRIPOS>SUBSTRUCTURE
     1 UNK         1 GROUP             0       ****    0 ROOT    
