@<TRIPOS>MOLECULE
3R540
247   249    1
SMALL
USER_CHARGES


@<TRIPOS>ATOM
      1 CA         -2.5590  -14.1881  -51.8258 C.3       0 UNK        -0.1800 
      2 C          -3.0636  -15.5434  -51.3518 C.2       0 UNK         0.5000 
      3 O          -4.2369  -15.8600  -51.5485 O.2       0 UNK        -0.5000 
      4 N          -2.1776  -16.3474  -50.7472 N.am      1 UNK        -0.5000 
      5 CA         -2.4675  -17.6625  -50.1633 C.3       1 UNK         0.1400 
      6 C6         -2.9958  -18.6757  -51.2131 C.3       23 UNK        -0.0398 
      7 S7         -2.6254  -20.4041  -50.7756 S.3       23 UNK        -0.2404 
      8 C8         -1.3020  -20.8167  -51.9586 C.3       23 UNK        -0.0205 
      9 C9          0.0193  -20.1453  -51.6135 C.ar      23 UNK        -0.0193 
     10 C10         0.3275  -18.8911  -52.1452 C.ar      23 UNK        -0.1150 
     11 C11         1.5482  -18.2699  -51.8583 C.ar      23 UNK        -0.0193 
     12 C12         2.4733  -18.9431  -51.0558 C.ar      23 UNK        -0.1150 
     13 C13         2.2001  -20.2134  -50.5392 C.ar      23 UNK        -0.0193 
     14 C14         0.9558  -20.8008  -50.8095 C.ar      23 UNK        -0.1150 
     15 C15         3.3142  -20.9260  -49.7689 C.3       23 UNK        -0.0205 
     16 S16         2.8298  -22.4281  -48.8547 S.3       23 UNK        -0.2404 
     17 C17         2.1936  -21.6913  -47.3180 C.3       23 UNK        -0.0398 
     18 CA          1.2754  -22.6654  -46.5423 C.3       11 UNK         0.1400 
     19 N           1.3398  -22.4366  -45.0971 N.am      11 UNK        -0.5000 
     20 C           0.8022  -23.2422  -44.1705 C.2       10 UNK         0.5000 
     21 O           0.2278  -24.3004  -44.4309 O.2       10 UNK        -0.5000 
     22 CA          0.8806  -22.7562  -42.7110 C.3       10 UNK         0.1400 
     23 CB          2.2598  -23.0534  -42.1038 C.3       10 UNK        -0.1800 
     24 N           0.5854  -21.3282  -42.5816 N.am      10 UNK        -0.5000 
     25 C          -0.6018  -20.7760  -42.8706 C.2       9 UNK         0.5000 
     26 O          -1.5874  -21.4192  -43.2271 O.2       9 UNK        -0.5000 
     27 CA         -0.6927  -19.2441  -42.7918 C.3       9 UNK         0.1400 
     28 CB         -0.8335  -18.7920  -41.3295 C.3       9 UNK        -0.1800 
     29 N           0.4582  -18.5828  -43.4069 N.am      9 UNK        -0.5000 
     30 C           0.8116  -18.6809  -44.6970 C.2       8 UNK         0.5000 
     31 O           0.1777  -19.3174  -45.5338 O.2       8 UNK        -0.5000 
     32 CA          2.1346  -18.0160  -45.1116 C.3       8 UNK         0.1400 
     33 CB          1.9387  -16.5230  -45.4111 C.3       8 UNK        -0.1800 
     34 N           3.1732  -18.1893  -44.0968 N.am      8 UNK        -0.5000 
     35 C           3.7313  -19.3672  -43.7823 C.2       7 UNK         0.5000 
     36 O           3.4468  -20.4291  -44.3365 O.2       7 UNK        -0.5000 
     37 CA          4.7439  -19.3580  -42.6235 C.3       7 UNK         0.1400 
     38 CB          6.1297  -18.9153  -43.1160 C.3       7 UNK        -0.1800 
     39 N           4.3168  -18.4908  -41.5240 N.am      7 UNK        -0.5000 
     40 C           3.2658  -18.7449  -40.7318 C.2       6 UNK         0.5000 
     41 O           2.5744  -19.7604  -40.8203 O.2       6 UNK        -0.5000 
     42 CA          2.8994  -17.6550  -39.7042 C.3       6 UNK         0.1400 
     43 CB          3.7457  -17.8048  -38.4313 C.3       6 UNK        -0.1800 
     44 N           3.0354  -16.2877  -40.2244 N.am      6 UNK        -0.5000 
     45 C           2.3371  -15.8074  -41.2608 C.2       5 UNK         0.5000 
     46 O           1.5269  -16.4837  -41.9006 O.2       5 UNK        -0.5000 
     47 CA          2.5975  -14.3532  -41.6829 C.3       5 UNK         0.1400 
     48 CB          3.9800  -14.2060  -42.3441 C.3       5 UNK        -0.1800 
     49 N           1.5527  -14.0005  -42.6343 N.am      5 UNK        -0.5000 
     50 C           1.1484  -12.7864  -43.0154 C.2       4 UNK         0.5000 
     51 O           1.6549  -11.7372  -42.6166 O.2       4 UNK        -0.5000 
     52 CA         -0.0282  -12.7432  -44.0154 C.3       4 UNK         0.1400 
     53 CB          0.4900  -12.5002  -45.4411 C.3       4 UNK        -0.1800 
     54 N          -0.8277  -13.9733  -44.0139 N.am      4 UNK        -0.5000 
     55 C          -1.6724  -14.3447  -43.0450 C.2       3 UNK         0.5000 
     56 O          -1.9503  -13.6295  -42.0810 O.2       3 UNK        -0.5000 
     57 CA         -2.2875  -15.7562  -43.1747 C.3       3 UNK         0.1400 
     58 CB         -3.1654  -16.1332  -41.9674 C.3       3 UNK        -0.1800 
     59 N          -3.0736  -15.9521  -44.3945 N.am      3 UNK        -0.5000 
     60 C          -2.5897  -16.0875  -45.6344 C.2       2 UNK         0.5000 
     61 O          -1.3905  -16.0051  -45.9145 O.2       2 UNK        -0.5000 
     62 CA         -3.6239  -16.3491  -46.7398 C.3       2 UNK         0.1400 
     63 CB         -4.5167  -15.1193  -46.9833 C.3       2 UNK        -0.1800 
     64 N          -2.9283  -16.6877  -47.9750 N.am      2 UNK        -0.5000 
     65 C          -3.3818  -17.5108  -48.9256 C.2       1 UNK         0.5000 
     66 O          -4.4697  -18.0892  -48.8650 O.2       1 UNK        -0.5000 
     67 C          -0.1760  -22.6240  -47.0641 C.2       11 UNK         0.5000 
     68 O          -0.5894  -23.5242  -47.7956 O.2       11 UNK        -0.5000 
     69 N          -0.9371  -21.6098  -46.6288 N.am      12 UNK        -0.5000 
     70 CA         -2.3569  -21.4412  -46.9194 C.3       12 UNK         0.1400 
     71 CB         -2.8570  -20.1020  -46.3593 C.3       12 UNK        -0.1800 
     72 C          -3.2008  -22.6080  -46.3902 C.2       12 UNK         0.5000 
     73 O          -4.0127  -23.1367  -47.1422 O.2       12 UNK        -0.5000 
     74 N          -2.9643  -23.0316  -45.1409 N.am      13 UNK        -0.5000 
     75 CA         -3.6344  -24.1730  -44.5129 C.3       13 UNK         0.1400 
     76 CB         -3.1805  -24.3020  -43.0513 C.3       13 UNK        -0.1800 
     77 C          -3.4234  -25.4981  -45.2700 C.2       13 UNK         0.5000 
     78 O          -4.3731  -26.2690  -45.4120 O.2       13 UNK        -0.5000 
     79 N          -2.2030  -25.7186  -45.7789 N.am      14 UNK        -0.5000 
     80 CA         -1.8567  -26.8649  -46.6211 C.3       14 UNK         0.1400 
     81 CB         -0.3285  -26.9592  -46.7482 C.3       14 UNK        -0.1800 
     82 C          -2.5215  -26.8096  -48.0118 C.2       14 UNK         0.5000 
     83 O          -2.9524  -27.8444  -48.5216 O.2       14 UNK        -0.5000 
     84 N          -2.6033  -25.6059  -48.5930 N.am      15 UNK        -0.5000 
     85 CA         -3.1939  -25.3406  -49.9077 C.3       15 UNK         0.1400 
     86 CB         -2.5817  -24.0418  -50.4519 C.3       15 UNK        -0.1800 
     87 C          -4.7350  -25.2416  -49.9032 C.2       15 UNK         0.5000 
     88 O          -5.3305  -25.1982  -50.9798 O.2       15 UNK        -0.5000 
     89 N          -5.3428  -25.1765  -48.7097 N.am      16 UNK        -0.5000 
     90 CA         -6.7616  -24.9170  -48.4227 C.3       16 UNK         0.1400 
     91 CB         -7.6862  -25.9533  -49.0958 C.3       16 UNK        -0.1800 
     92 C          -7.1952  -23.4538  -48.6840 C.2       16 UNK         0.5000 
     93 O          -8.3946  -23.1789  -48.7492 O.2       16 UNK        -0.5000 
     94 N          -6.2053  -22.5518  -48.7517 N.am      17 UNK        -0.5000 
     95 CA         -6.2500  -21.0895  -48.8349 C.3       17 UNK         0.1400 
     96 CB         -6.8873  -20.5083  -47.5572 C.3       17 UNK        -0.1800 
     97 C          -6.9091  -20.5064  -50.1017 C.2       17 UNK         0.5000 
     98 O          -7.6204  -21.1945  -50.8351 O.2       17 UNK        -0.5000 
     99 N          -6.6421  -19.2115  -50.3248 N.am      18 UNK        -0.5000 
    100 CA        -7.2282  -18.3258  -51.3403 C.3       18 UNK         0.1400 
    101 CB        -8.7339  -18.1254  -51.0714 C.3       18 UNK        -0.1800 
    102 C         -6.9449  -18.7196  -52.8074 C.2       18 UNK         0.5000 
    103 O         -7.5966  -18.1969  -53.7129 O.2       18 UNK        -0.5000 
    104 N         -5.9664  -19.6076  -53.0305 N.am      19 UNK        -0.5000 
    105 CA        -5.5407  -20.0749  -54.3521 C.3       19 UNK         0.1400 
    106 CB        -4.6924  -21.3435  -54.1760 C.3       19 UNK        -0.1800 
    107 C         -4.7763  -19.0126  -55.1704 C.2       19 UNK         0.5000 
    108 O         -4.6963  -19.1434  -56.3926 O.2       19 UNK        -0.5000 
    109 N         -4.2478  -17.9854  -54.4868 N.am      20 UNK        -0.5000 
    110 CA        -3.4876  -16.8537  -55.0223 C.3       20 UNK         0.1400 
    111 CB        -4.4231  -15.9074  -55.8077 C.3       20 UNK        -0.1800 
    112 C         -2.2235  -17.2933  -55.7942 C.2       20 UNK         0.5000 
    113 O         -1.5220  -18.1943  -55.3310 O.2       20 UNK        -0.5000 
    114 N         -1.9453  -16.6301  -56.9276 N.am      21 UNK        -0.5000 
    115 CA        -0.8061  -16.8360  -57.8339 C.3       21 UNK         0.1400 
    116 CB        -0.8432  -18.2485  -58.4553 C.3       21 UNK        -0.1800 
    117 C          0.5665  -16.4923  -57.2122 C.2       21 UNK         0.5000 
    118 O          1.5947  -16.9746  -57.6916 O.2       21 UNK        -0.5000 
    119 N          0.5639  -15.6572  -56.1665 N.am      22 UNK        -0.5000 
    120 CA         1.7639  -15.1784  -55.4671 C.3       22 UNK         0.1400 
    121 C          2.5352  -14.1041  -56.2820 C.2       22 UNK         0.5000 
    122 N          3.8546  -14.0524  -56.1589 N.am      22 UNK        -0.7600 
    123 O          1.9480  -13.2915  -56.9936 O.2       22 UNK        -0.5000 
    124 C124        1.4334  -14.6537  -54.0448 C.3       23 UNK        -0.0398 
    125 S125        0.5512  -15.8790  -53.0196 S.3       23 UNK        -0.2404 
    126 C126        1.9427  -16.9171  -52.4520 C.3       23 UNK        -0.0205 
    127 H127       -3.1817  -13.3926  -51.4166 H         1 UNK         0.0600 
    128 H128       -2.6004  -14.1302  -52.9133 H         1 UNK         0.0600 
    129 H129       -1.5301  -14.0069  -51.5141 H         1 UNK         0.0600 
    130 H130       -1.2225  -16.0320  -50.6500 H         1 UNK         0.3000 
    131 H131       -1.5083  -18.0308  -49.7950 H         1 UNK         0.0600 
    132 H132       -2.5581  -18.4672  -52.1885 H         1 UNK         0.0800 
    133 H133       -4.0686  -18.5662  -51.3566 H         1 UNK         0.0800 
    134 H134       -1.6062  -20.5423  -52.9697 H         1 UNK         0.0800 
    135 H135       -1.1699  -21.8992  -51.9704 H         1 UNK         0.0800 
    136 H136       -0.3827  -18.4130  -52.8026 H         1 UNK         0.1150 
    137 H137        3.4345  -18.4875  -50.8609 H         1 UNK         0.1150 
    138 H138        0.7158  -21.7836  -50.4308 H         1 UNK         0.1150 
    139 H139        4.0839  -21.2104  -50.4875 H         1 UNK         0.0800 
    140 H140        3.7882  -20.2284  -49.0764 H         1 UNK         0.0800 
    141 H141        1.6938  -20.7434  -47.5282 H         1 UNK         0.0800 
    142 H142        3.0696  -21.4402  -46.7196 H         1 UNK         0.0800 
    143 H143        1.6434  -23.6822  -46.6981 H         1 UNK         0.0600 
    144 H144        1.8296  -21.6030  -44.7897 H         1 UNK         0.3000 
    145 H145        0.1316  -23.3060  -42.1373 H         1 UNK         0.0600 
    146 H146        2.2956  -22.7697  -41.0518 H         1 UNK         0.0600 
    147 H147        3.0544  -22.5150  -42.6208 H         1 UNK         0.0600 
    148 H148        2.4909  -24.1176  -42.1630 H         1 UNK         0.0600 
    149 H149        1.3362  -20.7308  -42.2536 H         1 UNK         0.3000 
    150 H150       -1.5843  -18.9300  -43.3380 H         1 UNK         0.0600 
    151 H151       -1.7627  -19.1645  -40.8969 H         1 UNK         0.0600 
    152 H152       -0.8439  -17.7071  -41.2412 H         1 UNK         0.0600 
    153 H153       -0.0158  -19.1601  -40.7105 H         1 UNK         0.0600 
    154 H154        1.0153  -17.9890  -42.7974 H         1 UNK         0.3000 
    155 H155        2.4788  -18.5002  -46.0281 H         1 UNK         0.0600 
    156 H156        1.2658  -16.3864  -46.2582 H         1 UNK         0.0600 
    157 H157        2.8818  -16.0397  -45.6661 H         1 UNK         0.0600 
    158 H158        1.5058  -15.9937  -44.5645 H         1 UNK         0.0600 
    159 H159        3.4295  -17.3742  -43.5619 H         1 UNK         0.3000 
    160 H160        4.8259  -20.3789  -42.2441 H         1 UNK         0.0600 
    161 H161        6.1194  -17.8897  -43.4871 H         1 UNK         0.0600 
    162 H162        6.4770  -19.5552  -43.9283 H         1 UNK         0.0600 
    163 H163        6.8691  -18.9760  -42.3173 H         1 UNK         0.0600 
    164 H164        4.8334  -17.6353  -41.3836 H         1 UNK         0.3000 
    165 H165        1.8518  -17.8028  -39.4334 H         1 UNK         0.0600 
    166 H166        3.4269  -17.1024  -37.6609 H         1 UNK         0.0600 
    167 H167        3.6489  -18.8081  -38.0140 H         1 UNK         0.0600 
    168 H168        4.8045  -17.6313  -38.6273 H         1 UNK         0.0600 
    169 H169        3.6877  -15.6835  -39.7453 H         1 UNK         0.3000 
    170 H170        2.5242  -13.7102  -40.8039 H         1 UNK         0.0600 
    171 H171        4.0744  -14.8433  -43.2242 H         1 UNK         0.0600 
    172 H172        4.1605  -13.1778  -42.6580 H         1 UNK         0.0600 
    173 H173        4.7798  -14.4752  -41.6535 H         1 UNK         0.0600 
    174 H174        1.0378  -14.8072  -42.9634 H         1 UNK         0.3000 
    175 H175       -0.6729  -11.9078  -43.7347 H         1 UNK         0.0600 
    176 H176        1.1331  -13.3141  -45.7788 H         1 UNK         0.0600 
    177 H177       -0.3335  -12.4078  -46.1495 H         1 UNK         0.0600 
    178 H178        1.0701  -11.5781  -45.4952 H         1 UNK         0.0600 
    179 H179       -0.7103  -14.6062  -44.8008 H         1 UNK         0.3000 
    180 H180       -1.4462  -16.4493  -43.2030 H         1 UNK         0.0600 
    181 H181       -4.0505  -15.4995  -41.9002 H         1 UNK         0.0600 
    182 H182       -2.6159  -16.0278  -41.0310 H         1 UNK         0.0600 
    183 H183       -3.4981  -17.1694  -42.0301 H         1 UNK         0.0600 
    184 H184       -4.0740  -15.9923  -44.2637 H         1 UNK         0.3000 
    185 H185       -4.2413  -17.1926  -46.4231 H         1 UNK         0.0600 
    186 H186       -3.9280  -14.2501  -47.2794 H         1 UNK         0.0600 
    187 H187       -5.2448  -15.3123  -47.7716 H         1 UNK         0.0600 
    188 H188       -5.0766  -14.8493  -46.0874 H         1 UNK         0.0600 
    189 H189       -2.0011  -16.2895  -48.0498 H         1 UNK         0.3000 
    190 H190       -0.5073  -20.8776  -46.0659 H         1 UNK         0.3000 
    191 H191       -2.4665  -21.4163  -48.0042 H         1 UNK         0.0600 
    192 H192       -2.2729  -19.2717  -46.7544 H         1 UNK         0.0600 
    193 H193       -2.7909  -20.0656  -45.2722 H         1 UNK         0.0600 
    194 H194       -3.8982  -19.9284  -46.6331 H         1 UNK         0.0600 
    195 H195       -2.3049  -22.5167  -44.5619 H         1 UNK         0.3000 
    196 H196       -4.7058  -23.9623  -44.5162 H         1 UNK         0.0600 
    197 H197       -3.4227  -23.4037  -42.4832 H         1 UNK         0.0600 
    198 H198       -2.1053  -24.4650  -42.9765 H         1 UNK         0.0600 
    199 H199       -3.6757  -25.1403  -42.5599 H         1 UNK         0.0600 
    200 H200       -1.4669  -25.0471  -45.5910 H         1 UNK         0.3000 
    201 H201       -2.2091  -27.7696  -46.1214 H         1 UNK         0.0600 
    202 H202        0.1422  -27.0626  -45.7702 H         1 UNK         0.0600 
    203 H203        0.0929  -26.0758  -47.2284 H         1 UNK         0.0600 
    204 H204       -0.0389  -27.8262  -47.3431 H         1 UNK         0.0600 
    205 H205       -2.1766  -24.8129  -48.1243 H         1 UNK         0.3000 
    206 H206       -2.9229  -26.1531  -50.5849 H         1 UNK         0.0600 
    207 H207       -1.4982  -24.1221  -50.5413 H         1 UNK         0.0600 
    208 H208       -2.7991  -23.1996  -49.7951 H         1 UNK         0.0600 
    209 H209       -2.9738  -23.7994  -51.4405 H         1 UNK         0.0600 
    210 H210       -4.7362  -25.1581  -47.8991 H         1 UNK         0.3000 
    211 H211       -6.8597  -25.0570  -47.3453 H         1 UNK         0.0600 
    212 H212       -7.7417  -25.8100  -50.1749 H         1 UNK         0.0600 
    213 H213       -8.7026  -25.8767  -48.7083 H         1 UNK         0.0600 
    214 H214       -7.3439  -26.9706  -48.9066 H         1 UNK         0.0600 
    215 H215       -5.2767  -22.9218  -48.5752 H         1 UNK         0.3000 
    216 H216       -5.2046  -20.7774  -48.8550 H         1 UNK         0.0600 
    217 H217       -6.7955  -19.4219  -47.5286 H         1 UNK         0.0600 
    218 H218       -6.3977  -20.8951  -46.6632 H         1 UNK         0.0600 
    219 H219       -7.9487  -20.7488  -47.4901 H         1 UNK         0.0600 
    220 H220       -5.9809  -18.7550  -49.6969 H         1 UNK         0.3000 
    221 H221       -6.7411  -17.3597  -51.1993 H         1 UNK         0.0600 
    222 H222       -8.9121  -17.8136  -50.0422 H         1 UNK         0.0600 
    223 H223       -9.1509  -17.3525  -51.7181 H         1 UNK         0.0600 
    224 H224       -9.3008  -19.0400  -51.2480 H         1 UNK         0.0600 
    225 H225       -5.5134  -20.0264  -52.2321 H         1 UNK         0.3000 
    226 H226       -6.4336  -20.3418  -54.9214 H         1 UNK         0.0600 
    227 H227       -5.2555  -22.1284  -53.6701 H         1 UNK         0.0600 
    228 H228       -4.3765  -21.7411  -55.1413 H         1 UNK         0.0600 
    229 H229       -3.7943  -21.1476  -53.5923 H         1 UNK         0.0600 
    230 H230       -4.3910  -17.9743  -53.4889 H         1 UNK         0.3000 
    231 H231       -3.1197  -16.3028  -54.1580 H         1 UNK         0.0600 
    232 H232       -3.9224  -14.9742  -56.0678 H         1 UNK         0.0600 
    233 H233       -5.2940  -15.6400  -55.2087 H         1 UNK         0.0600 
    234 H234       -4.7861  -16.3647  -56.7290 H         1 UNK         0.0600 
    235 H235       -2.5908  -15.9064  -57.2116 H         1 UNK         0.3000 
    236 H236       -0.9436  -16.1230  -58.6479 H         1 UNK         0.0600 
    237 H237       -0.6260  -19.0217  -57.7179 H         1 UNK         0.0600 
    238 H238       -1.8200  -18.4634  -58.8886 H         1 UNK         0.0600 
    239 H239       -0.1072  -18.3450  -59.2542 H         1 UNK         0.0600 
    240 H240       -0.3180  -15.2930  -55.8419 H         1 UNK         0.3000 
    241 H241        2.4310  -16.0350  -55.3571 H         1 UNK         0.0600 
    242 H242        4.3662  -13.3506  -56.6716 H         1 UNK         0.3800 
    243 H243        4.3606  -14.7040  -55.5787 H         1 UNK         0.3800 
    244 H244        0.8106  -13.7596  -54.1063 H         1 UNK         0.0800 
    245 H245        2.3434  -14.3530  -53.5226 H         1 UNK         0.0800 
    246 H246        2.6134  -17.1105  -53.2889 H         1 UNK         0.0800 
    247 H247        2.5151  -16.3472  -51.7186 H         1 UNK         0.0800 
@<TRIPOS>BOND
     1    1    2 1    
     2    1  127 1    
     3    1  128 1    
     4    1  129 1    
     5    2    3 2    
     6    2    4 am   BACKBONE|DICT|INTERRES
     7    4    5 1    
     8    4  130 1    
     9    5    6 1    
    10    5   65 1    
    11    5  131 1    
    12    6    7 1    
    13    6  132 1    
    14    6  133 1    
    15    7    8 1    
    16    8    9 1    
    17    8  134 1    
    18    8  135 1    
    19    9   10 ar   
    20    9   14 ar   
    21   10   11 ar   
    22   10  136 1    
    23   11   12 ar   
    24   11  126 1    
    25   12   13 ar   
    26   12  137 1    
    27   13   14 ar   
    28   13   15 1    
    29   14  138 1    
    30   15   16 1    
    31   15  139 1    
    32   15  140 1    
    33   16   17 1    
    34   17   18 1    
    35   17  141 1    
    36   17  142 1    
    37   18   19 1    
    38   18   67 1    
    39   18  143 1    
    40   19   20 am   BACKBONE|DICT|INTERRES
    41   19  144 1    
    42   20   21 2    
    43   20   22 1    
    44   22   23 1    
    45   22   24 1    
    46   22  145 1    
    47   23  146 1    
    48   23  147 1    
    49   23  148 1    
    50   24   25 am   BACKBONE|DICT|INTERRES
    51   24  149 1    
    52   25   26 2    
    53   25   27 1    
    54   27   28 1    
    55   27   29 1    
    56   27  150 1    
    57   28  151 1    
    58   28  152 1    
    59   28  153 1    
    60   29   30 am   BACKBONE|DICT|INTERRES
    61   29  154 1    
    62   30   31 2    
    63   30   32 1    
    64   32   33 1    
    65   32   34 1    
    66   32  155 1    
    67   33  156 1    
    68   33  157 1    
    69   33  158 1    
    70   34   35 am   BACKBONE|DICT|INTERRES
    71   34  159 1    
    72   35   36 2    
    73   35   37 1    
    74   37   38 1    
    75   37   39 1    
    76   37  160 1    
    77   38  161 1    
    78   38  162 1    
    79   38  163 1    
    80   39   40 am   BACKBONE|DICT|INTERRES
    81   39  164 1    
    82   40   41 2    
    83   40   42 1    
    84   42   43 1    
    85   42   44 1    
    86   42  165 1    
    87   43  166 1    
    88   43  167 1    
    89   43  168 1    
    90   44   45 am   BACKBONE|DICT|INTERRES
    91   44  169 1    
    92   45   46 2    
    93   45   47 1    
    94   47   48 1    
    95   47   49 1    
    96   47  170 1    
    97   48  171 1    
    98   48  172 1    
    99   48  173 1    
   100   49   50 am   BACKBONE|DICT|INTERRES
   101   49  174 1    
   102   50   51 2    
   103   50   52 1    
   104   52   53 1    
   105   52   54 1    
   106   52  175 1    
   107   53  176 1    
   108   53  177 1    
   109   53  178 1    
   110   54   55 am   BACKBONE|DICT|INTERRES
   111   54  179 1    
   112   55   56 2    
   113   55   57 1    
   114   57   58 1    
   115   57   59 1    
   116   57  180 1    
   117   58  181 1    
   118   58  182 1    
   119   58  183 1    
   120   59   60 am   BACKBONE|DICT|INTERRES
   121   59  184 1    
   122   60   61 2    
   123   60   62 1    
   124   62   63 1    
   125   62   64 1    
   126   62  185 1    
   127   63  186 1    
   128   63  187 1    
   129   63  188 1    
   130   64   65 am   BACKBONE|DICT|INTERRES
   131   64  189 1    
   132   65   66 2    
   133   67   68 2    
   134   67   69 am   BACKBONE|DICT|INTERRES
   135   69   70 1    
   136   69  190 1    
   137   70   71 1    
   138   70   72 1    
   139   70  191 1    
   140   71  192 1    
   141   71  193 1    
   142   71  194 1    
   143   72   73 2    
   144   72   74 am   BACKBONE|DICT|INTERRES
   145   74   75 1    
   146   74  195 1    
   147   75   76 1    
   148   75   77 1    
   149   75  196 1    
   150   76  197 1    
   151   76  198 1    
   152   76  199 1    
   153   77   78 2    
   154   77   79 am   BACKBONE|DICT|INTERRES
   155   79   80 1    
   156   79  200 1    
   157   80   81 1    
   158   80   82 1    
   159   80  201 1    
   160   81  202 1    
   161   81  203 1    
   162   81  204 1    
   163   82   83 2    
   164   82   84 am   BACKBONE|DICT|INTERRES
   165   84   85 1    
   166   84  205 1    
   167   85   86 1    
   168   85   87 1    
   169   85  206 1    
   170   86  207 1    
   171   86  208 1    
   172   86  209 1    
   173   87   88 2    
   174   87   89 am   BACKBONE|DICT|INTERRES
   175   89   90 1    
   176   89  210 1    
   177   90   91 1    
   178   90   92 1    
   179   90  211 1    
   180   91  212 1    
   181   91  213 1    
   182   91  214 1    
   183   92   93 2    
   184   92   94 am   BACKBONE|DICT|INTERRES
   185   94   95 1    
   186   94  215 1    
   187   95   96 1    
   188   95   97 1    
   189   95  216 1    
   190   96  217 1    
   191   96  218 1    
   192   96  219 1    
   193   97   98 2    
   194   97   99 am   BACKBONE|DICT|INTERRES
   195   99  100 1    
   196   99  220 1    
   197  100  101 1    
   198  100  102 1    
   199  100  221 1    
   200  101  222 1    
   201  101  223 1    
   202  101  224 1    
   203  102  103 2    
   204  102  104 am   BACKBONE|DICT|INTERRES
   205  104  105 1    
   206  104  225 1    
   207  105  106 1    
   208  105  107 1    
   209  105  226 1    
   210  106  227 1    
   211  106  228 1    
   212  106  229 1    
   213  107  108 2    
   214  107  109 am   BACKBONE|DICT|INTERRES
   215  109  110 1    
   216  109  230 1    
   217  110  111 1    
   218  110  112 1    
   219  110  231 1    
   220  111  232 1    
   221  111  233 1    
   222  111  234 1    
   223  112  113 2    
   224  112  114 am   BACKBONE|DICT|INTERRES
   225  114  115 1    
   226  114  235 1    
   227  115  116 1    
   228  115  117 1    
   229  115  236 1    
   230  116  237 1    
   231  116  238 1    
   232  116  239 1    
   233  117  118 2    
   234  117  119 am   BACKBONE|DICT|INTERRES
   235  119  120 1    
   236  119  240 1    
   237  120  121 1    
   238  120  124 1    
   239  120  241 1    
   240  121  122 am   BACKBONE|DICT|INTERRES
   241  121  123 2    
   242  122  242 1    
   243  122  243 1    
   244  124  125 1    
   245  124  244 1    
   246  124  245 1    
   247  125  126 1    
   248  126  246 1    
   249  126  247 1    
@<TRIPOS>SUBSTRUCTURE
     1 UNK         1 GROUP             0       ****    0 ROOT    
