@<TRIPOS>MOLECULE
3R540
247   249    1
SMALL
USER_CHARGES


@<TRIPOS>ATOM
      1 CA          5.6173  -16.8169  -48.4898 C.3       0 UNK        -0.1800 
      2 C           5.2608  -15.4066  -48.0410 C.2       0 UNK         0.5000 
      3 O           5.9591  -14.4579  -48.3961 O.2       0 UNK        -0.5000 
      4 N           4.1830  -15.2723  -47.2546 N.am      1 UNK        -0.5000 
      5 CA          3.6636  -14.0156  -46.6881 C.3       1 UNK         0.1400 
      6 C6          3.1082  -13.0285  -47.7504 C.3       23 UNK        -0.0398 
      7 S7          1.5839  -13.6804  -48.5080 S.3       23 UNK        -0.2404 
      8 C8          2.1810  -14.3298  -50.0958 C.3       23 UNK        -0.0205 
      9 C9          1.5034  -15.6489  -50.4310 C.ar      23 UNK        -0.0193 
     10 C10         0.1877  -15.6669  -50.8989 C.ar      23 UNK        -0.1150 
     11 C11        -0.4278  -16.8746  -51.2382 C.ar      23 UNK        -0.0193 
     12 C12         0.2831  -18.0712  -51.1068 C.ar      23 UNK        -0.1150 
     13 C13         1.5990  -18.0706  -50.6260 C.ar      23 UNK        -0.0193 
     14 C14         2.1979  -16.8528  -50.2917 C.ar      23 UNK        -0.1150 
     15 C15         2.4187  -19.3550  -50.5049 C.3       23 UNK        -0.0205 
     16 S16         1.4661  -20.8303  -50.0142 S.3       23 UNK        -0.2404 
     17 C17         0.8390  -20.3192  -48.3793 C.3       23 UNK        -0.0398 
     18 CA          0.2811  -21.4993  -47.5482 C.3       11 UNK         0.1400 
     19 N           0.0338  -21.1130  -46.1570 N.am      11 UNK        -0.5000 
     20 C          -0.3163  -21.9556  -45.1747 C.2       10 UNK         0.5000 
     21 O          -0.4017  -23.1741  -45.3185 O.2       10 UNK        -0.5000 
     22 CA         -0.6915  -21.3291  -43.8193 C.3       10 UNK         0.1400 
     23 CB          0.5650  -21.0051  -42.9988 C.3       10 UNK        -0.1800 
     24 N          -1.5194  -20.1300  -43.9678 N.am      10 UNK        -0.5000 
     25 C          -2.7488  -20.1287  -44.5048 C.2       9 UNK         0.5000 
     26 O          -3.3331  -21.1484  -44.8679 O.2       9 UNK        -0.5000 
     27 CA         -3.4245  -18.7625  -44.7161 C.3       9 UNK         0.1400 
     28 CB         -4.0882  -18.2758  -43.4197 C.3       9 UNK        -0.1800 
     29 N          -2.5013  -17.7430  -45.2149 N.am      9 UNK        -0.5000 
     30 C          -1.8687  -17.7973  -46.3969 C.2       8 UNK         0.5000 
     31 O          -2.0268  -18.7044  -47.2127 O.2       8 UNK        -0.5000 
     32 CA         -0.8375  -16.6868  -46.6792 C.3       8 UNK         0.1400 
     33 CB         -1.5411  -15.3796  -47.0741 C.3       8 UNK        -0.1800 
     34 N           0.0377  -16.4546  -45.5259 N.am      8 UNK        -0.5000 
     35 C           0.8705  -17.3753  -45.0181 C.2       7 UNK         0.5000 
     36 O           1.0635  -18.4752  -45.5344 O.2       7 UNK        -0.5000 
     37 CA          1.5611  -17.0459  -43.6829 C.3       7 UNK         0.1400 
     38 CB          2.9070  -16.3402  -43.8896 C.3       7 UNK        -0.1800 
     39 N           0.7104  -16.2461  -42.8036 N.am      7 UNK        -0.5000 
     40 C          -0.3301  -16.7422  -42.1212 C.2       6 UNK         0.5000 
     41 O          -0.6480  -17.9310  -42.1311 O.2       6 UNK        -0.5000 
     42 CA         -1.1841  -15.7305  -41.3369 C.3       6 UNK         0.1400 
     43 CB         -0.5700  -15.4508  -39.9576 C.3       6 UNK        -0.1800 
     44 N          -1.3605  -14.4730  -42.0667 N.am      6 UNK        -0.5000 
     45 C          -2.0911  -14.3632  -43.1862 C.2       5 UNK         0.5000 
     46 O          -2.7031  -15.3042  -43.6891 O.2       5 UNK        -0.5000 
     47 CA         -2.1239  -12.9936  -43.8895 C.3       5 UNK         0.1400 
     48 CB         -3.3245  -12.1703  -43.4006 C.3       5 UNK        -0.1800 
     49 N          -0.9036  -12.2028  -43.7288 N.am      5 UNK        -0.5000 
     50 C           0.3257  -12.5741  -44.1098 C.2       4 UNK         0.5000 
     51 O           0.5837  -13.6697  -44.6144 O.2       4 UNK        -0.5000 
     52 CA          1.4724  -11.5715  -43.8618 C.3       4 UNK         0.1400 
     53 CB          1.0323  -10.2438  -43.2044 C.3       4 UNK        -0.1800 
     54 N           2.5628  -12.1782  -43.0953 N.am      4 UNK        -0.5000 
     55 C           2.4803  -12.7666  -41.8910 C.2       3 UNK         0.5000 
     56 O           1.4317  -12.8583  -41.2505 O.2       3 UNK        -0.5000 
     57 CA          3.7782  -13.3836  -41.3295 C.3       3 UNK         0.1400 
     58 CB          3.4971  -14.5963  -40.4231 C.3       3 UNK        -0.1800 
     59 N           4.6636  -13.7977  -42.4197 N.am      3 UNK        -0.5000 
     60 C           5.8295  -13.2270  -42.7469 C.2       2 UNK         0.5000 
     61 O           6.3631  -12.3254  -42.1006 O.2       2 UNK        -0.5000 
     62 CA          6.4881  -13.7286  -44.0483 C.3       2 UNK         0.1400 
     63 CB          7.4490  -14.8899  -43.7526 C.3       2 UNK        -0.1800 
     64 N           5.5189  -14.1572  -45.0642 N.am      2 UNK        -0.5000 
     65 C           4.6359  -13.3542  -45.6798 C.2       1 UNK         0.5000 
     66 O           4.5401  -12.1522  -45.4289 O.2       1 UNK        -0.5000 
     67 C          -0.9756  -22.1239  -48.1919 C.2       11 UNK         0.5000 
     68 O          -0.8860  -23.2117  -48.7610 O.2       11 UNK        -0.5000 
     69 N          -2.1298  -21.4594  -48.0404 N.am      12 UNK        -0.5000 
     70 CA         -3.4254  -21.9318  -48.5297 C.3       12 UNK         0.1400 
     71 CB         -4.4768  -20.8266  -48.3508 C.3       12 UNK        -0.1800 
     72 C          -3.8878  -23.2523  -47.8829 C.2       12 UNK         0.5000 
     73 O          -4.5308  -24.0571  -48.5532 O.2       12 UNK        -0.5000 
     74 N          -3.5408  -23.4727  -46.6088 N.am      13 UNK        -0.5000 
     75 CA         -3.7818  -24.7306  -45.9036 C.3       13 UNK         0.1400 
     76 CB         -3.6424  -24.5040  -44.3903 C.3       13 UNK        -0.1800 
     77 C          -2.8485  -25.8628  -46.3762 C.2       13 UNK         0.5000 
     78 O          -3.2976  -27.0025  -46.5039 O.2       13 UNK        -0.5000 
     79 N          -1.5691  -25.5378  -46.6061 N.am      14 UNK        -0.5000 
     80 CA         -0.5274  -26.4880  -46.9956 C.3       14 UNK         0.1400 
     81 CB          0.8513  -25.8671  -46.7220 C.3       14 UNK        -0.1800 
     82 C          -0.6242  -26.9486  -48.4613 C.2       14 UNK         0.5000 
     83 O          -0.3787  -28.1237  -48.7391 O.2       14 UNK        -0.5000 
     84 N          -0.9402  -26.0196  -49.3730 N.am      15 UNK        -0.5000 
     85 CA         -1.0057  -26.2515  -50.8160 C.3       15 UNK         0.1400 
     86 CB         -1.1891  -24.9029  -51.5290 C.3       15 UNK        -0.1800 
     87 C          -2.1307  -27.2236  -51.2165 C.2       15 UNK         0.5000 
     88 O          -3.2604  -27.0796  -50.7465 O.2       15 UNK        -0.5000 
     89 N          -1.8218  -28.1570  -52.1275 N.am      16 UNK        -0.5000 
     90 CA         -2.7665  -29.1455  -52.6629 C.3       16 UNK         0.1400 
     91 CB         -1.9914  -30.2048  -53.4610 C.3       16 UNK        -0.1800 
     92 C          -3.8763  -28.5192  -53.5310 C.2       16 UNK         0.5000 
     93 O          -5.0013  -29.0188  -53.5395 O.2       16 UNK        -0.5000 
     94 N          -3.5455  -27.4136  -54.2119 N.am      17 UNK        -0.5000 
     95 CA         -4.4727  -26.5815  -54.9852 C.3       17 UNK         0.1400 
     96 CB         -3.6983  -25.9583  -56.1593 C.3       17 UNK        -0.1800 
     97 C          -5.1423  -25.4859  -54.1258 C.2       17 UNK         0.5000 
     98 O          -5.8125  -24.6083  -54.6732 O.2       17 UNK        -0.5000 
     99 N          -4.9005  -25.5110  -52.8052 N.am      18 UNK        -0.5000 
    100 CA        -5.3612  -24.5671  -51.7806 C.3       18 UNK         0.1400 
    101 CB        -6.8954  -24.6271  -51.6339 C.3       18 UNK        -0.1800 
    102 C         -4.8541  -23.1225  -51.9785 C.2       18 UNK         0.5000 
    103 O         -5.4263  -22.1942  -51.4078 O.2       18 UNK        -0.5000 
    104 N         -3.8269  -22.9462  -52.8267 N.am      19 UNK        -0.5000 
    105 CA        -3.2651  -21.6754  -53.3052 C.3       19 UNK         0.1400 
    106 CB        -2.5046  -20.9619  -52.1682 C.3       19 UNK        -0.1800 
    107 C         -4.3170  -20.7587  -53.9733 C.2       19 UNK         0.5000 
    108 O         -4.1756  -19.5355  -53.9332 O.2       19 UNK        -0.5000 
    109 N         -5.3909  -21.3636  -54.5127 N.am      20 UNK        -0.5000 
    110 CA        -6.6238  -20.7218  -54.9908 C.3       20 UNK         0.1400 
    111 CB        -6.3550  -19.9441  -56.2955 C.3       20 UNK        -0.1800 
    112 C         -7.3148  -19.8534  -53.9107 C.2       20 UNK         0.5000 
    113 O         -7.9408  -18.8430  -54.2388 O.2       20 UNK        -0.5000 
    114 N         -7.1269  -20.2250  -52.6322 N.am      21 UNK        -0.5000 
    115 CA        -7.4997  -19.4934  -51.4147 C.3       21 UNK         0.1400 
    116 CB        -9.0335  -19.4555  -51.2563 C.3       21 UNK        -0.1800 
    117 C         -6.8570  -18.0901  -51.3141 C.2       21 UNK         0.5000 
    118 O         -7.3657  -17.2387  -50.5828 O.2       21 UNK        -0.5000 
    119 N         -5.7730  -17.8660  -52.0715 N.am      22 UNK        -0.5000 
    120 CA        -5.1335  -16.5670  -52.3249 C.3       22 UNK         0.1400 
    121 C         -6.0481  -15.5350  -53.0577 C.2       22 UNK         0.5000 
    122 N         -7.0910  -15.9589  -53.7647 N.am      22 UNK        -0.7600 
    123 O         -5.7970  -14.3334  -53.0176 O.2       22 UNK        -0.5000 
    124 C124       -4.4117  -15.9828  -51.0776 C.3       23 UNK        -0.0398 
    125 S125       -3.0787  -17.0640  -50.4522 S.3       23 UNK        -0.2404 
    126 C126       -1.8472  -16.8741  -51.7799 C.3       23 UNK        -0.0205 
    127 H127        5.6646  -16.8649  -49.5777 H         1 UNK         0.0600 
    128 H128        4.8865  -17.5501  -48.1471 H         1 UNK         0.0600 
    129 H129        6.5929  -17.0994  -48.0941 H         1 UNK         0.0600 
    130 H130        3.6439  -16.0958  -47.0291 H         1 UNK         0.3000 
    131 H131        2.8100  -14.3087  -46.0787 H         1 UNK         0.0600 
    132 H132        2.8314  -12.0765  -47.2951 H         1 UNK         0.0800 
    133 H133        3.8530  -12.7907  -48.5104 H         1 UNK         0.0800 
    134 H134        1.9795  -13.5993  -50.8804 H         1 UNK         0.0800 
    135 H135        3.2632  -14.4607  -50.0721 H         1 UNK         0.0800 
    136 H136       -0.3547  -14.7377  -51.0040 H         1 UNK         0.1150 
    137 H137       -0.1902  -19.0015  -51.3839 H         1 UNK         0.1150 
    138 H138        3.2173  -16.8393  -49.9386 H         1 UNK         0.1150 
    139 H139        2.8888  -19.5526  -51.4688 H         1 UNK         0.0800 
    140 H140        3.2309  -19.2199  -49.7888 H         1 UNK         0.0800 
    141 H141        0.0848  -19.5436  -48.5165 H         1 UNK         0.0800 
    142 H142        1.6616  -19.8489  -47.8388 H         1 UNK         0.0800 
    143 H143        1.0485  -22.2759  -47.5205 H         1 UNK         0.0600 
    144 H144        0.1284  -20.1251  -45.9400 H         1 UNK         0.3000 
    145 H145       -1.2750  -22.0659  -43.2635 H         1 UNK         0.0600 
    146 H146        0.3059  -20.5881  -42.0256 H         1 UNK         0.0600 
    147 H147        1.2088  -20.2910  -43.5109 H         1 UNK         0.0600 
    148 H148        1.1542  -21.9054  -42.8207 H         1 UNK         0.0600 
    149 H149       -1.1305  -19.2576  -43.6275 H         1 UNK         0.3000 
    150 H150       -4.2066  -18.8935  -45.4664 H         1 UNK         0.0600 
    151 H151       -4.7900  -19.0180  -43.0373 H         1 UNK         0.0600 
    152 H152       -4.6477  -17.3551  -43.5859 H         1 UNK         0.0600 
    153 H153       -3.3537  -18.0836  -42.6374 H         1 UNK         0.0600 
    154 H154       -2.3600  -16.9324  -44.6182 H         1 UNK         0.3000 
    155 H155       -0.2106  -17.0027  -47.5164 H         1 UNK         0.0600 
    156 H156       -2.0247  -15.4826  -48.0456 H         1 UNK         0.0600 
    157 H157       -0.8376  -14.5517  -47.1467 H         1 UNK         0.0600 
    158 H158       -2.3113  -15.0989  -46.3570 H         1 UNK         0.0600 
    159 H159       -0.0154  -15.5445  -45.0811 H         1 UNK         0.3000 
    160 H160        1.7694  -17.9979  -43.1909 H         1 UNK         0.0600 
    161 H161        2.7698  -15.2803  -44.0903 H         1 UNK         0.0600 
    162 H162        3.4649  -16.7780  -44.7182 H         1 UNK         0.0600 
    163 H163        3.5299  -16.4372  -43.0011 H         1 UNK         0.0600 
    164 H164        0.8532  -15.2459  -42.8044 H         1 UNK         0.3000 
    165 H165       -2.1694  -16.1759  -41.1829 H         1 UNK         0.0600 
    166 H166       -1.1904  -14.7645  -39.3810 H         1 UNK         0.0600 
    167 H167       -0.4787  -16.3710  -39.3792 H         1 UNK         0.0600 
    168 H168        0.4260  -15.0158  -40.0375 H         1 UNK         0.0600 
    169 H169       -0.8486  -13.6680  -41.7298 H         1 UNK         0.3000 
    170 H170       -2.2519  -13.1771  -44.9574 H         1 UNK         0.0600 
    171 H171       -3.2368  -11.9204  -42.3424 H         1 UNK         0.0600 
    172 H172       -3.4197  -11.2394  -43.9598 H         1 UNK         0.0600 
    173 H173       -4.2562  -12.7225  -43.5315 H         1 UNK         0.0600 
    174 H174       -1.0127  -11.2967  -43.2972 H         1 UNK         0.3000 
    175 H175        1.8798  -11.3338  -44.8452 H         1 UNK         0.0600 
    176 H176        0.6035  -10.3959  -42.2131 H         1 UNK         0.0600 
    177 H177        1.8810   -9.5688  -43.0927 H         1 UNK         0.0600 
    178 H178        0.2937   -9.7235  -43.8155 H         1 UNK         0.0600 
    179 H179        3.4628  -12.1655  -43.5593 H         1 UNK         0.3000 
    180 H180        4.2558  -12.6122  -40.7224 H         1 UNK         0.0600 
    181 H181        4.4244  -15.0479  -40.0704 H         1 UNK         0.0600 
    182 H182        2.9237  -15.3663  -40.9391 H         1 UNK         0.0600 
    183 H183        2.9274  -14.3012  -39.5410 H         1 UNK         0.0600 
    184 H184        4.3150  -14.5277  -43.0222 H         1 UNK         0.3000 
    185 H185        7.0670  -12.9017  -44.4650 H         1 UNK         0.0600 
    186 H186        7.9811  -15.2004  -44.6521 H         1 UNK         0.0600 
    187 H187        8.2000  -14.5978  -43.0173 H         1 UNK         0.0600 
    188 H188        6.9220  -15.7588  -43.3563 H         1 UNK         0.0600 
    189 H189        5.5497  -15.1286  -45.3361 H         1 UNK         0.3000 
    190 H190       -2.1178  -20.5476  -47.5887 H         1 UNK         0.3000 
    191 H191       -3.3143  -22.1239  -49.5970 H         1 UNK         0.0600 
    192 H192       -4.1909  -19.9209  -48.8868 H         1 UNK         0.0600 
    193 H193       -4.6128  -20.5679  -47.3008 H         1 UNK         0.0600 
    194 H194       -5.4444  -21.1434  -48.7417 H         1 UNK         0.0600 
    195 H195       -3.0909  -22.7277  -46.0869 H         1 UNK         0.3000 
    196 H196       -4.8096  -25.0428  -46.1005 H         1 UNK         0.0600 
    197 H197       -4.3473  -23.7504  -44.0387 H         1 UNK         0.0600 
    198 H198       -2.6392  -24.1729  -44.1215 H         1 UNK         0.0600 
    199 H199       -3.8444  -25.4224  -43.8379 H         1 UNK         0.0600 
    200 H200       -1.2677  -24.5847  -46.4280 H         1 UNK         0.3000 
    201 H201       -0.6242  -27.3746  -46.3654 H         1 UNK         0.0600 
    202 H202        0.9736  -25.6308  -45.6649 H         1 UNK         0.0600 
    203 H203        0.9967  -24.9466  -47.2890 H         1 UNK         0.0600 
    204 H204        1.6530  -26.5539  -46.9964 H         1 UNK         0.0600 
    205 H205       -1.0932  -25.0631  -49.0619 H         1 UNK         0.3000 
    206 H206       -0.0492  -26.6758  -51.1278 H         1 UNK         0.0600 
    207 H207       -2.0790  -24.3853  -51.1701 H         1 UNK         0.0600 
    208 H208       -0.3352  -24.2474  -51.3559 H         1 UNK         0.0600 
    209 H209       -1.2870  -25.0311  -52.6075 H         1 UNK         0.0600 
    210 H210       -0.8730  -28.2138  -52.4697 H         1 UNK         0.3000 
    211 H211       -3.2501  -29.6413  -51.8183 H         1 UNK         0.0600 
    212 H212       -1.4646  -29.7658  -54.3092 H         1 UNK         0.0600 
    213 H213       -2.6646  -30.9687  -53.8524 H         1 UNK         0.0600 
    214 H214       -1.2571  -30.7117  -52.8345 H         1 UNK         0.0600 
    215 H215       -2.5919  -27.0878  -54.1519 H         1 UNK         0.3000 
    216 H216       -5.2698  -27.2049  -55.3953 H         1 UNK         0.0600 
    217 H217       -4.3593  -25.3775  -56.8041 H         1 UNK         0.0600 
    218 H218       -3.2398  -26.7278  -56.7807 H         1 UNK         0.0600 
    219 H219       -2.9077  -25.2914  -55.8132 H         1 UNK         0.0600 
    220 H220       -4.3395  -26.2722  -52.4421 H         1 UNK         0.3000 
    221 H221       -4.9253  -24.9220  -50.8495 H         1 UNK         0.0600 
    222 H222       -7.4036  -24.2174  -52.5072 H         1 UNK         0.0600 
    223 H223       -7.2380  -25.6523  -51.4946 H         1 UNK         0.0600 
    224 H224       -7.2267  -24.0563  -50.7654 H         1 UNK         0.0600 
    225 H225       -3.4485  -23.7752  -53.2594 H         1 UNK         0.3000 
    226 H226       -2.5426  -21.9304  -54.0815 H         1 UNK         0.0600 
    227 H227       -1.8095  -21.6354  -51.6662 H         1 UNK         0.0600 
    228 H228       -1.9212  -20.1293  -52.5599 H         1 UNK         0.0600 
    229 H229       -3.1843  -20.5562  -51.4180 H         1 UNK         0.0600 
    230 H230       -5.4164  -22.3768  -54.4946 H         1 UNK         0.3000 
    231 H231       -7.3197  -21.5295  -55.2216 H         1 UNK         0.0600 
    232 H232       -7.2852  -19.5816  -56.7345 H         1 UNK         0.0600 
    233 H233       -5.8724  -20.5777  -57.0395 H         1 UNK         0.0600 
    234 H234       -5.7146  -19.0779  -56.1260 H         1 UNK         0.0600 
    235 H235       -6.5534  -21.0447  -52.4515 H         1 UNK         0.3000 
    236 H236       -7.0946  -20.0686  -50.5812 H         1 UNK         0.0600 
    237 H237       -9.5040  -18.8350  -52.0195 H         1 UNK         0.0600 
    238 H238       -9.4612  -20.4556  -51.3254 H         1 UNK         0.0600 
    239 H239       -9.3176  -19.0497  -50.2848 H         1 UNK         0.0600 
    240 H240       -5.4099  -18.6259  -52.6369 H         1 UNK         0.3000 
    241 H241       -4.3631  -16.7812  -53.0654 H         1 UNK         0.0600 
    242 H242       -7.3156  -16.9461  -53.8328 H         1 UNK         0.3800 
    243 H243       -7.6683  -15.2855  -54.2427 H         1 UNK         0.3800 
    244 H244       -5.1237  -15.8073  -50.2706 H         1 UNK         0.0800 
    245 H245       -3.9702  -15.0100  -51.2995 H         1 UNK         0.0800 
    246 H246       -2.0209  -15.9466  -52.3273 H         1 UNK         0.0800 
    247 H247       -1.9775  -17.6795  -52.5040 H         1 UNK         0.0800 
@<TRIPOS>BOND
     1    1    2 1    
     2    1  127 1    
     3    1  128 1    
     4    1  129 1    
     5    2    3 2    
     6    2    4 am   BACKBONE|DICT|INTERRES
     7    4    5 1    
     8    4  130 1    
     9    5    6 1    
    10    5   65 1    
    11    5  131 1    
    12    6    7 1    
    13    6  132 1    
    14    6  133 1    
    15    7    8 1    
    16    8    9 1    
    17    8  134 1    
    18    8  135 1    
    19    9   10 ar   
    20    9   14 ar   
    21   10   11 ar   
    22   10  136 1    
    23   11   12 ar   
    24   11  126 1    
    25   12   13 ar   
    26   12  137 1    
    27   13   14 ar   
    28   13   15 1    
    29   14  138 1    
    30   15   16 1    
    31   15  139 1    
    32   15  140 1    
    33   16   17 1    
    34   17   18 1    
    35   17  141 1    
    36   17  142 1    
    37   18   19 1    
    38   18   67 1    
    39   18  143 1    
    40   19   20 am   BACKBONE|DICT|INTERRES
    41   19  144 1    
    42   20   21 2    
    43   20   22 1    
    44   22   23 1    
    45   22   24 1    
    46   22  145 1    
    47   23  146 1    
    48   23  147 1    
    49   23  148 1    
    50   24   25 am   BACKBONE|DICT|INTERRES
    51   24  149 1    
    52   25   26 2    
    53   25   27 1    
    54   27   28 1    
    55   27   29 1    
    56   27  150 1    
    57   28  151 1    
    58   28  152 1    
    59   28  153 1    
    60   29   30 am   BACKBONE|DICT|INTERRES
    61   29  154 1    
    62   30   31 2    
    63   30   32 1    
    64   32   33 1    
    65   32   34 1    
    66   32  155 1    
    67   33  156 1    
    68   33  157 1    
    69   33  158 1    
    70   34   35 am   BACKBONE|DICT|INTERRES
    71   34  159 1    
    72   35   36 2    
    73   35   37 1    
    74   37   38 1    
    75   37   39 1    
    76   37  160 1    
    77   38  161 1    
    78   38  162 1    
    79   38  163 1    
    80   39   40 am   BACKBONE|DICT|INTERRES
    81   39  164 1    
    82   40   41 2    
    83   40   42 1    
    84   42   43 1    
    85   42   44 1    
    86   42  165 1    
    87   43  166 1    
    88   43  167 1    
    89   43  168 1    
    90   44   45 am   BACKBONE|DICT|INTERRES
    91   44  169 1    
    92   45   46 2    
    93   45   47 1    
    94   47   48 1    
    95   47   49 1    
    96   47  170 1    
    97   48  171 1    
    98   48  172 1    
    99   48  173 1    
   100   49   50 am   BACKBONE|DICT|INTERRES
   101   49  174 1    
   102   50   51 2    
   103   50   52 1    
   104   52   53 1    
   105   52   54 1    
   106   52  175 1    
   107   53  176 1    
   108   53  177 1    
   109   53  178 1    
   110   54   55 am   BACKBONE|DICT|INTERRES
   111   54  179 1    
   112   55   56 2    
   113   55   57 1    
   114   57   58 1    
   115   57   59 1    
   116   57  180 1    
   117   58  181 1    
   118   58  182 1    
   119   58  183 1    
   120   59   60 am   BACKBONE|DICT|INTERRES
   121   59  184 1    
   122   60   61 2    
   123   60   62 1    
   124   62   63 1    
   125   62   64 1    
   126   62  185 1    
   127   63  186 1    
   128   63  187 1    
   129   63  188 1    
   130   64   65 am   BACKBONE|DICT|INTERRES
   131   64  189 1    
   132   65   66 2    
   133   67   68 2    
   134   67   69 am   BACKBONE|DICT|INTERRES
   135   69   70 1    
   136   69  190 1    
   137   70   71 1    
   138   70   72 1    
   139   70  191 1    
   140   71  192 1    
   141   71  193 1    
   142   71  194 1    
   143   72   73 2    
   144   72   74 am   BACKBONE|DICT|INTERRES
   145   74   75 1    
   146   74  195 1    
   147   75   76 1    
   148   75   77 1    
   149   75  196 1    
   150   76  197 1    
   151   76  198 1    
   152   76  199 1    
   153   77   78 2    
   154   77   79 am   BACKBONE|DICT|INTERRES
   155   79   80 1    
   156   79  200 1    
   157   80   81 1    
   158   80   82 1    
   159   80  201 1    
   160   81  202 1    
   161   81  203 1    
   162   81  204 1    
   163   82   83 2    
   164   82   84 am   BACKBONE|DICT|INTERRES
   165   84   85 1    
   166   84  205 1    
   167   85   86 1    
   168   85   87 1    
   169   85  206 1    
   170   86  207 1    
   171   86  208 1    
   172   86  209 1    
   173   87   88 2    
   174   87   89 am   BACKBONE|DICT|INTERRES
   175   89   90 1    
   176   89  210 1    
   177   90   91 1    
   178   90   92 1    
   179   90  211 1    
   180   91  212 1    
   181   91  213 1    
   182   91  214 1    
   183   92   93 2    
   184   92   94 am   BACKBONE|DICT|INTERRES
   185   94   95 1    
   186   94  215 1    
   187   95   96 1    
   188   95   97 1    
   189   95  216 1    
   190   96  217 1    
   191   96  218 1    
   192   96  219 1    
   193   97   98 2    
   194   97   99 am   BACKBONE|DICT|INTERRES
   195   99  100 1    
   196   99  220 1    
   197  100  101 1    
   198  100  102 1    
   199  100  221 1    
   200  101  222 1    
   201  101  223 1    
   202  101  224 1    
   203  102  103 2    
   204  102  104 am   BACKBONE|DICT|INTERRES
   205  104  105 1    
   206  104  225 1    
   207  105  106 1    
   208  105  107 1    
   209  105  226 1    
   210  106  227 1    
   211  106  228 1    
   212  106  229 1    
   213  107  108 2    
   214  107  109 am   BACKBONE|DICT|INTERRES
   215  109  110 1    
   216  109  230 1    
   217  110  111 1    
   218  110  112 1    
   219  110  231 1    
   220  111  232 1    
   221  111  233 1    
   222  111  234 1    
   223  112  113 2    
   224  112  114 am   BACKBONE|DICT|INTERRES
   225  114  115 1    
   226  114  235 1    
   227  115  116 1    
   228  115  117 1    
   229  115  236 1    
   230  116  237 1    
   231  116  238 1    
   232  116  239 1    
   233  117  118 2    
   234  117  119 am   BACKBONE|DICT|INTERRES
   235  119  120 1    
   236  119  240 1    
   237  120  121 1    
   238  120  124 1    
   239  120  241 1    
   240  121  122 am   BACKBONE|DICT|INTERRES
   241  121  123 2    
   242  122  242 1    
   243  122  243 1    
   244  124  125 1    
   245  124  244 1    
   246  124  245 1    
   247  125  126 1    
   248  126  246 1    
   249  126  247 1    
@<TRIPOS>SUBSTRUCTURE
     1 UNK         1 GROUP             0       ****    0 ROOT    
