@<TRIPOS>MOLECULE
3R540
247   249    1
SMALL
USER_CHARGES


@<TRIPOS>ATOM
      1 CA          3.6849  -17.1947  -46.7243 C.3       0 UNK        -0.1800 
      2 C           3.3451  -16.4234  -47.9897 C.2       0 UNK         0.5000 
      3 O           2.1858  -16.3986  -48.3981 O.2       0 UNK        -0.5000 
      4 N           4.3455  -15.7842  -48.6084 N.am      1 UNK        -0.5000 
      5 CA          4.2506  -15.1216  -49.9165 C.3       1 UNK         0.1400 
      6 C6          5.5898  -15.1552  -50.7006 C.3       23 UNK        -0.0398 
      7 S7          6.3956  -16.7967  -50.7702 S.3       23 UNK        -0.2404 
      8 C8          5.4702  -17.6573  -52.0842 C.3       23 UNK        -0.0205 
      9 C9          4.3356  -18.4976  -51.5143 C.ar      23 UNK        -0.0193 
     10 C10         3.0146  -18.0480  -51.5804 C.ar      23 UNK        -0.1150 
     11 C11         1.9747  -18.7993  -51.0252 C.ar      23 UNK        -0.0193 
     12 C12         2.2604  -20.0365  -50.4408 C.ar      23 UNK        -0.1150 
     13 C13         3.5755  -20.5078  -50.3834 C.ar      23 UNK        -0.0193 
     14 C14         4.6089  -19.7319  -50.9167 C.ar      23 UNK        -0.1150 
     15 C15         3.8743  -21.8629  -49.7632 C.3       23 UNK        -0.0205 
     16 S16         4.1011  -21.7627  -47.9564 S.3       23 UNK        -0.2404 
     17 C17         4.1700  -23.5502  -47.5579 C.3       23 UNK        -0.0398 
     18 CA          2.8806  -24.1696  -46.9524 C.3       11 UNK         0.1400 
     19 N           2.6784  -23.8200  -45.5427 N.am      11 UNK        -0.5000 
     20 C           1.8268  -24.4713  -44.7348 C.2       10 UNK         0.5000 
     21 O           1.1420  -25.4288  -45.0944 O.2       10 UNK        -0.5000 
     22 CA          1.6828  -23.9470  -43.2967 C.3       10 UNK         0.1400 
     23 CB          2.7762  -24.5378  -42.3944 C.3       10 UNK        -0.1800 
     24 N           1.7098  -22.4871  -43.2025 N.am      10 UNK        -0.5000 
     25 C           0.8015  -21.6689  -43.7496 C.2       9 UNK         0.5000 
     26 O          -0.1225  -22.0492  -44.4717 O.2       9 UNK        -0.5000 
     27 CA          0.9955  -20.1682  -43.4711 C.3       9 UNK         0.1400 
     28 CB          1.6267  -19.4805  -44.6909 C.3       9 UNK        -0.1800 
     29 N          -0.2393  -19.4696  -43.1084 N.am      9 UNK        -0.5000 
     30 C          -1.0300  -19.7630  -42.0657 C.2       8 UNK         0.5000 
     31 O          -0.8287  -20.7107  -41.3046 O.2       8 UNK        -0.5000 
     32 CA         -2.2246  -18.8319  -41.7818 C.3       8 UNK         0.1400 
     33 CB         -1.8540  -17.8159  -40.6890 C.3       8 UNK        -0.1800 
     34 N          -2.6840  -18.0940  -42.9613 N.am      8 UNK        -0.5000 
     35 C          -3.9338  -18.1273  -43.4482 C.2       7 UNK         0.5000 
     36 O          -4.8316  -18.8240  -42.9728 O.2       7 UNK        -0.5000 
     37 CA         -4.2627  -17.2229  -44.6582 C.3       7 UNK         0.1400 
     38 CB         -5.0049  -15.9580  -44.2004 C.3       7 UNK        -0.1800 
     39 N          -3.0962  -16.8146  -45.4379 N.am      7 UNK        -0.5000 
     40 C          -2.3149  -17.6499  -46.1321 C.2       6 UNK         0.5000 
     41 O          -2.5310  -18.8536  -46.2361 O.2       6 UNK        -0.5000 
     42 CA         -1.0666  -17.0446  -46.7940 C.3       6 UNK         0.1400 
     43 CB         -1.4090  -16.6170  -48.2280 C.3       6 UNK        -0.1800 
     44 N          -0.4919  -15.9029  -46.0745 N.am      6 UNK        -0.5000 
     45 C          -0.1111  -15.8719  -44.7890 C.2       5 UNK         0.5000 
     46 O          -0.2733  -16.8064  -44.0064 O.2       5 UNK        -0.5000 
     47 CA          0.5133  -14.5644  -44.2782 C.3       5 UNK         0.1400 
     48 CB          1.9824  -14.4438  -44.7111 C.3       5 UNK        -0.1800 
     49 N          -0.2336  -13.4067  -44.7615 N.am      5 UNK        -0.5000 
     50 C          -1.2988  -12.8800  -44.1426 C.2       4 UNK         0.5000 
     51 O          -1.7305  -13.2819  -43.0617 O.2       4 UNK        -0.5000 
     52 CA         -2.0084  -11.7076  -44.8490 C.3       4 UNK         0.1400 
     53 CB         -1.4610  -10.3647  -44.3420 C.3       4 UNK        -0.1800 
     54 N          -1.8884  -11.7503  -46.3075 N.am      4 UNK        -0.5000 
     55 C          -2.4589  -12.6780  -47.0878 C.2       3 UNK         0.5000 
     56 O          -3.1701  -13.5872  -46.6591 O.2       3 UNK        -0.5000 
     57 CA         -2.1318  -12.6027  -48.5934 C.3       3 UNK         0.1400 
     58 CB         -3.1079  -11.6594  -49.3117 C.3       3 UNK        -0.1800 
     59 N          -0.7503  -12.1992  -48.8949 N.am      3 UNK        -0.5000 
     60 C           0.3367  -12.8524  -48.4649 C.2       2 UNK         0.5000 
     61 O           0.2910  -13.7950  -47.6750 O.2       2 UNK        -0.5000 
     62 CA          1.7058  -12.3790  -48.9608 C.3       2 UNK         0.1400 
     63 CB          2.3392  -11.3979  -47.9593 C.3       2 UNK        -0.1800 
     64 N           2.5350  -13.5704  -49.0992 N.am      2 UNK        -0.5000 
     65 C           3.6416  -13.7010  -49.8336 C.2       1 UNK         0.5000 
     66 O           4.1648  -12.7628  -50.4379 O.2       1 UNK        -0.5000 
     67 C           1.6179  -23.8860  -47.7923 C.2       11 UNK         0.5000 
     68 O           1.2565  -24.6975  -48.6431 O.2       11 UNK        -0.5000 
     69 N           0.9528  -22.7573  -47.5067 N.am      12 UNK        -0.5000 
     70 CA         -0.2837  -22.3393  -48.1569 C.3       12 UNK         0.1400 
     71 CB         -0.5796  -20.8732  -47.8158 C.3       12 UNK        -0.1800 
     72 C          -1.4607  -23.2435  -47.7680 C.2       12 UNK         0.5000 
     73 O          -2.2657  -23.5858  -48.6324 O.2       12 UNK        -0.5000 
     74 N          -1.5231  -23.6455  -46.4919 N.am      13 UNK        -0.5000 
     75 CA         -2.4946  -24.6088  -45.9782 C.3       13 UNK         0.1400 
     76 CB         -2.3929  -24.6766  -44.4474 C.3       13 UNK        -0.1800 
     77 C          -2.3259  -26.0030  -46.6110 C.2       13 UNK         0.5000 
     78 O          -3.3195  -26.6022  -47.0223 O.2       13 UNK        -0.5000 
     79 N          -1.0740  -26.4725  -46.7181 N.am      14 UNK        -0.5000 
     80 CA         -0.7113  -27.7462  -47.3441 C.3       14 UNK         0.1400 
     81 CB          0.7672  -28.0539  -47.0630 C.3       14 UNK        -0.1800 
     82 C          -0.9940  -27.7794  -48.8579 C.2       14 UNK         0.5000 
     83 O          -1.4912  -28.7876  -49.3608 O.2       14 UNK        -0.5000 
     84 N          -0.6931  -26.6736  -49.5525 N.am      15 UNK        -0.5000 
     85 CA         -0.9375  -26.4972  -50.9865 C.3       15 UNK         0.1400 
     86 CB         -0.0734  -25.3306  -51.4934 C.3       15 UNK        -0.1800 
     87 C          -2.4173  -26.2439  -51.3386 C.2       15 UNK         0.5000 
     88 O          -2.7719  -26.3210  -52.5153 O.2       15 UNK        -0.5000 
     89 N          -3.2344  -25.9048  -50.3296 N.am      16 UNK        -0.5000 
     90 CA         -4.6189  -25.4240  -50.4187 C.3       16 UNK         0.1400 
     91 CB         -5.5526  -26.4868  -51.0336 C.3       16 UNK        -0.1800 
     92 C          -4.7326  -24.0444  -51.1069 C.2       16 UNK         0.5000 
     93 O          -5.7947  -23.6925  -51.6206 O.2       16 UNK        -0.5000 
     94 N          -3.6388  -23.2728  -51.0675 N.am      17 UNK        -0.5000 
     95 CA         -3.5426  -21.8931  -51.5374 C.3       17 UNK         0.1400 
     96 CB         -2.0777  -21.5865  -51.8868 C.3       17 UNK        -0.1800 
     97 C          -4.0662  -20.8912  -50.4934 C.2       17 UNK         0.5000 
     98 O          -4.3467  -19.7489  -50.8494 O.2       17 UNK        -0.5000 
     99 N          -4.1990  -21.3219  -49.2287 N.am      18 UNK        -0.5000 
    100 CA        -4.7736  -20.5330  -48.1350 C.3       18 UNK         0.1400 
    101 CB        -4.6422  -21.3098  -46.8164 C.3       18 UNK        -0.1800 
    102 C         -6.2389  -20.1319  -48.3896 C.2       18 UNK         0.5000 
    103 O         -6.6480  -19.0357  -48.0031 O.2       18 UNK        -0.5000 
    104 N         -6.9825  -20.9995  -49.0914 N.am      19 UNK        -0.5000 
    105 CA        -8.2906  -20.7002  -49.6660 C.3       19 UNK         0.1400 
    106 CB        -8.9109  -21.9944  -50.2156 C.3       19 UNK        -0.1800 
    107 C         -8.1387  -19.6349  -50.7674 C.2       19 UNK         0.5000 
    108 O         -7.4686  -19.8893  -51.7691 O.2       19 UNK        -0.5000 
    109 N         -8.7244  -18.4553  -50.5258 N.am      20 UNK        -0.5000 
    110 CA        -8.5962  -17.2247  -51.3164 C.3       20 UNK         0.1400 
    111 CB        -9.0685  -17.4211  -52.7734 C.3       20 UNK        -0.1800 
    112 C         -7.2041  -16.5592  -51.2152 C.2       20 UNK         0.5000 
    113 O         -6.8602  -15.7525  -52.0808 O.2       20 UNK        -0.5000 
    114 N         -6.4532  -16.8686  -50.1438 N.am      21 UNK        -0.5000 
    115 CA        -5.2251  -16.2048  -49.6851 C.3       21 UNK         0.1400 
    116 CB        -5.5976  -14.8853  -48.9827 C.3       21 UNK        -0.1800 
    117 C         -4.1535  -16.0111  -50.7806 C.2       21 UNK         0.5000 
    118 O         -3.6807  -14.8955  -51.0036 O.2       21 UNK        -0.5000 
    119 N         -3.8049  -17.1112  -51.4547 N.am      22 UNK        -0.5000 
    120 CA        -2.8648  -17.1945  -52.5838 C.3       22 UNK         0.1400 
    121 C         -3.3944  -16.6099  -53.9301 C.2       22 UNK         0.5000 
    122 N         -4.6374  -16.1521  -54.0275 N.am      22 UNK        -0.7600 
    123 O         -2.6734  -16.5983  -54.9239 O.2       22 UNK        -0.5000 
    124 C124       -1.4341  -16.6873  -52.2239 C.3       23 UNK        -0.0398 
    125 S125       -0.1136  -17.8811  -52.6408 S.3       23 UNK        -0.2404 
    126 C126        0.5639  -18.2301  -50.9855 C.3       23 UNK        -0.0205 
    127 H127        4.6879  -16.9647  -46.3647 H         1 UNK         0.0600 
    128 H128        3.6247  -18.2663  -46.9161 H         1 UNK         0.0600 
    129 H129        2.9745  -16.9496  -45.9373 H         1 UNK         0.0600 
    130 H130        5.2736  -15.8217  -48.2128 H         1 UNK         0.3000 
    131 H131        3.5330  -15.6805  -50.5117 H         1 UNK         0.0600 
    132 H132        6.3043  -14.4693  -50.2424 H         1 UNK         0.0800 
    133 H133        5.4443  -14.7962  -51.7208 H         1 UNK         0.0800 
    134 H134        5.0962  -16.9410  -52.8171 H         1 UNK         0.0800 
    135 H135        6.1580  -18.3095  -52.6243 H         1 UNK         0.0800 
    136 H136        2.7907  -17.0988  -52.0452 H         1 UNK         0.1150 
    137 H137        1.4645  -20.6295  -50.0160 H         1 UNK         0.1150 
    138 H138        5.6288  -20.0868  -50.8654 H         1 UNK         0.1150 
    139 H139        3.0597  -22.5502  -49.9962 H         1 UNK         0.0800 
    140 H140        4.7712  -22.2906  -50.2140 H         1 UNK         0.0800 
    141 H141        5.0047  -23.7084  -46.8738 H         1 UNK         0.0800 
    142 H142        4.4408  -24.1008  -48.4603 H         1 UNK         0.0800 
    143 H143        3.0244  -25.2523  -46.9794 H         1 UNK         0.0600 
    144 H144        3.2002  -23.0347  -45.1824 H         1 UNK         0.3000 
    145 H145        0.7145  -24.2835  -42.9206 H         1 UNK         0.0600 
    146 H146        2.6277  -24.2489  -41.3537 H         1 UNK         0.0600 
    147 H147        2.7657  -25.6281  -42.4315 H         1 UNK         0.0600 
    148 H148        3.7712  -24.2086  -42.6964 H         1 UNK         0.0600 
    149 H149        2.4437  -22.0909  -42.6332 H         1 UNK         0.3000 
    150 H150        1.6813  -20.0587  -42.6287 H         1 UNK         0.0600 
    151 H151        2.5434  -19.9837  -45.0011 H         1 UNK         0.0600 
    152 H152        1.8872  -18.4481  -44.4616 H         1 UNK         0.0600 
    153 H153        0.9494  -19.4742  -45.5446 H         1 UNK         0.0600 
    154 H154       -0.4312  -18.6228  -43.6328 H         1 UNK         0.3000 
    155 H155       -3.0237  -19.4662  -41.3932 H         1 UNK         0.0600 
    156 H156       -1.0582  -17.1463  -41.0183 H         1 UNK         0.0600 
    157 H157       -1.5093  -18.3188  -39.7845 H         1 UNK         0.0600 
    158 H158       -2.7132  -17.2044  -40.4130 H         1 UNK         0.0600 
    159 H159       -1.9955  -17.5045  -43.4181 H         1 UNK         0.3000 
    160 H160       -4.9238  -17.7890  -45.3182 H         1 UNK         0.0600 
    161 H161       -4.3802  -15.3384  -43.5554 H         1 UNK         0.0600 
    162 H162       -5.9064  -16.2123  -43.6415 H         1 UNK         0.0600 
    163 H163       -5.3114  -15.3507  -45.0528 H         1 UNK         0.0600 
    164 H164       -2.8580  -15.8319  -45.4287 H         1 UNK         0.3000 
    165 H165       -0.2993  -17.8190  -46.8385 H         1 UNK         0.0600 
    166 H166       -0.5427  -16.1882  -48.7295 H         1 UNK         0.0600 
    167 H167       -1.7458  -17.4688  -48.8206 H         1 UNK         0.0600 
    168 H168       -2.2032  -15.8705  -48.2420 H         1 UNK         0.0600 
    169 H169       -0.2761  -15.0908  -46.6511 H         1 UNK         0.3000 
    170 H170        0.4895  -14.5833  -43.1864 H         1 UNK         0.0600 
    171 H171        2.5750  -15.2601  -44.2972 H         1 UNK         0.0600 
    172 H172        2.0936  -14.4695  -45.7954 H         1 UNK         0.0600 
    173 H173        2.4223  -13.5127  -44.3536 H         1 UNK         0.0600 
    174 H174        0.0073  -13.0726  -45.6855 H         1 UNK         0.3000 
    175 H175       -3.0690  -11.7632  -44.5944 H         1 UNK         0.0600 
    176 H176       -0.4050  -10.2423  -44.5867 H         1 UNK         0.0600 
    177 H177       -2.0066   -9.5266  -44.7759 H         1 UNK         0.0600 
    178 H178       -1.5579  -10.2877  -43.2582 H         1 UNK         0.0600 
    179 H179       -1.3113  -11.0447  -46.7408 H         1 UNK         0.3000 
    180 H180       -2.2709  -13.6042  -49.0037 H         1 UNK         0.0600 
    181 H181       -2.9816  -10.6253  -48.9892 H         1 UNK         0.0600 
    182 H182       -4.1426  -11.9424  -49.1137 H         1 UNK         0.0600 
    183 H183       -2.9667  -11.6968  -50.3921 H         1 UNK         0.0600 
    184 H184       -0.6379  -11.4199  -49.5273 H         1 UNK         0.3000 
    185 H185        1.5909  -11.9001  -49.9352 H         1 UNK         0.0600 
    186 H186        1.7118  -10.5160  -47.8252 H         1 UNK         0.0600 
    187 H187        2.4759  -11.8579  -46.9795 H         1 UNK         0.0600 
    188 H188        3.3137  -11.0524  -48.3044 H         1 UNK         0.0600 
    189 H189        2.1488  -14.4025  -48.6568 H         1 UNK         0.3000 
    190 H190        1.2998  -22.1667  -46.7660 H         1 UNK         0.3000 
    191 H191       -0.1376  -22.4207  -49.2350 H         1 UNK         0.0600 
    192 H192        0.2554  -20.2212  -48.0699 H         1 UNK         0.0600 
    193 H193       -1.4534  -20.5129  -48.3599 H         1 UNK         0.0600 
    194 H194       -0.7840  -20.7483  -46.7526 H         1 UNK         0.0600 
    195 H195       -0.8648  -23.2552  -45.8236 H         1 UNK         0.3000 
    196 H196       -3.4916  -24.2454  -46.2349 H         1 UNK         0.0600 
    197 H197       -3.1365  -25.3604  -44.0367 H         1 UNK         0.0600 
    198 H198       -2.5655  -23.6980  -43.9985 H         1 UNK         0.0600 
    199 H199       -1.4120  -25.0236  -44.1226 H         1 UNK         0.0600 
    200 H200       -0.3131  -25.9363  -46.3109 H         1 UNK         0.3000 
    201 H201       -1.3135  -28.5292  -46.8785 H         1 UNK         0.0600 
    202 H202        0.9581  -28.1230  -45.9919 H         1 UNK         0.0600 
    203 H203        1.4232  -27.2839  -47.4701 H         1 UNK         0.0600 
    204 H204        1.0608  -29.0057  -47.5075 H         1 UNK         0.0600 
    205 H205       -0.2168  -25.9107  -49.0793 H         1 UNK         0.3000 
    206 H206       -0.6264  -27.4050  -51.5074 H         1 UNK         0.0600 
    207 H207        0.9859  -25.5196  -51.3190 H         1 UNK         0.0600 
    208 H208       -0.2027  -25.1804  -52.5660 H         1 UNK         0.0600 
    209 H209       -0.3327  -24.3943  -50.9973 H         1 UNK         0.0600 
    210 H210       -2.8256  -25.8565  -49.4053 H         1 UNK         0.3000 
    211 H211       -4.9400  -25.2675  -49.3879 H         1 UNK         0.0600 
    212 H212       -5.3604  -26.6332  -52.0966 H         1 UNK         0.0600 
    213 H213       -6.5977  -26.1927  -50.9312 H         1 UNK         0.0600 
    214 H214       -5.4368  -27.4489  -50.5344 H         1 UNK         0.0600 
    215 H215       -2.8548  -23.6159  -50.5234 H         1 UNK         0.3000 
    216 H216       -4.1456  -21.7800  -52.4407 H         1 UNK         0.0600 
    217 H217       -1.9758  -20.5821  -52.2991 H         1 UNK         0.0600 
    218 H218       -1.6950  -22.2836  -52.6325 H         1 UNK         0.0600 
    219 H219       -1.4331  -21.6449  -51.0107 H         1 UNK         0.0600 
    220 H220       -3.8801  -22.2565  -49.0054 H         1 UNK         0.3000 
    221 H221       -4.1973  -19.6102  -48.0568 H         1 UNK         0.0600 
    222 H222       -5.1462  -22.2757  -46.8625 H         1 UNK         0.0600 
    223 H223       -3.5961  -21.4842  -46.5662 H         1 UNK         0.0600 
    224 H224       -5.0761  -20.7475  -45.9884 H         1 UNK         0.0600 
    225 H225       -6.5390  -21.8454  -49.4173 H         1 UNK         0.3000 
    226 H226       -8.9384  -20.3191  -48.8737 H         1 UNK         0.0600 
    227 H227       -9.0401  -22.7361  -49.4272 H         1 UNK         0.0600 
    228 H228       -9.8942  -21.8018  -50.6463 H         1 UNK         0.0600 
    229 H229       -8.2922  -22.4398  -50.9960 H         1 UNK         0.0600 
    230 H230       -9.2404  -18.3530  -49.6623 H         1 UNK         0.3000 
    231 H231       -9.2851  -16.5154  -50.8558 H         1 UNK         0.0600 
    232 H232      -10.0417  -17.9102  -52.8120 H         1 UNK         0.0600 
    233 H233       -8.3661  -18.0199  -53.3535 H         1 UNK         0.0600 
    234 H234       -9.1691  -16.4618  -53.2821 H         1 UNK         0.0600 
    235 H235       -6.8009  -17.5868  -49.5181 H         1 UNK         0.3000 
    236 H236       -4.7793  -16.8619  -48.9364 H         1 UNK         0.0600 
    237 H237       -4.7136  -14.4013  -48.5721 H         1 UNK         0.0600 
    238 H238       -6.0678  -14.1807  -49.6695 H         1 UNK         0.0600 
    239 H239       -6.2839  -15.0586  -48.1538 H         1 UNK         0.0600 
    240 H240       -4.2319  -18.0017  -51.2005 H         1 UNK         0.3000 
    241 H241       -2.8045  -18.2662  -52.7738 H         1 UNK         0.0600 
    242 H242       -5.2548  -16.1169  -53.2230 H         1 UNK         0.3800 
    243 H243       -4.9587  -15.7907  -54.9111 H         1 UNK         0.3800 
    244 H244       -1.3673  -16.4598  -51.1609 H         1 UNK         0.0800 
    245 H245       -1.2102  -15.7396  -52.7166 H         1 UNK         0.0800 
    246 H246       -0.1172  -18.8956  -50.4528 H         1 UNK         0.0800 
    247 H247        0.6111  -17.3057  -50.4108 H         1 UNK         0.0800 
@<TRIPOS>BOND
     1    1    2 1    
     2    1  127 1    
     3    1  128 1    
     4    1  129 1    
     5    2    3 2    
     6    2    4 am   BACKBONE|DICT|INTERRES
     7    4    5 1    
     8    4  130 1    
     9    5    6 1    
    10    5   65 1    
    11    5  131 1    
    12    6    7 1    
    13    6  132 1    
    14    6  133 1    
    15    7    8 1    
    16    8    9 1    
    17    8  134 1    
    18    8  135 1    
    19    9   10 ar   
    20    9   14 ar   
    21   10   11 ar   
    22   10  136 1    
    23   11   12 ar   
    24   11  126 1    
    25   12   13 ar   
    26   12  137 1    
    27   13   14 ar   
    28   13   15 1    
    29   14  138 1    
    30   15   16 1    
    31   15  139 1    
    32   15  140 1    
    33   16   17 1    
    34   17   18 1    
    35   17  141 1    
    36   17  142 1    
    37   18   19 1    
    38   18   67 1    
    39   18  143 1    
    40   19   20 am   BACKBONE|DICT|INTERRES
    41   19  144 1    
    42   20   21 2    
    43   20   22 1    
    44   22   23 1    
    45   22   24 1    
    46   22  145 1    
    47   23  146 1    
    48   23  147 1    
    49   23  148 1    
    50   24   25 am   BACKBONE|DICT|INTERRES
    51   24  149 1    
    52   25   26 2    
    53   25   27 1    
    54   27   28 1    
    55   27   29 1    
    56   27  150 1    
    57   28  151 1    
    58   28  152 1    
    59   28  153 1    
    60   29   30 am   BACKBONE|DICT|INTERRES
    61   29  154 1    
    62   30   31 2    
    63   30   32 1    
    64   32   33 1    
    65   32   34 1    
    66   32  155 1    
    67   33  156 1    
    68   33  157 1    
    69   33  158 1    
    70   34   35 am   BACKBONE|DICT|INTERRES
    71   34  159 1    
    72   35   36 2    
    73   35   37 1    
    74   37   38 1    
    75   37   39 1    
    76   37  160 1    
    77   38  161 1    
    78   38  162 1    
    79   38  163 1    
    80   39   40 am   BACKBONE|DICT|INTERRES
    81   39  164 1    
    82   40   41 2    
    83   40   42 1    
    84   42   43 1    
    85   42   44 1    
    86   42  165 1    
    87   43  166 1    
    88   43  167 1    
    89   43  168 1    
    90   44   45 am   BACKBONE|DICT|INTERRES
    91   44  169 1    
    92   45   46 2    
    93   45   47 1    
    94   47   48 1    
    95   47   49 1    
    96   47  170 1    
    97   48  171 1    
    98   48  172 1    
    99   48  173 1    
   100   49   50 am   BACKBONE|DICT|INTERRES
   101   49  174 1    
   102   50   51 2    
   103   50   52 1    
   104   52   53 1    
   105   52   54 1    
   106   52  175 1    
   107   53  176 1    
   108   53  177 1    
   109   53  178 1    
   110   54   55 am   BACKBONE|DICT|INTERRES
   111   54  179 1    
   112   55   56 2    
   113   55   57 1    
   114   57   58 1    
   115   57   59 1    
   116   57  180 1    
   117   58  181 1    
   118   58  182 1    
   119   58  183 1    
   120   59   60 am   BACKBONE|DICT|INTERRES
   121   59  184 1    
   122   60   61 2    
   123   60   62 1    
   124   62   63 1    
   125   62   64 1    
   126   62  185 1    
   127   63  186 1    
   128   63  187 1    
   129   63  188 1    
   130   64   65 am   BACKBONE|DICT|INTERRES
   131   64  189 1    
   132   65   66 2    
   133   67   68 2    
   134   67   69 am   BACKBONE|DICT|INTERRES
   135   69   70 1    
   136   69  190 1    
   137   70   71 1    
   138   70   72 1    
   139   70  191 1    
   140   71  192 1    
   141   71  193 1    
   142   71  194 1    
   143   72   73 2    
   144   72   74 am   BACKBONE|DICT|INTERRES
   145   74   75 1    
   146   74  195 1    
   147   75   76 1    
   148   75   77 1    
   149   75  196 1    
   150   76  197 1    
   151   76  198 1    
   152   76  199 1    
   153   77   78 2    
   154   77   79 am   BACKBONE|DICT|INTERRES
   155   79   80 1    
   156   79  200 1    
   157   80   81 1    
   158   80   82 1    
   159   80  201 1    
   160   81  202 1    
   161   81  203 1    
   162   81  204 1    
   163   82   83 2    
   164   82   84 am   BACKBONE|DICT|INTERRES
   165   84   85 1    
   166   84  205 1    
   167   85   86 1    
   168   85   87 1    
   169   85  206 1    
   170   86  207 1    
   171   86  208 1    
   172   86  209 1    
   173   87   88 2    
   174   87   89 am   BACKBONE|DICT|INTERRES
   175   89   90 1    
   176   89  210 1    
   177   90   91 1    
   178   90   92 1    
   179   90  211 1    
   180   91  212 1    
   181   91  213 1    
   182   91  214 1    
   183   92   93 2    
   184   92   94 am   BACKBONE|DICT|INTERRES
   185   94   95 1    
   186   94  215 1    
   187   95   96 1    
   188   95   97 1    
   189   95  216 1    
   190   96  217 1    
   191   96  218 1    
   192   96  219 1    
   193   97   98 2    
   194   97   99 am   BACKBONE|DICT|INTERRES
   195   99  100 1    
   196   99  220 1    
   197  100  101 1    
   198  100  102 1    
   199  100  221 1    
   200  101  222 1    
   201  101  223 1    
   202  101  224 1    
   203  102  103 2    
   204  102  104 am   BACKBONE|DICT|INTERRES
   205  104  105 1    
   206  104  225 1    
   207  105  106 1    
   208  105  107 1    
   209  105  226 1    
   210  106  227 1    
   211  106  228 1    
   212  106  229 1    
   213  107  108 2    
   214  107  109 am   BACKBONE|DICT|INTERRES
   215  109  110 1    
   216  109  230 1    
   217  110  111 1    
   218  110  112 1    
   219  110  231 1    
   220  111  232 1    
   221  111  233 1    
   222  111  234 1    
   223  112  113 2    
   224  112  114 am   BACKBONE|DICT|INTERRES
   225  114  115 1    
   226  114  235 1    
   227  115  116 1    
   228  115  117 1    
   229  115  236 1    
   230  116  237 1    
   231  116  238 1    
   232  116  239 1    
   233  117  118 2    
   234  117  119 am   BACKBONE|DICT|INTERRES
   235  119  120 1    
   236  119  240 1    
   237  120  121 1    
   238  120  124 1    
   239  120  241 1    
   240  121  122 am   BACKBONE|DICT|INTERRES
   241  121  123 2    
   242  122  242 1    
   243  122  243 1    
   244  124  125 1    
   245  124  244 1    
   246  124  245 1    
   247  125  126 1    
   248  126  246 1    
   249  126  247 1    
@<TRIPOS>SUBSTRUCTURE
     1 UNK         1 GROUP             0       ****    0 ROOT    
