@<TRIPOS>MOLECULE
3R540
247   249    1
SMALL
USER_CHARGES


@<TRIPOS>ATOM
      1 CA         -1.9983  -14.7173  -44.1509 C.3       0 UNK        -0.1800 
      2 C          -1.5317  -14.5470  -45.5882 C.2       0 UNK         0.5000 
      3 O          -0.3461  -14.7117  -45.8687 O.2       0 UNK        -0.5000 
      4 N          -2.4546  -14.2013  -46.4973 N.am      1 UNK        -0.5000 
      5 CA         -2.2663  -14.1336  -47.9585 C.3       1 UNK         0.1400 
      6 C6         -2.0437  -15.5334  -48.5936 C.3       23 UNK        -0.0398 
      7 S7         -3.4734  -16.6288  -48.3244 S.3       23 UNK        -0.2404 
      8 C8         -2.7310  -18.0454  -47.4579 C.3       23 UNK        -0.0205 
      9 C9         -3.8126  -19.0350  -47.0596 C.ar      23 UNK        -0.0193 
     10 C10        -4.4430  -19.8097  -48.0375 C.ar      23 UNK        -0.1150 
     11 C11        -5.4927  -20.6663  -47.6977 C.ar      23 UNK        -0.0193 
     12 C12        -5.8934  -20.7647  -46.3623 C.ar      23 UNK        -0.1150 
     13 C13        -5.2503  -20.0169  -45.3697 C.ar      23 UNK        -0.0193 
     14 C14        -4.2124  -19.1502  -45.7254 C.ar      23 UNK        -0.1150 
     15 C15        -5.6982  -20.1263  -43.9194 C.3       23 UNK        -0.0205 
     16 S16        -5.3310  -21.7615  -43.2089 S.3       23 UNK        -0.2404 
     17 C17        -3.5234  -21.6726  -42.9345 C.3       23 UNK        -0.0398 
     18 CA         -2.6126  -22.0882  -44.1220 C.3       11 UNK         0.1400 
     19 N          -1.2374  -22.3127  -43.6788 N.am      11 UNK        -0.5000 
     20 C          -0.1879  -22.5155  -44.4853 C.2       10 UNK         0.5000 
     21 O          -0.2574  -22.4437  -45.7141 O.2       10 UNK        -0.5000 
     22 CA          1.1472  -22.8681  -43.7973 C.3       10 UNK         0.1400 
     23 CB          2.3343  -22.8846  -44.7770 C.3       10 UNK        -0.1800 
     24 N           1.4445  -21.9526  -42.6942 N.am      10 UNK        -0.5000 
     25 C           0.9661  -22.0556  -41.4469 C.2       9 UNK         0.5000 
     26 O           0.2316  -22.9712  -41.0747 O.2       9 UNK        -0.5000 
     27 CA          1.3052  -20.9090  -40.4792 C.3       9 UNK         0.1400 
     28 CB          2.7877  -20.9389  -40.0754 C.3       9 UNK        -0.1800 
     29 N           0.9818  -19.6075  -41.0599 N.am      9 UNK        -0.5000 
     30 C          -0.2602  -19.1583  -41.2951 C.2       8 UNK         0.5000 
     31 O          -1.2812  -19.7572  -40.9577 O.2       8 UNK        -0.5000 
     32 CA         -0.3777  -17.8363  -42.0755 C.3       8 UNK         0.1400 
     33 CB         -0.1444  -16.6191  -41.1665 C.3       8 UNK        -0.1800 
     34 N           0.5653  -17.8140  -43.1931 N.am      8 UNK        -0.5000 
     35 C           0.3713  -18.4814  -44.3392 C.2       7 UNK         0.5000 
     36 O          -0.6881  -19.0371  -44.6264 O.2       7 UNK        -0.5000 
     37 CA          1.5543  -18.5691  -45.3217 C.3       7 UNK         0.1400 
     38 CB          1.2664  -17.7894  -46.6099 C.3       7 UNK        -0.1800 
     39 N           2.8273  -18.1168  -44.7515 N.am      7 UNK        -0.5000 
     40 C           3.5962  -18.8740  -43.9593 C.2       6 UNK         0.5000 
     41 O           3.2896  -20.0085  -43.5982 O.2       6 UNK        -0.5000 
     42 CA          4.8959  -18.2428  -43.4303 C.3       6 UNK         0.1400 
     43 CB          5.9036  -18.0058  -44.5662 C.3       6 UNK        -0.1800 
     44 N           4.6899  -16.9997  -42.6823 N.am      6 UNK        -0.5000 
     45 C           3.8897  -16.8573  -41.6158 C.2       5 UNK         0.5000 
     46 O           3.1519  -17.7465  -41.1957 O.2       5 UNK        -0.5000 
     47 CA          3.8924  -15.4978  -40.8907 C.3       5 UNK         0.1400 
     48 CB          4.5601  -15.6382  -39.5144 C.3       5 UNK        -0.1800 
     49 N           4.5774  -14.4361  -41.6337 N.am      5 UNK        -0.5000 
     50 C           4.0992  -13.7034  -42.6489 C.2       4 UNK         0.5000 
     51 O           4.7933  -12.8377  -43.1839 O.2       4 UNK        -0.5000 
     52 CA          2.6465  -13.9109  -43.1410 C.3       4 UNK         0.1400 
     53 CB          1.6735  -13.0138  -42.3598 C.3       4 UNK        -0.1800 
     54 N           2.5297  -13.5925  -44.5605 N.am      4 UNK        -0.5000 
     55 C           3.0336  -14.3323  -45.5566 C.2       3 UNK         0.5000 
     56 O           3.5547  -15.4356  -45.3830 O.2       3 UNK        -0.5000 
     57 CA          2.9239  -13.7305  -46.9693 C.3       3 UNK         0.1400 
     58 CB          2.9673  -14.7828  -48.0927 C.3       3 UNK        -0.1800 
     59 N           1.6950  -12.9498  -47.0854 N.am      3 UNK        -0.5000 
     60 C           1.5762  -11.7435  -47.6545 C.2       2 UNK         0.5000 
     61 O           2.5269  -11.1233  -48.1339 O.2       2 UNK        -0.5000 
     62 CA          0.1603  -11.1184  -47.6739 C.3       2 UNK         0.1400 
     63 CB         -0.0659  -10.1887  -48.8847 C.3       2 UNK        -0.1800 
     64 N          -0.9194  -12.1088  -47.5610 N.am      2 UNK        -0.5000 
     65 C          -1.1885  -13.1162  -48.4075 C.2       1 UNK         0.5000 
     66 O          -0.6136  -13.2696  -49.4862 O.2       1 UNK        -0.5000 
     67 C          -3.1013  -23.3313  -44.8963 C.2       11 UNK         0.5000 
     68 O          -2.9882  -24.4501  -44.3894 O.2       11 UNK        -0.5000 
     69 N          -3.5807  -23.0982  -46.1251 N.am      12 UNK        -0.5000 
     70 CA         -3.9946  -24.0948  -47.1158 C.3       12 UNK         0.1400 
     71 CB         -5.1922  -24.9253  -46.6097 C.3       12 UNK        -0.1800 
     72 C          -2.8334  -24.9621  -47.6511 C.2       12 UNK         0.5000 
     73 O          -3.0871  -26.0383  -48.1943 O.2       12 UNK        -0.5000 
     74 N          -1.5897  -24.4763  -47.5246 N.am      13 UNK        -0.5000 
     75 CA         -0.3791  -25.1676  -47.9698 C.3       13 UNK         0.1400 
     76 CB          0.2152  -25.9455  -46.7810 C.3       13 UNK        -0.1800 
     77 C           0.6561  -24.2231  -48.6133 C.2       13 UNK         0.5000 
     78 O           1.7449  -24.6861  -48.9576 O.2       13 UNK        -0.5000 
     79 N           0.3283  -22.9347  -48.7798 N.am      14 UNK        -0.5000 
     80 CA          1.2174  -21.9147  -49.3294 C.3       14 UNK         0.1400 
     81 CB          2.1707  -21.4172  -48.2279 C.3       14 UNK        -0.1800 
     82 C           0.4057  -20.7483  -49.9105 C.2       14 UNK         0.5000 
     83 O          -0.7915  -20.6250  -49.6334 O.2       14 UNK        -0.5000 
     84 N           1.0963  -19.9054  -50.6925 N.am      15 UNK        -0.5000 
     85 CA          0.6154  -18.6732  -51.3235 C.3       15 UNK         0.1400 
     86 CB          0.4440  -17.5658  -50.2621 C.3       15 UNK        -0.1800 
     87 C          -0.6332  -18.9208  -52.1923 C.2       15 UNK         0.5000 
     88 O          -0.5413  -19.6694  -53.1680 O.2       15 UNK        -0.5000 
     89 N          -1.7784  -18.3317  -51.8168 N.am      16 UNK        -0.5000 
     90 CA         -3.0627  -18.4507  -52.5124 C.3       16 UNK         0.1400 
     91 CB         -4.1151  -17.5842  -51.8083 C.3       16 UNK        -0.1800 
     92 C          -3.5769  -19.8941  -52.6436 C.2       16 UNK         0.5000 
     93 O          -4.3086  -20.1780  -53.5912 O.2       16 UNK        -0.5000 
     94 N          -3.1634  -20.7884  -51.7333 N.am      17 UNK        -0.5000 
     95 CA         -3.4743  -22.2180  -51.7811 C.3       17 UNK         0.1400 
     96 CB         -2.9640  -22.8867  -50.4992 C.3       17 UNK        -0.1800 
     97 C          -2.8722  -22.9267  -53.0082 C.2       17 UNK         0.5000 
     98 O          -3.4664  -23.8836  -53.5028 O.2       17 UNK        -0.5000 
     99 N          -1.7157  -22.4398  -53.4745 N.am      18 UNK        -0.5000 
    100 CA        -1.0278  -22.9363  -54.6615 C.3       18 UNK         0.1400 
    101 CB         0.4859  -22.9486  -54.3938 C.3       18 UNK        -0.1800 
    102 C         -1.3544  -22.0682  -55.8862 C.2       18 UNK         0.5000 
    103 O         -1.6082  -22.6083  -56.9630 O.2       18 UNK        -0.5000 
    104 N         -1.3333  -20.7407  -55.7040 N.am      19 UNK        -0.5000 
    105 CA        -1.4606  -19.7598  -56.7811 C.3       19 UNK         0.1400 
    106 CB        -0.9367  -18.4035  -56.2844 C.3       19 UNK        -0.1800 
    107 C         -2.8876  -19.6099  -57.3379 C.2       19 UNK         0.5000 
    108 O         -3.0326  -19.3004  -58.5215 O.2       19 UNK        -0.5000 
    109 N         -3.9065  -19.7994  -56.4892 N.am      20 UNK        -0.5000 
    110 CA        -5.3090  -19.5261  -56.8161 C.3       20 UNK         0.1400 
    111 CB        -5.6857  -18.1518  -56.2309 C.3       20 UNK        -0.1800 
    112 C         -6.2676  -20.6231  -56.3195 C.2       20 UNK         0.5000 
    113 O         -7.4816  -20.4198  -56.3714 O.2       20 UNK        -0.5000 
    114 N         -5.7301  -21.7419  -55.8068 N.am      21 UNK        -0.5000 
    115 CA        -6.4566  -22.8541  -55.1729 C.3       21 UNK         0.1400 
    116 CB        -7.2592  -23.6445  -56.2272 C.3       21 UNK        -0.1800 
    117 C         -7.3237  -22.4115  -53.9689 C.2       21 UNK         0.5000 
    118 O         -8.3752  -22.9992  -53.7105 O.2       21 UNK        -0.5000 
    119 N         -6.8716  -21.3600  -53.2727 N.am      22 UNK        -0.5000 
    120 CA        -7.5858  -20.6232  -52.2190 C.3       22 UNK         0.1400 
    121 C         -8.7933  -19.7675  -52.7204 C.2       22 UNK         0.5000 
    122 N         -8.9818  -19.5629  -54.0192 N.am      22 UNK        -0.7600 
    123 O         -9.5664  -19.2495  -51.9197 O.2       22 UNK        -0.5000 
    124 C124       -7.9299  -21.5071  -50.9832 C.3       23 UNK        -0.0398 
    125 S125       -7.6605  -20.6201  -49.4090 S.3       23 UNK        -0.2404 
    126 C126       -6.1900  -21.4781  -48.7769 C.3       23 UNK        -0.0205 
    127 H127       -1.4671  -14.0268  -43.4971 H         1 UNK         0.0600 
    128 H128       -1.7945  -15.7337  -43.8162 H         1 UNK         0.0600 
    129 H129       -3.0677  -14.5331  -44.0465 H         1 UNK         0.0600 
    130 H130       -3.4067  -14.0606  -46.1895 H         1 UNK         0.3000 
    131 H131       -3.2016  -13.7396  -48.3589 H         1 UNK         0.0600 
    132 H132       -1.1351  -15.9915  -48.2005 H         1 UNK         0.0800 
    133 H133       -1.9101  -15.4566  -49.6736 H         1 UNK         0.0800 
    134 H134       -2.0076  -18.5436  -48.1035 H         1 UNK         0.0800 
    135 H135       -2.1854  -17.6931  -46.5809 H         1 UNK         0.0800 
    136 H136       -4.1357  -19.7183  -49.0695 H         1 UNK         0.1150 
    137 H137       -6.7052  -21.4262  -46.0931 H         1 UNK         0.1150 
    138 H138       -3.7219  -18.5556  -44.9671 H         1 UNK         0.1150 
    139 H139       -5.2427  -19.3481  -43.3050 H         1 UNK         0.0800 
    140 H140       -6.7751  -19.9591  -43.8721 H         1 UNK         0.0800 
    141 H141       -3.3151  -22.3149  -42.0773 H         1 UNK         0.0800 
    142 H142       -3.2631  -20.6637  -42.6121 H         1 UNK         0.0800 
    143 H143       -2.5798  -21.2476  -44.8175 H         1 UNK         0.0600 
    144 H144       -1.0935  -22.4271  -42.6835 H         1 UNK         0.3000 
    145 H145        1.0406  -23.8796  -43.4000 H         1 UNK         0.0600 
    146 H146        3.2613  -23.1504  -44.2691 H         1 UNK         0.0600 
    147 H147        2.4794  -21.9135  -45.2484 H         1 UNK         0.0600 
    148 H148        2.1806  -23.6126  -45.5739 H         1 UNK         0.0600 
    149 H149        2.0448  -21.1634  -42.9273 H         1 UNK         0.3000 
    150 H150        0.7051  -21.0400  -39.5764 H         1 UNK         0.0600 
    151 H151        3.0537  -21.9004  -39.6348 H         1 UNK         0.0600 
    152 H152        3.0079  -20.1687  -39.3359 H         1 UNK         0.0600 
    153 H153        3.4449  -20.7742  -40.9300 H         1 UNK         0.0600 
    154 H154        1.7730  -19.0214  -41.3128 H         1 UNK         0.3000 
    155 H155       -1.3939  -17.7682  -42.4698 H         1 UNK         0.0600 
    156 H156       -0.9122  -16.5645  -40.3940 H         1 UNK         0.0600 
    157 H157       -0.1852  -15.6879  -41.7315 H         1 UNK         0.0600 
    158 H158        0.8188  -16.6634  -40.6601 H         1 UNK         0.0600 
    159 H159        1.4778  -17.4207  -43.0213 H         1 UNK         0.3000 
    160 H160        1.6518  -19.6215  -45.5896 H         1 UNK         0.0600 
    161 H161        0.3542  -18.1463  -47.0882 H         1 UNK         0.0600 
    162 H162        2.0774  -17.9028  -47.3291 H         1 UNK         0.0600 
    163 H163        1.1400  -16.7281  -46.4062 H         1 UNK         0.0600 
    164 H164        3.1336  -17.1743  -44.9901 H         1 UNK         0.3000 
    165 H165        5.3406  -18.9606  -42.7380 H         1 UNK         0.0600 
    166 H166        6.8688  -17.6840  -44.1750 H         1 UNK         0.0600 
    167 H167        6.0738  -18.9213  -45.1344 H         1 UNK         0.0600 
    168 H168        5.5570  -17.2455  -45.2665 H         1 UNK         0.0600 
    169 H169        5.2391  -16.2053  -42.9764 H         1 UNK         0.3000 
    170 H170        2.8539  -15.2127  -40.7199 H         1 UNK         0.0600 
    171 H171        5.6078  -15.9287  -39.6017 H         1 UNK         0.0600 
    172 H172        4.5162  -14.7021  -38.9572 H         1 UNK         0.0600 
    173 H173        4.0590  -16.3961  -38.9104 H         1 UNK         0.0600 
    174 H174        5.5244  -14.2537  -41.3351 H         1 UNK         0.3000 
    175 H175        2.3422  -14.9501  -43.0172 H         1 UNK         0.0600 
    176 H176        1.9178  -11.9574  -42.4787 H         1 UNK         0.0600 
    177 H177        0.6476  -13.1592  -42.6971 H         1 UNK         0.0600 
    178 H178        1.6968  -13.2348  -41.2926 H         1 UNK         0.0600 
    179 H179        2.1442  -12.6892  -44.7901 H         1 UNK         0.3000 
    180 H180        3.7934  -13.0797  -47.0796 H         1 UNK         0.0600 
    181 H181        3.0177  -14.3040  -49.0705 H         1 UNK         0.0600 
    182 H182        2.0798  -15.4141  -48.0839 H         1 UNK         0.0600 
    183 H183        3.8408  -15.4297  -48.0040 H         1 UNK         0.0600 
    184 H184        0.8676  -13.4035  -46.7054 H         1 UNK         0.3000 
    185 H185        0.0967  -10.5032  -46.7754 H         1 UNK         0.0600 
    186 H186        0.6369   -9.3549  -48.8745 H         1 UNK         0.0600 
    187 H187        0.0670  -10.7136  -49.8310 H         1 UNK         0.0600 
    188 H188       -1.0696   -9.7641  -48.8741 H         1 UNK         0.0600 
    189 H189       -1.4501  -12.0785  -46.7017 H         1 UNK         0.3000 
    190 H190       -3.6381  -22.1369  -46.4339 H         1 UNK         0.3000 
    191 H191       -4.3486  -23.5266  -47.9732 H         1 UNK         0.0600 
    192 H192       -4.9061  -25.6062  -45.8079 H         1 UNK         0.0600 
    193 H193       -5.6162  -25.5293  -47.4126 H         1 UNK         0.0600 
    194 H194       -5.9880  -24.2809  -46.2357 H         1 UNK         0.0600 
    195 H195       -1.4380  -23.6162  -47.0081 H         1 UNK         0.3000 
    196 H196       -0.6330  -25.8863  -48.7515 H         1 UNK         0.0600 
    197 H197       -0.4908  -26.6861  -46.4052 H         1 UNK         0.0600 
    198 H198        0.4692  -25.2809  -45.9557 H         1 UNK         0.0600 
    199 H199        1.1215  -26.4804  -47.0669 H         1 UNK         0.0600 
    200 H200       -0.5881  -22.5962  -48.5209 H         1 UNK         0.3000 
    201 H201        1.7990  -22.3480  -50.1459 H         1 UNK         0.0600 
    202 H202        2.8027  -22.2232  -47.8551 H         1 UNK         0.0600 
    203 H203        1.6098  -21.0162  -47.3849 H         1 UNK         0.0600 
    204 H204        2.8322  -20.6297  -48.5901 H         1 UNK         0.0600 
    205 H205        2.0642  -20.1245  -50.8807 H         1 UNK         0.3000 
    206 H206        1.3977  -18.3496  -52.0115 H         1 UNK         0.0600 
    207 H207        1.3866  -17.3721  -49.7503 H         1 UNK         0.0600 
    208 H208        0.1310  -16.6241  -50.7150 H         1 UNK         0.0600 
    209 H209       -0.2880  -17.8396  -49.5046 H         1 UNK         0.0600 
    210 H210       -1.7728  -17.7663  -50.9815 H         1 UNK         0.3000 
    211 H211       -2.9253  -18.0619  -53.5225 H         1 UNK         0.0600 
    212 H212       -3.7828  -16.5504  -51.7128 H         1 UNK         0.0600 
    213 H213       -4.3424  -17.9607  -50.8110 H         1 UNK         0.0600 
    214 H214       -5.0497  -17.5738  -52.3710 H         1 UNK         0.0600 
    215 H215       -2.5236  -20.4879  -51.0066 H         1 UNK         0.3000 
    216 H216       -4.5598  -22.3250  -51.8222 H         1 UNK         0.0600 
    217 H217       -3.2256  -22.3109  -49.6128 H         1 UNK         0.0600 
    218 H218       -1.8798  -22.9966  -50.5107 H         1 UNK         0.0600 
    219 H219       -3.3903  -23.8846  -50.3935 H         1 UNK         0.0600 
    220 H220       -1.3209  -21.6165  -53.0359 H         1 UNK         0.3000 
    221 H221       -1.3379  -23.9604  -54.8801 H         1 UNK         0.0600 
    222 H222        0.8659  -21.9531  -54.1605 H         1 UNK         0.0600 
    223 H223        0.7304  -23.6029  -53.5568 H         1 UNK         0.0600 
    224 H224        1.0332  -23.3144  -55.2635 H         1 UNK         0.0600 
    225 H225       -1.0852  -20.3740  -54.7884 H         1 UNK         0.3000 
    226 H226       -0.8215  -20.0811  -57.6065 H         1 UNK         0.0600 
    227 H227        0.0991  -18.4783  -55.9525 H         1 UNK         0.0600 
    228 H228       -0.9703  -17.6562  -57.0783 H         1 UNK         0.0600 
    229 H229       -1.5275  -18.0235  -55.4512 H         1 UNK         0.0600 
    230 H230       -3.7168  -20.0315  -55.5203 H         1 UNK         0.3000 
    231 H231       -5.4462  -19.4863  -57.8983 H         1 UNK         0.0600 
    232 H232       -6.7079  -17.8751  -56.4920 H         1 UNK         0.0600 
    233 H233       -5.0330  -17.3675  -56.6145 H         1 UNK         0.0600 
    234 H234       -5.6111  -18.1470  -55.1427 H         1 UNK         0.0600 
    235 H235       -4.7235  -21.8176  -55.8017 H         1 UNK         0.3000 
    236 H236       -5.7016  -23.5275  -54.7693 H         1 UNK         0.0600 
    237 H237       -8.0825  -23.0570  -56.6344 H         1 UNK         0.0600 
    238 H238       -6.6231  -23.9514  -57.0574 H         1 UNK         0.0600 
    239 H239       -7.6863  -24.5506  -55.7960 H         1 UNK         0.0600 
    240 H240       -5.9880  -20.9453  -53.5597 H         1 UNK         0.3000 
    241 H241       -6.8518  -19.8811  -51.9027 H         1 UNK         0.0600 
    242 H242       -8.3751  -19.9734  -54.7223 H         1 UNK         0.3800 
    243 H243       -9.7630  -18.9996  -54.3146 H         1 UNK         0.3800 
    244 H244       -7.3213  -22.4121  -50.9776 H         1 UNK         0.0800 
    245 H245       -8.9618  -21.8598  -51.0239 H         1 UNK         0.0800 
    246 H246       -5.5012  -21.6615  -49.6006 H         1 UNK         0.0800 
    247 H247       -6.4845  -22.4541  -48.3887 H         1 UNK         0.0800 
@<TRIPOS>BOND
     1    1    2 1    
     2    1  127 1    
     3    1  128 1    
     4    1  129 1    
     5    2    3 2    
     6    2    4 am   BACKBONE|DICT|INTERRES
     7    4    5 1    
     8    4  130 1    
     9    5    6 1    
    10    5   65 1    
    11    5  131 1    
    12    6    7 1    
    13    6  132 1    
    14    6  133 1    
    15    7    8 1    
    16    8    9 1    
    17    8  134 1    
    18    8  135 1    
    19    9   10 ar   
    20    9   14 ar   
    21   10   11 ar   
    22   10  136 1    
    23   11   12 ar   
    24   11  126 1    
    25   12   13 ar   
    26   12  137 1    
    27   13   14 ar   
    28   13   15 1    
    29   14  138 1    
    30   15   16 1    
    31   15  139 1    
    32   15  140 1    
    33   16   17 1    
    34   17   18 1    
    35   17  141 1    
    36   17  142 1    
    37   18   19 1    
    38   18   67 1    
    39   18  143 1    
    40   19   20 am   BACKBONE|DICT|INTERRES
    41   19  144 1    
    42   20   21 2    
    43   20   22 1    
    44   22   23 1    
    45   22   24 1    
    46   22  145 1    
    47   23  146 1    
    48   23  147 1    
    49   23  148 1    
    50   24   25 am   BACKBONE|DICT|INTERRES
    51   24  149 1    
    52   25   26 2    
    53   25   27 1    
    54   27   28 1    
    55   27   29 1    
    56   27  150 1    
    57   28  151 1    
    58   28  152 1    
    59   28  153 1    
    60   29   30 am   BACKBONE|DICT|INTERRES
    61   29  154 1    
    62   30   31 2    
    63   30   32 1    
    64   32   33 1    
    65   32   34 1    
    66   32  155 1    
    67   33  156 1    
    68   33  157 1    
    69   33  158 1    
    70   34   35 am   BACKBONE|DICT|INTERRES
    71   34  159 1    
    72   35   36 2    
    73   35   37 1    
    74   37   38 1    
    75   37   39 1    
    76   37  160 1    
    77   38  161 1    
    78   38  162 1    
    79   38  163 1    
    80   39   40 am   BACKBONE|DICT|INTERRES
    81   39  164 1    
    82   40   41 2    
    83   40   42 1    
    84   42   43 1    
    85   42   44 1    
    86   42  165 1    
    87   43  166 1    
    88   43  167 1    
    89   43  168 1    
    90   44   45 am   BACKBONE|DICT|INTERRES
    91   44  169 1    
    92   45   46 2    
    93   45   47 1    
    94   47   48 1    
    95   47   49 1    
    96   47  170 1    
    97   48  171 1    
    98   48  172 1    
    99   48  173 1    
   100   49   50 am   BACKBONE|DICT|INTERRES
   101   49  174 1    
   102   50   51 2    
   103   50   52 1    
   104   52   53 1    
   105   52   54 1    
   106   52  175 1    
   107   53  176 1    
   108   53  177 1    
   109   53  178 1    
   110   54   55 am   BACKBONE|DICT|INTERRES
   111   54  179 1    
   112   55   56 2    
   113   55   57 1    
   114   57   58 1    
   115   57   59 1    
   116   57  180 1    
   117   58  181 1    
   118   58  182 1    
   119   58  183 1    
   120   59   60 am   BACKBONE|DICT|INTERRES
   121   59  184 1    
   122   60   61 2    
   123   60   62 1    
   124   62   63 1    
   125   62   64 1    
   126   62  185 1    
   127   63  186 1    
   128   63  187 1    
   129   63  188 1    
   130   64   65 am   BACKBONE|DICT|INTERRES
   131   64  189 1    
   132   65   66 2    
   133   67   68 2    
   134   67   69 am   BACKBONE|DICT|INTERRES
   135   69   70 1    
   136   69  190 1    
   137   70   71 1    
   138   70   72 1    
   139   70  191 1    
   140   71  192 1    
   141   71  193 1    
   142   71  194 1    
   143   72   73 2    
   144   72   74 am   BACKBONE|DICT|INTERRES
   145   74   75 1    
   146   74  195 1    
   147   75   76 1    
   148   75   77 1    
   149   75  196 1    
   150   76  197 1    
   151   76  198 1    
   152   76  199 1    
   153   77   78 2    
   154   77   79 am   BACKBONE|DICT|INTERRES
   155   79   80 1    
   156   79  200 1    
   157   80   81 1    
   158   80   82 1    
   159   80  201 1    
   160   81  202 1    
   161   81  203 1    
   162   81  204 1    
   163   82   83 2    
   164   82   84 am   BACKBONE|DICT|INTERRES
   165   84   85 1    
   166   84  205 1    
   167   85   86 1    
   168   85   87 1    
   169   85  206 1    
   170   86  207 1    
   171   86  208 1    
   172   86  209 1    
   173   87   88 2    
   174   87   89 am   BACKBONE|DICT|INTERRES
   175   89   90 1    
   176   89  210 1    
   177   90   91 1    
   178   90   92 1    
   179   90  211 1    
   180   91  212 1    
   181   91  213 1    
   182   91  214 1    
   183   92   93 2    
   184   92   94 am   BACKBONE|DICT|INTERRES
   185   94   95 1    
   186   94  215 1    
   187   95   96 1    
   188   95   97 1    
   189   95  216 1    
   190   96  217 1    
   191   96  218 1    
   192   96  219 1    
   193   97   98 2    
   194   97   99 am   BACKBONE|DICT|INTERRES
   195   99  100 1    
   196   99  220 1    
   197  100  101 1    
   198  100  102 1    
   199  100  221 1    
   200  101  222 1    
   201  101  223 1    
   202  101  224 1    
   203  102  103 2    
   204  102  104 am   BACKBONE|DICT|INTERRES
   205  104  105 1    
   206  104  225 1    
   207  105  106 1    
   208  105  107 1    
   209  105  226 1    
   210  106  227 1    
   211  106  228 1    
   212  106  229 1    
   213  107  108 2    
   214  107  109 am   BACKBONE|DICT|INTERRES
   215  109  110 1    
   216  109  230 1    
   217  110  111 1    
   218  110  112 1    
   219  110  231 1    
   220  111  232 1    
   221  111  233 1    
   222  111  234 1    
   223  112  113 2    
   224  112  114 am   BACKBONE|DICT|INTERRES
   225  114  115 1    
   226  114  235 1    
   227  115  116 1    
   228  115  117 1    
   229  115  236 1    
   230  116  237 1    
   231  116  238 1    
   232  116  239 1    
   233  117  118 2    
   234  117  119 am   BACKBONE|DICT|INTERRES
   235  119  120 1    
   236  119  240 1    
   237  120  121 1    
   238  120  124 1    
   239  120  241 1    
   240  121  122 am   BACKBONE|DICT|INTERRES
   241  121  123 2    
   242  122  242 1    
   243  122  243 1    
   244  124  125 1    
   245  124  244 1    
   246  124  245 1    
   247  125  126 1    
   248  126  246 1    
   249  126  247 1    
@<TRIPOS>SUBSTRUCTURE
     1 UNK         1 GROUP             0       ****    0 ROOT    
