@<TRIPOS>MOLECULE
3R540
247   249    1
SMALL
USER_CHARGES


@<TRIPOS>ATOM
      1 CA         -2.1904  -14.5272  -53.3818 C.3       0 UNK        -0.1800 
      2 C          -1.3350  -13.7076  -52.4296 C.2       0 UNK         0.5000 
      3 O          -1.2851  -12.4833  -52.5502 O.2       0 UNK        -0.5000 
      4 N          -0.6618  -14.3760  -51.4849 N.am      1 UNK        -0.5000 
      5 CA          0.2595  -13.7582  -50.5200 C.3       1 UNK         0.1400 
      6 C6          1.2163  -14.7861  -49.8618 C.3       23 UNK        -0.0398 
      7 S7          1.9401  -15.9924  -51.0154 S.3       23 UNK        -0.2404 
      8 C8          3.0477  -16.9120  -49.8942 C.3       23 UNK        -0.0205 
      9 C9          3.4271  -18.2855  -50.4392 C.ar      23 UNK        -0.0193 
     10 C10         3.7568  -18.4564  -51.7869 C.ar      23 UNK        -0.1150 
     11 C11         4.0524  -19.7218  -52.2943 C.ar      23 UNK        -0.0193 
     12 C12         4.0662  -20.8197  -51.4303 C.ar      23 UNK        -0.1150 
     13 C13         3.7854  -20.6677  -50.0689 C.ar      23 UNK        -0.0193 
     14 C14         3.4603  -19.3919  -49.5839 C.ar      23 UNK        -0.1150 
     15 C15         3.8850  -21.9040  -49.1703 C.3       23 UNK        -0.0205 
     16 S16         3.1080  -21.7622  -47.5247 S.3       23 UNK        -0.2404 
     17 C17         1.3380  -21.7302  -47.9595 C.3       23 UNK        -0.0398 
     18 CA          0.5144  -22.7619  -47.1525 C.3       11 UNK         0.1400 
     19 N           0.6280  -22.5417  -45.7064 N.am      11 UNK        -0.5000 
     20 C           0.0417  -23.2462  -44.7302 C.2       10 UNK         0.5000 
     21 O          -0.6745  -24.2257  -44.9413 O.2       10 UNK        -0.5000 
     22 CA          0.2134  -22.7336  -43.2849 C.3       10 UNK         0.1400 
     23 CB          0.5209  -23.8744  -42.2945 C.3       10 UNK        -0.1800 
     24 N           1.1588  -21.6177  -43.1407 N.am      10 UNK        -0.5000 
     25 C           2.4948  -21.6273  -43.2644 C.2       9 UNK         0.5000 
     26 O           3.1538  -22.6376  -43.5088 O.2       9 UNK        -0.5000 
     27 CA          3.2224  -20.2732  -43.1179 C.3       9 UNK         0.1400 
     28 CB          3.8072  -19.8327  -44.4689 C.3       9 UNK        -0.1800 
     29 N           2.3621  -19.1998  -42.6120 N.am      9 UNK        -0.5000 
     30 C           2.0212  -19.0281  -41.3270 C.2       8 UNK         0.5000 
     31 O           2.4453  -19.7282  -40.4074 O.2       8 UNK        -0.5000 
     32 CA          0.9945  -17.9167  -41.0295 C.3       8 UNK         0.1400 
     33 CB          1.6692  -16.5375  -40.9899 C.3       8 UNK        -0.1800 
     34 N          -0.1011  -17.8944  -42.0010 N.am      8 UNK        -0.5000 
     35 C          -0.9970  -18.8787  -42.1668 C.2       7 UNK         0.5000 
     36 O          -1.0405  -19.8890  -41.4662 O.2       7 UNK        -0.5000 
     37 CA         -1.9623  -18.7515  -43.3555 C.3       7 UNK         0.1400 
     38 CB         -3.2867  -18.0892  -42.9458 C.3       7 UNK        -0.1800 
     39 N          -1.3370  -18.0280  -44.4683 N.am      7 UNK        -0.5000 
     40 C          -0.5725  -18.6386  -45.3831 C.2       6 UNK         0.5000 
     41 O          -0.3937  -19.8549  -45.4044 O.2       6 UNK        -0.5000 
     42 CA          0.1043  -17.7835  -46.4642 C.3       6 UNK         0.1400 
     43 CB         -0.7897  -17.6925  -47.7074 C.3       6 UNK        -0.1800 
     44 N           0.4971  -16.4427  -46.0283 N.am      6 UNK        -0.5000 
     45 C           1.5240  -16.2053  -45.2000 C.2       5 UNK         0.5000 
     46 O           2.1056  -17.0906  -44.5749 O.2       5 UNK        -0.5000 
     47 CA          1.9828  -14.7476  -45.0471 C.3       5 UNK         0.1400 
     48 CB          2.4884  -14.1809  -46.3821 C.3       5 UNK        -0.1800 
     49 N           0.8852  -13.9218  -44.5636 N.am      5 UNK        -0.5000 
     50 C           0.8190  -13.3678  -43.3463 C.2       4 UNK         0.5000 
     51 O           1.7398  -13.3914  -42.5291 O.2       4 UNK        -0.5000 
     52 CA         -0.5091  -12.6820  -42.9591 C.3       4 UNK         0.1400 
     53 CB         -0.3890  -11.1577  -43.1100 C.3       4 UNK        -0.1800 
     54 N          -1.6734  -13.1401  -43.7230 N.am      4 UNK        -0.5000 
     55 C          -2.1094  -14.4053  -43.7923 C.2       3 UNK         0.5000 
     56 O          -1.5726  -15.3481  -43.2112 O.2       3 UNK        -0.5000 
     57 CA         -3.2889  -14.6788  -44.7426 C.3       3 UNK         0.1400 
     58 CB         -4.6256  -14.5468  -43.9996 C.3       3 UNK        -0.1800 
     59 N          -3.3092  -13.8274  -45.9372 N.am      3 UNK        -0.5000 
     60 C          -2.3306  -13.7530  -46.8498 C.2       2 UNK         0.5000 
     61 O          -1.2463  -14.3325  -46.7311 O.2       2 UNK        -0.5000 
     62 CA         -2.6499  -12.9208  -48.1063 C.3       2 UNK         0.1400 
     63 CB         -2.6484  -11.4082  -47.8070 C.3       2 UNK        -0.1800 
     64 N          -1.7743  -13.2733  -49.2285 N.am      2 UNK        -0.5000 
     65 C          -0.4756  -12.9798  -49.4064 C.2       1 UNK         0.5000 
     66 O           0.1601  -12.1775  -48.7217 O.2       1 UNK        -0.5000 
     67 C          -0.9509  -22.7338  -47.6266 C.2       11 UNK         0.5000 
     68 O          -1.3424  -23.5624  -48.4482 O.2       11 UNK        -0.5000 
     69 N          -1.7383  -21.8090  -47.0571 N.am      12 UNK        -0.5000 
     70 CA         -3.1688  -21.6354  -47.3068 C.3       12 UNK         0.1400 
     71 CB         -3.6787  -20.4447  -46.4811 C.3       12 UNK        -0.1800 
     72 C          -4.0086  -22.8858  -46.9927 C.2       12 UNK         0.5000 
     73 O          -4.9802  -23.1485  -47.7028 O.2       12 UNK        -0.5000 
     74 N          -3.6089  -23.6242  -45.9498 N.am      13 UNK        -0.5000 
     75 CA         -4.2359  -24.8712  -45.5249 C.3       13 UNK         0.1400 
     76 CB         -4.0890  -25.0190  -44.0024 C.3       13 UNK        -0.1800 
     77 C          -3.6238  -26.0795  -46.2502 C.2       13 UNK         0.5000 
     78 O          -4.3679  -26.9529  -46.6944 O.2       13 UNK        -0.5000 
     79 N          -2.2881  -26.1032  -46.3712 N.am      14 UNK        -0.5000 
     80 CA         -1.5172  -27.1958  -46.9691 C.3       14 UNK         0.1400 
     81 CB         -0.0190  -26.9570  -46.7295 C.3       14 UNK        -0.1800 
     82 C          -1.8024  -27.4004  -48.4672 C.2       14 UNK         0.5000 
     83 O          -1.9649  -28.5412  -48.9018 O.2       14 UNK        -0.5000 
     84 N          -1.8855  -26.2969  -49.2225 N.am      15 UNK        -0.5000 
     85 CA         -2.2564  -26.3017  -50.6399 C.3       15 UNK         0.1400 
     86 CB         -1.6025  -25.0927  -51.3299 C.3       15 UNK        -0.1800 
     87 C          -3.7831  -26.2689  -50.8474 C.2       15 UNK         0.5000 
     88 O          -4.2383  -26.4652  -51.9744 O.2       15 UNK        -0.5000 
     89 N          -4.5361  -25.9793  -49.7730 N.am      16 UNK        -0.5000 
     90 CA         -5.9832  -25.7291  -49.7277 C.3       16 UNK         0.1400 
     91 CB         -6.7750  -27.0070  -50.0724 C.3       16 UNK        -0.1800 
     92 C          -6.4054  -24.5083  -50.5767 C.2       16 UNK         0.5000 
     93 O          -7.5331  -24.4503  -51.0697 O.2       16 UNK        -0.5000 
     94 N          -5.4759  -23.5579  -50.7396 N.am      17 UNK        -0.5000 
     95 CA         -5.6173  -22.3693  -51.5745 C.3       17 UNK         0.1400 
     96 CB         -4.2175  -21.9044  -52.0028 C.3       17 UNK        -0.1800 
     97 C          -6.3619  -21.2186  -50.8797 C.2       17 UNK         0.5000 
     98 O          -6.7522  -20.2732  -51.5628 O.2       17 UNK        -0.5000 
     99 N          -6.5033  -21.2771  -49.5451 N.am      18 UNK        -0.5000 
    100 CA        -7.1605  -20.2700  -48.6982 C.3       18 UNK         0.1400 
    101 CB        -8.6832  -20.2682  -48.9454 C.3       18 UNK        -0.1800 
    102 C         -6.5288  -18.8630  -48.8249 C.2       18 UNK         0.5000 
    103 O         -7.2356  -17.8558  -48.7795 O.2       18 UNK        -0.5000 
    104 N         -5.1985  -18.8437  -49.0016 N.am      19 UNK        -0.5000 
    105 CA        -4.3167  -17.6831  -49.1733 C.3       19 UNK         0.1400 
    106 CB        -4.4366  -16.6982  -47.9925 C.3       19 UNK        -0.1800 
    107 C         -4.4274  -16.9815  -50.5436 C.2       19 UNK         0.5000 
    108 O         -3.8265  -15.9205  -50.7225 O.2       19 UNK        -0.5000 
    109 N         -5.1374  -17.5956  -51.5023 N.am      20 UNK        -0.5000 
    110 CA        -5.2789  -17.1093  -52.8785 C.3       20 UNK         0.1400 
    111 CB        -6.6228  -17.5928  -53.4474 C.3       20 UNK        -0.1800 
    112 C         -4.1114  -17.5273  -53.7990 C.2       20 UNK         0.5000 
    113 O         -4.1300  -17.1815  -54.9809 O.2       20 UNK        -0.5000 
    114 N         -3.1207  -18.2482  -53.2593 N.am      21 UNK        -0.5000 
    115 CA        -1.8821  -18.6380  -53.9276 C.3       21 UNK         0.1400 
    116 CB        -1.9527  -20.1358  -54.2726 C.3       21 UNK        -0.1800 
    117 C         -0.6991  -18.3547  -52.9774 C.2       21 UNK         0.5000 
    118 O         -0.9152  -18.3143  -51.7645 O.2       21 UNK        -0.5000 
    119 N          0.5356  -18.1940  -53.4730 N.am      22 UNK        -0.5000 
    120 CA         0.9168  -18.0370  -54.8876 C.3       22 UNK         0.1400 
    121 C          0.5782  -16.6150  -55.4141 C.2       22 UNK         0.5000 
    122 N          0.0914  -16.5013  -56.6418 N.am      22 UNK        -0.7600 
    123 O          0.7790  -15.6149  -54.7315 O.2       22 UNK        -0.5000 
    124 C124        2.4156  -18.3454  -55.1270 C.3       23 UNK        -0.0398 
    125 S125        2.8525  -20.0829  -54.7679 S.3       23 UNK        -0.2404 
    126 C126        4.3669  -19.9034  -53.7710 C.3       23 UNK        -0.0205 
    127 H127       -3.2482  -14.3618  -53.1783 H         1 UNK         0.0600 
    128 H128       -1.9870  -14.2440  -54.4145 H         1 UNK         0.0600 
    129 H129       -1.9804  -15.5903  -53.2790 H         1 UNK         0.0600 
    130 H130       -0.7223  -15.3843  -51.4459 H         1 UNK         0.3000 
    131 H131        0.8734  -13.0387  -51.0663 H         1 UNK         0.0600 
    132 H132        2.0391  -14.2590  -49.3766 H         1 UNK         0.0800 
    133 H133        0.7035  -15.3427  -49.0772 H         1 UNK         0.0800 
    134 H134        3.9541  -16.3295  -49.7246 H         1 UNK         0.0800 
    135 H135        2.5571  -17.0204  -48.9253 H         1 UNK         0.0800 
    136 H136        3.7687  -17.6006  -52.4447 H         1 UNK         0.1150 
    137 H137        4.3109  -21.7985  -51.8190 H         1 UNK         0.1150 
    138 H138        3.2396  -19.2465  -48.5368 H         1 UNK         0.1150 
    139 H139        3.4584  -22.7680  -49.6823 H         1 UNK         0.0800 
    140 H140        4.9423  -22.1279  -49.0235 H         1 UNK         0.0800 
    141 H141        1.2294  -21.9135  -49.0304 H         1 UNK         0.0800 
    142 H142        0.9686  -20.7178  -47.7874 H         1 UNK         0.0800 
    143 H143        0.9091  -23.7570  -47.3622 H         1 UNK         0.0600 
    144 H144        1.1403  -21.7162  -45.4322 H         1 UNK         0.3000 
    145 H145       -0.7584  -22.3227  -43.0085 H         1 UNK         0.0600 
    146 H146        0.6225  -23.4965  -41.2772 H         1 UNK         0.0600 
    147 H147       -0.2833  -24.6112  -42.2871 H         1 UNK         0.0600 
    148 H148        1.4392  -24.4021  -42.5525 H         1 UNK         0.0600 
    149 H149        0.7302  -20.7255  -42.9386 H         1 UNK         0.3000 
    150 H150        4.0496  -20.4200  -42.4204 H         1 UNK         0.0600 
    151 H151        4.4857  -20.5866  -44.8700 H         1 UNK         0.0600 
    152 H152        4.3737  -18.9066  -44.3706 H         1 UNK         0.0600 
    153 H153        3.0237  -19.6674  -45.2096 H         1 UNK         0.0600 
    154 H154        2.0376  -18.5248  -43.2999 H         1 UNK         0.3000 
    155 H155        0.5652  -18.1135  -40.0449 H         1 UNK         0.0600 
    156 H156        2.1115  -16.2742  -41.9510 H         1 UNK         0.0600 
    157 H157        2.4658  -16.5141  -40.2454 H         1 UNK         0.0600 
    158 H158        0.9555  -15.7562  -40.7275 H         1 UNK         0.0600 
    159 H159       -0.1663  -17.0812  -42.5987 H         1 UNK         0.3000 
    160 H160       -2.2056  -19.7652  -43.6785 H         1 UNK         0.0600 
    161 H161       -3.9224  -17.9019  -43.8113 H         1 UNK         0.0600 
    162 H162       -3.1352  -17.1469  -42.4222 H         1 UNK         0.0600 
    163 H163       -3.8433  -18.7393  -42.2701 H         1 UNK         0.0600 
    164 H164       -1.3966  -17.0179  -44.4512 H         1 UNK         0.3000 
    165 H165        1.0127  -18.3155  -46.7561 H         1 UNK         0.0600 
    166 H166       -0.2393  -17.3132  -48.5664 H         1 UNK         0.0600 
    167 H167       -1.1713  -18.6739  -47.9922 H         1 UNK         0.0600 
    168 H168       -1.6425  -17.0384  -47.5344 H         1 UNK         0.0600 
    169 H169       -0.0048  -15.6609  -46.4428 H         1 UNK         0.3000 
    170 H170        2.8176  -14.7421  -44.3431 H         1 UNK         0.0600 
    171 H171        3.2174  -14.8457  -46.8475 H         1 UNK         0.0600 
    172 H172        1.6697  -14.0334  -47.0853 H         1 UNK         0.0600 
    173 H173        2.9723  -13.2152  -46.2361 H         1 UNK         0.0600 
    174 H174        0.0696  -13.8684  -45.1627 H         1 UNK         0.3000 
    175 H175       -0.6954  -12.9111  -41.9079 H         1 UNK         0.0600 
    176 H176       -1.2863  -10.6527  -42.7519 H         1 UNK         0.0600 
    177 H177        0.4515  -10.7718  -42.5315 H         1 UNK         0.0600 
    178 H178       -0.2318  -10.8690  -44.1502 H         1 UNK         0.0600 
    179 H179       -2.1639  -12.4401  -44.2596 H         1 UNK         0.3000 
    180 H180       -3.1947  -15.7110  -45.0851 H         1 UNK         0.0600 
    181 H181       -4.8064  -13.5213  -43.6753 H         1 UNK         0.0600 
    182 H182       -4.6457  -15.1802  -43.1118 H         1 UNK         0.0600 
    183 H183       -5.4595  -14.8522  -44.6321 H         1 UNK         0.0600 
    184 H184       -4.1659  -13.3187  -46.1022 H         1 UNK         0.3000 
    185 H185       -3.6551  -13.1974  -48.4283 H         1 UNK         0.0600 
    186 H186       -1.7214  -11.0833  -47.3338 H         1 UNK         0.0600 
    187 H187       -2.7844  -10.8249  -48.7177 H         1 UNK         0.0600 
    188 H188       -3.4616  -11.1446  -47.1302 H         1 UNK         0.0600 
    189 H189       -2.1645  -13.9552  -49.8660 H         1 UNK         0.3000 
    190 H190       -1.3104  -21.1751  -46.3863 H         1 UNK         0.3000 
    191 H191       -3.2956  -21.4097  -48.3671 H         1 UNK         0.0600 
    192 H192       -3.5074  -20.5979  -45.4160 H         1 UNK         0.0600 
    193 H193       -4.7507  -20.2989  -46.6120 H         1 UNK         0.0600 
    194 H194       -3.1856  -19.5175  -46.7699 H         1 UNK         0.0600 
    195 H195       -2.7640  -23.3568  -45.4646 H         1 UNK         0.3000 
    196 H196       -5.3025  -24.8406  -45.7589 H         1 UNK         0.0600 
    197 H197       -4.5601  -25.9386  -43.6529 H         1 UNK         0.0600 
    198 H198       -4.5668  -24.1904  -43.4796 H         1 UNK         0.0600 
    199 H199       -3.0427  -25.0490  -43.6954 H         1 UNK         0.0600 
    200 H200       -1.7450  -25.3570  -45.9431 H         1 UNK         0.3000 
    201 H201       -1.7978  -28.1157  -46.4519 H         1 UNK         0.0600 
    202 H202        0.2038  -26.8821  -45.6650 H         1 UNK         0.0600 
    203 H203        0.3223  -26.0394  -47.2080 H         1 UNK         0.0600 
    204 H204        0.5770  -27.7780  -47.1300 H         1 UNK         0.0600 
    205 H205       -1.7150  -25.3853  -48.8032 H         1 UNK         0.3000 
    206 H206       -1.8750  -27.2083  -51.1143 H         1 UNK         0.0600 
    207 H207       -0.5233  -25.0850  -51.1764 H         1 UNK         0.0600 
    208 H208       -1.7776  -25.1159  -52.4062 H         1 UNK         0.0600 
    209 H209       -2.0011  -24.1489  -50.9566 H         1 UNK         0.0600 
    210 H210       -4.0557  -25.8795  -48.8901 H         1 UNK         0.3000 
    211 H211       -6.2129  -25.4706  -48.6931 H         1 UNK         0.0600 
    212 H212       -6.6539  -27.2908  -51.1180 H         1 UNK         0.0600 
    213 H213       -7.8415  -26.8660  -49.8940 H         1 UNK         0.0600 
    214 H214       -6.4525  -27.8464  -49.4563 H         1 UNK         0.0600 
    215 H215       -4.5939  -23.6800  -50.2647 H         1 UNK         0.3000 
    216 H216       -6.1810  -22.6306  -52.4726 H         1 UNK         0.0600 
    217 H217       -4.2833  -21.0277  -52.6483 H         1 UNK         0.0600 
    218 H218       -3.6992  -22.6816  -52.5650 H         1 UNK         0.0600 
    219 H219       -3.5967  -21.6381  -51.1465 H         1 UNK         0.0600 
    220 H220       -6.1275  -22.0857  -49.0595 H         1 UNK         0.3000 
    221 H221       -6.9974  -20.5846  -47.6666 H         1 UNK         0.0600 
    222 H222       -8.9312  -19.9072  -49.9441 H         1 UNK         0.0600 
    223 H223       -9.1003  -21.2695  -48.8381 H         1 UNK         0.0600 
    224 H224       -9.1960  -19.6257  -48.2287 H         1 UNK         0.0600 
    225 H225       -4.7421  -19.7404  -49.0655 H         1 UNK         0.3000 
    226 H226       -3.3051  -18.0886  -49.1502 H         1 UNK         0.0600 
    227 H227       -4.3018  -17.2030  -47.0360 H         1 UNK         0.0600 
    228 H228       -3.6738  -15.9258  -48.0624 H         1 UNK         0.0600 
    229 H229       -5.4012  -16.1914  -47.9749 H         1 UNK         0.0600 
    230 H230       -5.6200  -18.4606  -51.2868 H         1 UNK         0.3000 
    231 H231       -5.3008  -16.0177  -52.8633 H         1 UNK         0.0600 
    232 H232       -7.4479  -17.3571  -52.7749 H         1 UNK         0.0600 
    233 H233       -6.6238  -18.6693  -53.6188 H         1 UNK         0.0600 
    234 H234       -6.8362  -17.1131  -54.4033 H         1 UNK         0.0600 
    235 H235       -3.1322  -18.4211  -52.2640 H         1 UNK         0.3000 
    236 H236       -1.7717  -18.0585  -54.8437 H         1 UNK         0.0600 
    237 H237       -1.0888  -20.4515  -54.8571 H         1 UNK         0.0600 
    238 H238       -1.9724  -20.7523  -53.3738 H         1 UNK         0.0600 
    239 H239       -2.8422  -20.3661  -54.8593 H         1 UNK         0.0600 
    240 H240        1.2795  -18.0176  -52.8143 H         1 UNK         0.3000 
    241 H241        0.3537  -18.7571  -55.4815 H         1 UNK         0.0600 
    242 H242       -0.0614  -17.3018  -57.2359 H         1 UNK         0.3800 
    243 H243       -0.1172  -15.5811  -56.9973 H         1 UNK         0.3800 
    244 H244        3.0413  -17.6649  -54.5503 H         1 UNK         0.0800 
    245 H245        2.6743  -18.1672  -56.1725 H         1 UNK         0.0800 
    246 H246        4.9663  -19.0695  -54.1393 H         1 UNK         0.0800 
    247 H247        4.9797  -20.7953  -53.9102 H         1 UNK         0.0800 
@<TRIPOS>BOND
     1    1    2 1    
     2    1  127 1    
     3    1  128 1    
     4    1  129 1    
     5    2    3 2    
     6    2    4 am   BACKBONE|DICT|INTERRES
     7    4    5 1    
     8    4  130 1    
     9    5    6 1    
    10    5   65 1    
    11    5  131 1    
    12    6    7 1    
    13    6  132 1    
    14    6  133 1    
    15    7    8 1    
    16    8    9 1    
    17    8  134 1    
    18    8  135 1    
    19    9   10 ar   
    20    9   14 ar   
    21   10   11 ar   
    22   10  136 1    
    23   11   12 ar   
    24   11  126 1    
    25   12   13 ar   
    26   12  137 1    
    27   13   14 ar   
    28   13   15 1    
    29   14  138 1    
    30   15   16 1    
    31   15  139 1    
    32   15  140 1    
    33   16   17 1    
    34   17   18 1    
    35   17  141 1    
    36   17  142 1    
    37   18   19 1    
    38   18   67 1    
    39   18  143 1    
    40   19   20 am   BACKBONE|DICT|INTERRES
    41   19  144 1    
    42   20   21 2    
    43   20   22 1    
    44   22   23 1    
    45   22   24 1    
    46   22  145 1    
    47   23  146 1    
    48   23  147 1    
    49   23  148 1    
    50   24   25 am   BACKBONE|DICT|INTERRES
    51   24  149 1    
    52   25   26 2    
    53   25   27 1    
    54   27   28 1    
    55   27   29 1    
    56   27  150 1    
    57   28  151 1    
    58   28  152 1    
    59   28  153 1    
    60   29   30 am   BACKBONE|DICT|INTERRES
    61   29  154 1    
    62   30   31 2    
    63   30   32 1    
    64   32   33 1    
    65   32   34 1    
    66   32  155 1    
    67   33  156 1    
    68   33  157 1    
    69   33  158 1    
    70   34   35 am   BACKBONE|DICT|INTERRES
    71   34  159 1    
    72   35   36 2    
    73   35   37 1    
    74   37   38 1    
    75   37   39 1    
    76   37  160 1    
    77   38  161 1    
    78   38  162 1    
    79   38  163 1    
    80   39   40 am   BACKBONE|DICT|INTERRES
    81   39  164 1    
    82   40   41 2    
    83   40   42 1    
    84   42   43 1    
    85   42   44 1    
    86   42  165 1    
    87   43  166 1    
    88   43  167 1    
    89   43  168 1    
    90   44   45 am   BACKBONE|DICT|INTERRES
    91   44  169 1    
    92   45   46 2    
    93   45   47 1    
    94   47   48 1    
    95   47   49 1    
    96   47  170 1    
    97   48  171 1    
    98   48  172 1    
    99   48  173 1    
   100   49   50 am   BACKBONE|DICT|INTERRES
   101   49  174 1    
   102   50   51 2    
   103   50   52 1    
   104   52   53 1    
   105   52   54 1    
   106   52  175 1    
   107   53  176 1    
   108   53  177 1    
   109   53  178 1    
   110   54   55 am   BACKBONE|DICT|INTERRES
   111   54  179 1    
   112   55   56 2    
   113   55   57 1    
   114   57   58 1    
   115   57   59 1    
   116   57  180 1    
   117   58  181 1    
   118   58  182 1    
   119   58  183 1    
   120   59   60 am   BACKBONE|DICT|INTERRES
   121   59  184 1    
   122   60   61 2    
   123   60   62 1    
   124   62   63 1    
   125   62   64 1    
   126   62  185 1    
   127   63  186 1    
   128   63  187 1    
   129   63  188 1    
   130   64   65 am   BACKBONE|DICT|INTERRES
   131   64  189 1    
   132   65   66 2    
   133   67   68 2    
   134   67   69 am   BACKBONE|DICT|INTERRES
   135   69   70 1    
   136   69  190 1    
   137   70   71 1    
   138   70   72 1    
   139   70  191 1    
   140   71  192 1    
   141   71  193 1    
   142   71  194 1    
   143   72   73 2    
   144   72   74 am   BACKBONE|DICT|INTERRES
   145   74   75 1    
   146   74  195 1    
   147   75   76 1    
   148   75   77 1    
   149   75  196 1    
   150   76  197 1    
   151   76  198 1    
   152   76  199 1    
   153   77   78 2    
   154   77   79 am   BACKBONE|DICT|INTERRES
   155   79   80 1    
   156   79  200 1    
   157   80   81 1    
   158   80   82 1    
   159   80  201 1    
   160   81  202 1    
   161   81  203 1    
   162   81  204 1    
   163   82   83 2    
   164   82   84 am   BACKBONE|DICT|INTERRES
   165   84   85 1    
   166   84  205 1    
   167   85   86 1    
   168   85   87 1    
   169   85  206 1    
   170   86  207 1    
   171   86  208 1    
   172   86  209 1    
   173   87   88 2    
   174   87   89 am   BACKBONE|DICT|INTERRES
   175   89   90 1    
   176   89  210 1    
   177   90   91 1    
   178   90   92 1    
   179   90  211 1    
   180   91  212 1    
   181   91  213 1    
   182   91  214 1    
   183   92   93 2    
   184   92   94 am   BACKBONE|DICT|INTERRES
   185   94   95 1    
   186   94  215 1    
   187   95   96 1    
   188   95   97 1    
   189   95  216 1    
   190   96  217 1    
   191   96  218 1    
   192   96  219 1    
   193   97   98 2    
   194   97   99 am   BACKBONE|DICT|INTERRES
   195   99  100 1    
   196   99  220 1    
   197  100  101 1    
   198  100  102 1    
   199  100  221 1    
   200  101  222 1    
   201  101  223 1    
   202  101  224 1    
   203  102  103 2    
   204  102  104 am   BACKBONE|DICT|INTERRES
   205  104  105 1    
   206  104  225 1    
   207  105  106 1    
   208  105  107 1    
   209  105  226 1    
   210  106  227 1    
   211  106  228 1    
   212  106  229 1    
   213  107  108 2    
   214  107  109 am   BACKBONE|DICT|INTERRES
   215  109  110 1    
   216  109  230 1    
   217  110  111 1    
   218  110  112 1    
   219  110  231 1    
   220  111  232 1    
   221  111  233 1    
   222  111  234 1    
   223  112  113 2    
   224  112  114 am   BACKBONE|DICT|INTERRES
   225  114  115 1    
   226  114  235 1    
   227  115  116 1    
   228  115  117 1    
   229  115  236 1    
   230  116  237 1    
   231  116  238 1    
   232  116  239 1    
   233  117  118 2    
   234  117  119 am   BACKBONE|DICT|INTERRES
   235  119  120 1    
   236  119  240 1    
   237  120  121 1    
   238  120  124 1    
   239  120  241 1    
   240  121  122 am   BACKBONE|DICT|INTERRES
   241  121  123 2    
   242  122  242 1    
   243  122  243 1    
   244  124  125 1    
   245  124  244 1    
   246  124  245 1    
   247  125  126 1    
   248  126  246 1    
   249  126  247 1    
@<TRIPOS>SUBSTRUCTURE
     1 UNK         1 GROUP             0       ****    0 ROOT    
