@<TRIPOS>MOLECULE
3R540
247   249    1
SMALL
USER_CHARGES


@<TRIPOS>ATOM
      1 CA          0.5731  -13.8209  -49.7011 C.3       0 UNK        -0.1800 
      2 C           1.8868  -13.6933  -48.9458 C.2       0 UNK         0.5000 
      3 O           1.8800  -13.4517  -47.7395 O.2       0 UNK        -0.5000 
      4 N           3.0230  -13.8220  -49.6457 N.am      1 UNK        -0.5000 
      5 CA          4.3845  -13.8510  -49.0805 C.3       1 UNK         0.1400 
      6 C6          4.5945  -15.0866  -48.1523 C.3       23 UNK        -0.0398 
      7 S7          6.0790  -16.0635  -48.5687 S.3       23 UNK        -0.2404 
      8 C8          5.5654  -16.9495  -50.0835 C.3       23 UNK        -0.0205 
      9 C9          4.2114  -17.6358  -49.9530 C.ar      23 UNK        -0.0193 
     10 C10         3.1504  -17.2617  -50.7845 C.ar      23 UNK        -0.1150 
     11 C11         1.8927  -17.8578  -50.6500 C.ar      23 UNK        -0.0193 
     12 C12         1.7081  -18.8376  -49.6690 C.ar      23 UNK        -0.1150 
     13 C13         2.7578  -19.2217  -48.8301 C.ar      23 UNK        -0.0193 
     14 C14         4.0115  -18.6261  -48.9871 C.ar      23 UNK        -0.1150 
     15 C15         2.5332  -20.2449  -47.7271 C.3       23 UNK        -0.0205 
     16 S16         2.5406  -21.9518  -48.3512 S.3       23 UNK        -0.2404 
     17 C17         0.7775  -22.1954  -48.7522 C.3       23 UNK        -0.0398 
     18 CA          0.0885  -23.1912  -47.7972 C.3       11 UNK         0.1400 
     19 N           0.0798  -22.7292  -46.4080 N.am      11 UNK        -0.5000 
     20 C          -0.1283  -23.5289  -45.3550 C.2       10 UNK         0.5000 
     21 O          -0.3326  -24.7399  -45.4451 O.2       10 UNK        -0.5000 
     22 CA         -0.1614  -22.8430  -43.9794 C.3       10 UNK         0.1400 
     23 CB          1.2598  -22.5204  -43.4938 C.3       10 UNK        -0.1800 
     24 N          -0.9637  -21.6190  -44.0008 N.am      10 UNK        -0.5000 
     25 C          -2.2963  -21.6030  -44.1504 C.2       9 UNK         0.5000 
     26 O          -2.9793  -22.6198  -44.2752 O.2       9 UNK        -0.5000 
     27 CA         -2.9832  -20.2252  -44.2089 C.3       9 UNK         0.1400 
     28 CB         -3.3847  -19.7683  -42.7997 C.3       9 UNK        -0.1800 
     29 N          -2.1787  -19.1850  -44.8552 N.am      9 UNK        -0.5000 
     30 C          -1.7569  -19.2385  -46.1278 C.2       8 UNK         0.5000 
     31 O          -1.9712  -20.1880  -46.8794 O.2       8 UNK        -0.5000 
     32 CA         -0.9254  -18.0598  -46.6540 C.3       8 UNK         0.1400 
     33 CB         -1.8431  -16.9982  -47.2738 C.3       8 UNK        -0.1800 
     34 N          -0.0447  -17.4314  -45.6694 N.am      8 UNK        -0.5000 
     35 C           0.9106  -18.0526  -44.9614 C.2       7 UNK         0.5000 
     36 O           1.0416  -19.2755  -44.8988 O.2       7 UNK        -0.5000 
     37 CA          1.8861  -17.1486  -44.1982 C.3       7 UNK         0.1400 
     38 CB          2.8113  -16.4107  -45.1796 C.3       7 UNK        -0.1800 
     39 N           1.1489  -16.1853  -43.3841 N.am      7 UNK        -0.5000 
     40 C           0.9699  -16.3005  -42.0611 C.2       6 UNK         0.5000 
     41 O           1.5271  -17.1498  -41.3645 O.2       6 UNK        -0.5000 
     42 CA         -0.0170  -15.3204  -41.3941 C.3       6 UNK         0.1400 
     43 CB          0.7306  -14.1093  -40.8170 C.3       6 UNK        -0.1800 
     44 N          -1.0786  -14.8463  -42.2839 N.am      6 UNK        -0.5000 
     45 C          -1.9966  -15.6238  -42.8765 C.2       5 UNK         0.5000 
     46 O          -2.0635  -16.8437  -42.7293 O.2       5 UNK        -0.5000 
     47 CA         -2.9798  -14.9312  -43.8386 C.3       5 UNK         0.1400 
     48 CB         -4.2584  -14.5249  -43.0913 C.3       5 UNK        -0.1800 
     49 N          -2.4406  -13.7587  -44.5369 N.am      5 UNK        -0.5000 
     50 C          -1.3109  -13.7098  -45.2578 C.2       4 UNK         0.5000 
     51 O          -0.5300  -14.6586  -45.3689 O.2       4 UNK        -0.5000 
     52 CA         -0.9843  -12.3859  -45.9758 C.3       4 UNK         0.1400 
     53 CB         -1.9152  -11.2045  -45.6184 C.3       4 UNK        -0.1800 
     54 N           0.4219  -12.0297  -45.7921 N.am      4 UNK        -0.5000 
     55 C           1.0464  -11.7244  -44.6451 C.2       3 UNK         0.5000 
     56 O           0.4735  -11.6222  -43.5595 O.2       3 UNK        -0.5000 
     57 CA          2.5688  -11.4995  -44.7117 C.3       3 UNK         0.1400 
     58 CB          3.3108  -12.7201  -44.1482 C.3       3 UNK        -0.1800 
     59 N           3.0375  -11.2666  -46.0805 N.am      3 UNK        -0.5000 
     60 C           3.6892  -10.1758  -46.5075 C.2       2 UNK         0.5000 
     61 O           3.9544   -9.2174  -45.7797 O.2       2 UNK        -0.5000 
     62 CA          4.0998  -10.1313  -48.0001 C.3       2 UNK         0.1400 
     63 CB          5.4549   -9.4277  -48.2238 C.3       2 UNK        -0.1800 
     64 N           4.0626  -11.4405  -48.6659 N.am      2 UNK        -0.5000 
     65 C           4.8135  -12.5227  -48.4024 C.2       1 UNK         0.5000 
     66 O           5.7798  -12.5099  -47.6391 O.2       1 UNK        -0.5000 
     67 C          -1.3313  -23.5285  -48.2918 C.2       11 UNK         0.5000 
     68 O          -1.4726  -24.4107  -49.1375 O.2       11 UNK        -0.5000 
     69 N          -2.3575  -22.8425  -47.7696 N.am      12 UNK        -0.5000 
     70 CA         -3.7669  -23.1326  -48.0318 C.3       12 UNK         0.1400 
     71 CB         -4.6502  -22.0092  -47.4703 C.3       12 UNK        -0.1800 
     72 C          -4.1831  -24.4932  -47.4512 C.2       12 UNK         0.5000 
     73 O          -4.8098  -25.2839  -48.1555 O.2       12 UNK        -0.5000 
     74 N          -3.7716  -24.7678  -46.2036 N.am      13 UNK        -0.5000 
     75 CA         -3.9725  -26.0490  -45.5204 C.3       13 UNK         0.1400 
     76 CB         -3.5367  -25.9204  -44.0532 C.3       13 UNK        -0.1800 
     77 C          -3.2402  -27.2187  -46.2065 C.2       13 UNK         0.5000 
     78 O          -3.7717  -28.3286  -46.2489 O.2       13 UNK        -0.5000 
     79 N          -2.0561  -26.9387  -46.7681 N.am      14 UNK        -0.5000 
     80 CA         -1.2736  -27.8698  -47.5851 C.3       14 UNK         0.1400 
     81 CB          0.1790  -27.3707  -47.6425 C.3       14 UNK        -0.1800 
     82 C          -1.8288  -28.0588  -49.0144 C.2       14 UNK         0.5000 
     83 O          -1.3471  -28.9394  -49.7277 O.2       14 UNK        -0.5000 
     84 N          -2.7987  -27.2215  -49.4162 N.am      15 UNK        -0.5000 
     85 CA         -3.4203  -27.1263  -50.7428 C.3       15 UNK         0.1400 
     86 CB         -4.1685  -28.4255  -51.1051 C.3       15 UNK        -0.1800 
     87 C          -2.4505  -26.6610  -51.8520 C.2       15 UNK         0.5000 
     88 O          -2.7169  -26.8828  -53.0337 O.2       15 UNK        -0.5000 
     89 N          -1.3600  -25.9927  -51.4572 N.am      16 UNK        -0.5000 
     90 CA         -0.3535  -25.4116  -52.3428 C.3       16 UNK         0.1400 
     91 CB          0.9956  -25.3708  -51.6080 C.3       16 UNK        -0.1800 
     92 C          -0.7645  -24.0056  -52.8124 C.2       16 UNK         0.5000 
     93 O          -0.5485  -23.6689  -53.9765 O.2       16 UNK        -0.5000 
     94 N          -1.3759  -23.2269  -51.9076 N.am      17 UNK        -0.5000 
     95 CA         -1.9345  -21.8972  -52.1876 C.3       17 UNK         0.1400 
     96 CB         -1.5302  -20.9299  -51.0659 C.3       17 UNK        -0.1800 
     97 C          -3.4652  -21.9298  -52.3655 C.2       17 UNK         0.5000 
     98 O          -4.0691  -20.8703  -52.5521 O.2       17 UNK        -0.5000 
     99 N          -4.0458  -23.1401  -52.3064 N.am      18 UNK        -0.5000 
    100 CA        -5.4627  -23.4907  -52.4511 C.3       18 UNK         0.1400 
    101 CB        -5.9598  -23.1121  -53.8628 C.3       18 UNK        -0.1800 
    102 C         -6.3688  -22.8969  -51.3528 C.2       18 UNK         0.5000 
    103 O         -5.9123  -22.1436  -50.4917 O.2       18 UNK        -0.5000 
    104 N         -7.6682  -23.2189  -51.4220 N.am      19 UNK        -0.5000 
    105 CA        -8.7148  -22.6646  -50.5526 C.3       19 UNK         0.1400 
    106 CB       -10.0330  -23.4056  -50.8235 C.3       19 UNK        -0.1800 
    107 C         -8.9056  -21.1404  -50.7145 C.2       19 UNK         0.5000 
    108 O         -9.4400  -20.4923  -49.8144 O.2       19 UNK        -0.5000 
    109 N         -8.4363  -20.5975  -51.8468 N.am      20 UNK        -0.5000 
    110 CA        -8.3386  -19.1688  -52.1355 C.3       20 UNK         0.1400 
    111 CB        -8.0455  -18.9946  -53.6343 C.3       20 UNK        -0.1800 
    112 C         -7.2683  -18.4380  -51.2976 C.2       20 UNK         0.5000 
    113 O         -7.3107  -17.2089  -51.2418 O.2       20 UNK        -0.5000 
    114 N         -6.3279  -19.1841  -50.6910 N.am      21 UNK        -0.5000 
    115 CA        -5.2290  -18.7191  -49.8373 C.3       21 UNK         0.1400 
    116 CB        -5.7668  -18.2870  -48.4585 C.3       21 UNK        -0.1800 
    117 C         -4.3740  -17.6365  -50.5230 C.2       21 UNK         0.5000 
    118 O         -4.3252  -16.4933  -50.0665 O.2       21 UNK        -0.5000 
    119 N         -3.7639  -18.0304  -51.6462 N.am      22 UNK        -0.5000 
    120 CA        -2.9686  -17.2012  -52.5717 C.3       22 UNK         0.1400 
    121 C         -3.8223  -16.3459  -53.5556 C.2       22 UNK         0.5000 
    122 N         -5.1427  -16.2806  -53.4281 N.am      22 UNK        -0.7600 
    123 O         -3.2754  -15.7475  -54.4779 O.2       22 UNK        -0.5000 
    124 C124       -1.8569  -16.3318  -51.9066 C.3       23 UNK        -0.0398 
    125 S125       -0.8192  -17.1977  -50.6786 S.3       23 UNK        -0.2404 
    126 C126        0.7488  -17.4434  -51.5731 C.3       23 UNK        -0.0205 
    127 H127       -0.0711  -14.5460  -49.2043 H         1 UNK         0.0600 
    128 H128        0.7265  -14.1526  -50.7281 H         1 UNK         0.0600 
    129 H129        0.0558  -12.8620  -49.7212 H         1 UNK         0.0600 
    130 H130        2.9683  -13.9759  -50.6427 H         1 UNK         0.3000 
    131 H131        5.0393  -13.9455  -49.9475 H         1 UNK         0.0600 
    132 H132        4.6614  -14.8002  -47.1011 H         1 UNK         0.0800 
    133 H133        3.7325  -15.7528  -48.1804 H         1 UNK         0.0800 
    134 H134        5.5604  -16.2446  -50.9159 H         1 UNK         0.0800 
    135 H135        6.3200  -17.6990  -50.3254 H         1 UNK         0.0800 
    136 H136        3.3029  -16.4995  -51.5353 H         1 UNK         0.1150 
    137 H137        0.7353  -19.2874  -49.5530 H         1 UNK         0.1150 
    138 H138        4.8283  -18.9105  -48.3386 H         1 UNK         0.1150 
    139 H139        3.3024  -20.1482  -46.9594 H         1 UNK         0.0800 
    140 H140        1.5866  -20.0431  -47.2305 H         1 UNK         0.0800 
    141 H141        0.7326  -22.5536  -49.7816 H         1 UNK         0.0800 
    142 H142        0.2469  -21.2450  -48.7307 H         1 UNK         0.0800 
    143 H143        0.6601  -24.1206  -47.8326 H         1 UNK         0.0600 
    144 H144        0.2116  -21.7409  -46.2492 H         1 UNK         0.3000 
    145 H145       -0.6146  -23.5378  -43.2690 H         1 UNK         0.0600 
    146 H146        1.2449  -22.0760  -42.4985 H         1 UNK         0.0600 
    147 H147        1.7694  -21.8257  -44.1627 H         1 UNK         0.0600 
    148 H148        1.8664  -23.4251  -43.4374 H         1 UNK         0.0600 
    149 H149       -0.4625  -20.7397  -43.9673 H         1 UNK         0.3000 
    150 H150       -3.8966  -20.3397  -44.7949 H         1 UNK         0.0600 
    151 H151       -3.9922  -20.5243  -42.3003 H         1 UNK         0.0600 
    152 H152       -3.9744  -18.8522  -42.8358 H         1 UNK         0.0600 
    153 H153       -2.5111  -19.5815  -42.1740 H         1 UNK         0.0600 
    154 H154       -1.9397  -18.3793  -44.2886 H         1 UNK         0.3000 
    155 H155       -0.2857  -18.4471  -47.4481 H         1 UNK         0.0600 
    156 H156       -2.4581  -17.4302  -48.0636 H         1 UNK         0.0600 
    157 H157       -1.2662  -16.1884  -47.7203 H         1 UNK         0.0600 
    158 H158       -2.5168  -16.5638  -46.5378 H         1 UNK         0.0600 
    159 H159       -0.1028  -16.4166  -45.6203 H         1 UNK         0.3000 
    160 H160        2.5110  -17.7900  -43.5732 H         1 UNK         0.0600 
    161 H161        2.2679  -15.6846  -45.7865 H         1 UNK         0.0600 
    162 H162        3.2964  -17.1100  -45.8624 H         1 UNK         0.0600 
    163 H163        3.6020  -15.8842  -44.6461 H         1 UNK         0.0600 
    164 H164        0.6158  -15.4835  -43.8863 H         1 UNK         0.3000 
    165 H165       -0.4938  -15.8524  -40.5684 H         1 UNK         0.0600 
    166 H166        0.0575  -13.4596  -40.2573 H         1 UNK         0.0600 
    167 H167        1.5201  -14.4248  -40.1336 H         1 UNK         0.0600 
    168 H168        1.1946  -13.5133  -41.6029 H         1 UNK         0.0600 
    169 H169       -1.0828  -13.8582  -42.4945 H         1 UNK         0.3000 
    170 H170       -3.2565  -15.6642  -44.5964 H         1 UNK         0.0600 
    171 H171       -4.0593  -13.7582  -42.3415 H         1 UNK         0.0600 
    172 H172       -5.0114  -14.1373  -43.7777 H         1 UNK         0.0600 
    173 H173       -4.6999  -15.3802  -42.5776 H         1 UNK         0.0600 
    174 H174       -3.0024  -12.9212  -44.4892 H         1 UNK         0.3000 
    175 H175       -1.1048  -12.5888  -47.0408 H         1 UNK         0.0600 
    176 H176       -1.9083  -10.9788  -44.5517 H         1 UNK         0.0600 
    177 H177       -1.6134  -10.3003  -46.1471 H         1 UNK         0.0600 
    178 H178       -2.9457  -11.4116  -45.9093 H         1 UNK         0.0600 
    179 H179        1.0059  -12.2431  -46.5937 H         1 UNK         0.3000 
    180 H180        2.7900  -10.6398  -44.0764 H         1 UNK         0.0600 
    181 H181        4.3884  -12.5558  -44.1367 H         1 UNK         0.0600 
    182 H182        3.1141  -13.6068  -44.7485 H         1 UNK         0.0600 
    183 H183        3.0023  -12.9359  -43.1250 H         1 UNK         0.0600 
    184 H184        2.8530  -12.0102  -46.7454 H         1 UNK         0.3000 
    185 H185        3.3375   -9.5280  -48.4949 H         1 UNK         0.0600 
    186 H186        5.7246   -9.4166  -49.2798 H         1 UNK         0.0600 
    187 H187        5.4161   -8.3902  -47.8902 H         1 UNK         0.0600 
    188 H188        6.2620   -9.9136  -47.6753 H         1 UNK         0.0600 
    189 H189        3.2994  -11.5697  -49.3154 H         1 UNK         0.3000 
    190 H190       -2.1641  -22.0474  -47.1667 H         1 UNK         0.3000 
    191 H191       -3.9034  -23.1693  -49.1140 H         1 UNK         0.0600 
    192 H192       -4.3595  -21.0406  -47.8732 H         1 UNK         0.0600 
    193 H193       -4.5921  -21.9520  -46.3844 H         1 UNK         0.0600 
    194 H194       -5.6964  -22.1694  -47.7333 H         1 UNK         0.0600 
    195 H195       -3.2937  -24.0454  -45.6737 H         1 UNK         0.3000 
    196 H196       -5.0411  -26.2723  -45.5398 H         1 UNK         0.0600 
    197 H197       -4.1135  -25.1525  -43.5374 H         1 UNK         0.0600 
    198 H198       -2.4816  -25.6587  -43.9677 H         1 UNK         0.0600 
    199 H199       -3.6886  -26.8573  -43.5158 H         1 UNK         0.0600 
    200 H200       -1.6578  -26.0192  -46.6194 H         1 UNK         0.3000 
    201 H201       -1.2794  -28.8472  -47.0984 H         1 UNK         0.0600 
    202 H202        0.5909  -27.2305  -46.6428 H         1 UNK         0.0600 
    203 H203        0.2561  -26.4230  -48.1746 H         1 UNK         0.0600 
    204 H204        0.8187  -28.0870  -48.1595 H         1 UNK         0.0600 
    205 H205       -3.1289  -26.5363  -48.7479 H         1 UNK         0.3000 
    206 H206       -4.1682  -26.3369  -50.6590 H         1 UNK         0.0600 
    207 H207       -3.4823  -29.2516  -51.2926 H         1 UNK         0.0600 
    208 H208       -4.8458  -28.7255  -50.3054 H         1 UNK         0.0600 
    209 H209       -4.7703  -28.2926  -52.0047 H         1 UNK         0.0600 
    210 H210       -1.2686  -25.7792  -50.4687 H         1 UNK         0.3000 
    211 H211       -0.2402  -26.0442  -53.2259 H         1 UNK         0.0600 
    212 H212        0.9406  -24.7883  -50.6884 H         1 UNK         0.0600 
    213 H213        1.7699  -24.9265  -52.2347 H         1 UNK         0.0600 
    214 H214        1.3272  -26.3752  -51.3442 H         1 UNK         0.0600 
    215 H215       -1.5114  -23.5942  -50.9720 H         1 UNK         0.3000 
    216 H216       -1.5227  -21.5058  -53.1199 H         1 UNK         0.0600 
    217 H217       -0.4467  -20.8546  -50.9936 H         1 UNK         0.0600 
    218 H218       -1.9295  -21.2318  -50.0984 H         1 UNK         0.0600 
    219 H219       -1.8950  -19.9250  -51.2665 H         1 UNK         0.0600 
    220 H220       -3.4267  -23.9196  -52.1480 H         1 UNK         0.3000 
    221 H221       -5.5173  -24.5756  -52.3503 H         1 UNK         0.0600 
    222 H222       -6.0221  -22.0315  -53.9964 H         1 UNK         0.0600 
    223 H223       -5.2921  -23.5030  -54.6309 H         1 UNK         0.0600 
    224 H224       -6.9490  -23.5236  -54.0643 H         1 UNK         0.0600 
    225 H225       -7.9796  -23.8531  -52.1436 H         1 UNK         0.3000 
    226 H226       -8.4229  -22.8477  -49.5163 H         1 UNK         0.0600 
    227 H227       -9.9305  -24.4749  -50.6376 H         1 UNK         0.0600 
    228 H228      -10.8283  -23.0395  -50.1727 H         1 UNK         0.0600 
    229 H229      -10.3650  -23.2727  -51.8539 H         1 UNK         0.0600 
    230 H230       -8.0296  -21.2186  -52.5294 H         1 UNK         0.3000 
    231 H231       -9.3032  -18.7075  -51.9143 H         1 UNK         0.0600 
    232 H232       -8.0071  -17.9388  -53.9059 H         1 UNK         0.0600 
    233 H233       -8.8205  -19.4571  -54.2457 H         1 UNK         0.0600 
    234 H234       -7.0878  -19.4384  -53.9105 H         1 UNK         0.0600 
    235 H235       -6.3543  -20.1902  -50.8228 H         1 UNK         0.3000 
    236 H236       -4.5736  -19.5775  -49.6847 H         1 UNK         0.0600 
    237 H237       -6.4366  -17.4299  -48.5352 H         1 UNK         0.0600 
    238 H238       -6.3149  -19.0989  -47.9803 H         1 UNK         0.0600 
    239 H239       -4.9503  -18.0092  -47.7910 H         1 UNK         0.0600 
    240 H240       -3.9187  -18.9859  -51.9574 H         1 UNK         0.3000 
    241 H241       -2.4585  -17.9270  -53.2058 H         1 UNK         0.0600 
    242 H242       -5.6104  -16.7110  -52.6425 H         1 UNK         0.3800 
    243 H243       -5.6726  -15.7281  -54.0833 H         1 UNK         0.3800 
    244 H244       -2.3045  -15.4760  -51.3992 H         1 UNK         0.0800 
    245 H245       -1.2100  -15.9046  -52.6741 H         1 UNK         0.0800 
    246 H246        1.0064  -16.5202  -52.0939 H         1 UNK         0.0800 
    247 H247        0.6096  -18.2098  -52.3365 H         1 UNK         0.0800 
@<TRIPOS>BOND
     1    1    2 1    
     2    1  127 1    
     3    1  128 1    
     4    1  129 1    
     5    2    3 2    
     6    2    4 am   BACKBONE|DICT|INTERRES
     7    4    5 1    
     8    4  130 1    
     9    5    6 1    
    10    5   65 1    
    11    5  131 1    
    12    6    7 1    
    13    6  132 1    
    14    6  133 1    
    15    7    8 1    
    16    8    9 1    
    17    8  134 1    
    18    8  135 1    
    19    9   10 ar   
    20    9   14 ar   
    21   10   11 ar   
    22   10  136 1    
    23   11   12 ar   
    24   11  126 1    
    25   12   13 ar   
    26   12  137 1    
    27   13   14 ar   
    28   13   15 1    
    29   14  138 1    
    30   15   16 1    
    31   15  139 1    
    32   15  140 1    
    33   16   17 1    
    34   17   18 1    
    35   17  141 1    
    36   17  142 1    
    37   18   19 1    
    38   18   67 1    
    39   18  143 1    
    40   19   20 am   BACKBONE|DICT|INTERRES
    41   19  144 1    
    42   20   21 2    
    43   20   22 1    
    44   22   23 1    
    45   22   24 1    
    46   22  145 1    
    47   23  146 1    
    48   23  147 1    
    49   23  148 1    
    50   24   25 am   BACKBONE|DICT|INTERRES
    51   24  149 1    
    52   25   26 2    
    53   25   27 1    
    54   27   28 1    
    55   27   29 1    
    56   27  150 1    
    57   28  151 1    
    58   28  152 1    
    59   28  153 1    
    60   29   30 am   BACKBONE|DICT|INTERRES
    61   29  154 1    
    62   30   31 2    
    63   30   32 1    
    64   32   33 1    
    65   32   34 1    
    66   32  155 1    
    67   33  156 1    
    68   33  157 1    
    69   33  158 1    
    70   34   35 am   BACKBONE|DICT|INTERRES
    71   34  159 1    
    72   35   36 2    
    73   35   37 1    
    74   37   38 1    
    75   37   39 1    
    76   37  160 1    
    77   38  161 1    
    78   38  162 1    
    79   38  163 1    
    80   39   40 am   BACKBONE|DICT|INTERRES
    81   39  164 1    
    82   40   41 2    
    83   40   42 1    
    84   42   43 1    
    85   42   44 1    
    86   42  165 1    
    87   43  166 1    
    88   43  167 1    
    89   43  168 1    
    90   44   45 am   BACKBONE|DICT|INTERRES
    91   44  169 1    
    92   45   46 2    
    93   45   47 1    
    94   47   48 1    
    95   47   49 1    
    96   47  170 1    
    97   48  171 1    
    98   48  172 1    
    99   48  173 1    
   100   49   50 am   BACKBONE|DICT|INTERRES
   101   49  174 1    
   102   50   51 2    
   103   50   52 1    
   104   52   53 1    
   105   52   54 1    
   106   52  175 1    
   107   53  176 1    
   108   53  177 1    
   109   53  178 1    
   110   54   55 am   BACKBONE|DICT|INTERRES
   111   54  179 1    
   112   55   56 2    
   113   55   57 1    
   114   57   58 1    
   115   57   59 1    
   116   57  180 1    
   117   58  181 1    
   118   58  182 1    
   119   58  183 1    
   120   59   60 am   BACKBONE|DICT|INTERRES
   121   59  184 1    
   122   60   61 2    
   123   60   62 1    
   124   62   63 1    
   125   62   64 1    
   126   62  185 1    
   127   63  186 1    
   128   63  187 1    
   129   63  188 1    
   130   64   65 am   BACKBONE|DICT|INTERRES
   131   64  189 1    
   132   65   66 2    
   133   67   68 2    
   134   67   69 am   BACKBONE|DICT|INTERRES
   135   69   70 1    
   136   69  190 1    
   137   70   71 1    
   138   70   72 1    
   139   70  191 1    
   140   71  192 1    
   141   71  193 1    
   142   71  194 1    
   143   72   73 2    
   144   72   74 am   BACKBONE|DICT|INTERRES
   145   74   75 1    
   146   74  195 1    
   147   75   76 1    
   148   75   77 1    
   149   75  196 1    
   150   76  197 1    
   151   76  198 1    
   152   76  199 1    
   153   77   78 2    
   154   77   79 am   BACKBONE|DICT|INTERRES
   155   79   80 1    
   156   79  200 1    
   157   80   81 1    
   158   80   82 1    
   159   80  201 1    
   160   81  202 1    
   161   81  203 1    
   162   81  204 1    
   163   82   83 2    
   164   82   84 am   BACKBONE|DICT|INTERRES
   165   84   85 1    
   166   84  205 1    
   167   85   86 1    
   168   85   87 1    
   169   85  206 1    
   170   86  207 1    
   171   86  208 1    
   172   86  209 1    
   173   87   88 2    
   174   87   89 am   BACKBONE|DICT|INTERRES
   175   89   90 1    
   176   89  210 1    
   177   90   91 1    
   178   90   92 1    
   179   90  211 1    
   180   91  212 1    
   181   91  213 1    
   182   91  214 1    
   183   92   93 2    
   184   92   94 am   BACKBONE|DICT|INTERRES
   185   94   95 1    
   186   94  215 1    
   187   95   96 1    
   188   95   97 1    
   189   95  216 1    
   190   96  217 1    
   191   96  218 1    
   192   96  219 1    
   193   97   98 2    
   194   97   99 am   BACKBONE|DICT|INTERRES
   195   99  100 1    
   196   99  220 1    
   197  100  101 1    
   198  100  102 1    
   199  100  221 1    
   200  101  222 1    
   201  101  223 1    
   202  101  224 1    
   203  102  103 2    
   204  102  104 am   BACKBONE|DICT|INTERRES
   205  104  105 1    
   206  104  225 1    
   207  105  106 1    
   208  105  107 1    
   209  105  226 1    
   210  106  227 1    
   211  106  228 1    
   212  106  229 1    
   213  107  108 2    
   214  107  109 am   BACKBONE|DICT|INTERRES
   215  109  110 1    
   216  109  230 1    
   217  110  111 1    
   218  110  112 1    
   219  110  231 1    
   220  111  232 1    
   221  111  233 1    
   222  111  234 1    
   223  112  113 2    
   224  112  114 am   BACKBONE|DICT|INTERRES
   225  114  115 1    
   226  114  235 1    
   227  115  116 1    
   228  115  117 1    
   229  115  236 1    
   230  116  237 1    
   231  116  238 1    
   232  116  239 1    
   233  117  118 2    
   234  117  119 am   BACKBONE|DICT|INTERRES
   235  119  120 1    
   236  119  240 1    
   237  120  121 1    
   238  120  124 1    
   239  120  241 1    
   240  121  122 am   BACKBONE|DICT|INTERRES
   241  121  123 2    
   242  122  242 1    
   243  122  243 1    
   244  124  125 1    
   245  124  244 1    
   246  124  245 1    
   247  125  126 1    
   248  126  246 1    
   249  126  247 1    
@<TRIPOS>SUBSTRUCTURE
     1 UNK         1 GROUP             0       ****    0 ROOT    
