@<TRIPOS>MOLECULE
3R540
247   249    1
SMALL
USER_CHARGES


@<TRIPOS>ATOM
      1 CA         -0.3883  -12.8782  -51.9374 C.3       0 UNK        -0.1800 
      2 C           0.0377  -13.6581  -50.7031 C.2       0 UNK         0.5000 
      3 O           1.2045  -14.0315  -50.5841 O.2       0 UNK        -0.5000 
      4 N          -0.8983  -13.8912  -49.7724 N.am      1 UNK        -0.5000 
      5 CA         -0.6926  -14.6757  -48.5445 C.3       1 UNK         0.1400 
      6 C6         -2.0221  -15.0088  -47.8236 C.3       23 UNK        -0.0398 
      7 S7         -3.2087  -15.9155  -48.8755 S.3       23 UNK        -0.2404 
      8 C8         -2.8793  -17.6392  -48.3899 C.3       23 UNK        -0.0205 
      9 C9         -1.5832  -18.1427  -49.0004 C.ar      23 UNK        -0.0193 
     10 C10        -1.5583  -18.5746  -50.3282 C.ar      23 UNK        -0.1150 
     11 C11        -0.3538  -18.9488  -50.9299 C.ar      23 UNK        -0.0193 
     12 C12         0.8252  -18.9214  -50.1819 C.ar      23 UNK        -0.1150 
     13 C13         0.8076  -18.5136  -48.8460 C.ar      23 UNK        -0.0193 
     14 C14        -0.4015  -18.1361  -48.2556 C.ar      23 UNK        -0.1150 
     15 C15         2.1040  -18.4444  -48.0591 C.3       23 UNK        -0.0205 
     16 S16         2.5667  -20.0669  -47.3811 S.3       23 UNK        -0.2404 
     17 C17         1.4235  -20.2056  -45.9687 C.3       23 UNK        -0.0398 
     18 CA          0.7288  -21.5841  -45.8877 C.3       11 UNK         0.1400 
     19 N           0.2973  -21.8708  -44.5214 N.am      11 UNK        -0.5000 
     20 C          -0.1583  -23.0507  -44.0833 C.2       10 UNK         0.5000 
     21 O          -0.2168  -24.0663  -44.7758 O.2       10 UNK        -0.5000 
     22 CA         -0.6847  -23.0760  -42.6391 C.3       10 UNK         0.1400 
     23 CB          0.4662  -23.2493  -41.6368 C.3       10 UNK        -0.1800 
     24 N          -1.4346  -21.8586  -42.3240 N.am      10 UNK        -0.5000 
     25 C          -2.6455  -21.5760  -42.8235 C.2       9 UNK         0.5000 
     26 O          -3.2745  -22.3413  -43.5549 O.2       9 UNK        -0.5000 
     27 CA         -3.2348  -20.1960  -42.4756 C.3       9 UNK         0.1400 
     28 CB         -3.9125  -20.2282  -41.0977 C.3       9 UNK        -0.1800 
     29 N          -2.2343  -19.1260  -42.5004 N.am      9 UNK        -0.5000 
     30 C          -1.6439  -18.6710  -43.6145 C.2       8 UNK         0.5000 
     31 O          -1.8880  -19.0986  -44.7400 O.2       8 UNK        -0.5000 
     32 CA         -0.5678  -17.5842  -43.4494 C.3       8 UNK         0.1400 
     33 CB         -1.2038  -16.1875  -43.4756 C.3       8 UNK        -0.1800 
     34 N           0.2585  -17.7261  -42.2482 N.am      8 UNK        -0.5000 
     35 C           1.0062  -18.7991  -41.9498 C.2       7 UNK         0.5000 
     36 O           0.9623  -19.8547  -42.5841 O.2       7 UNK        -0.5000 
     37 CA          1.9674  -18.6594  -40.7576 C.3       7 UNK         0.1400 
     38 CB          3.1344  -19.6630  -40.8126 C.3       7 UNK        -0.1800 
     39 N           2.5011  -17.2996  -40.6919 N.am      7 UNK        -0.5000 
     40 C           2.7049  -16.6053  -39.5651 C.2       6 UNK         0.5000 
     41 O           2.4411  -17.0406  -38.4433 O.2       6 UNK        -0.5000 
     42 CA          3.3142  -15.1927  -39.6913 C.3       6 UNK         0.1400 
     43 CB          4.7900  -15.2080  -39.2627 C.3       6 UNK        -0.1800 
     44 N           3.2255  -14.6132  -41.0329 N.am      6 UNK        -0.5000 
     45 C           2.0956  -14.2087  -41.6279 C.2       5 UNK         0.5000 
     46 O           0.9831  -14.2808  -41.1055 O.2       5 UNK        -0.5000 
     47 CA          2.2316  -13.6489  -43.0589 C.3       5 UNK         0.1400 
     48 CB          2.4978  -12.1363  -42.9922 C.3       5 UNK        -0.1800 
     49 N           3.2682  -14.2806  -43.8879 N.am      5 UNK        -0.5000 
     50 C           3.4355  -15.5969  -44.0920 C.2       4 UNK         0.5000 
     51 O           2.7791  -16.4689  -43.5240 O.2       4 UNK        -0.5000 
     52 CA          4.5035  -15.9886  -45.1222 C.3       4 UNK         0.1400 
     53 CB          4.6293  -17.5102  -45.3220 C.3       4 UNK        -0.1800 
     54 N           4.1850  -15.3315  -46.3858 N.am      4 UNK        -0.5000 
     55 C           5.0893  -14.8581  -47.2522 C.2       3 UNK         0.5000 
     56 O           6.3023  -15.0398  -47.1398 O.2       3 UNK        -0.5000 
     57 CA          4.5619  -14.0090  -48.4292 C.3       3 UNK         0.1400 
     58 CB          4.4037  -14.8817  -49.6837 C.3       3 UNK        -0.1800 
     59 N           3.2898  -13.3290  -48.1651 N.am      3 UNK        -0.5000 
     60 C           3.0434  -12.4728  -47.1601 C.2       2 UNK         0.5000 
     61 O           3.9010  -12.1008  -46.3587 O.2       2 UNK        -0.5000 
     62 CA          1.5930  -11.9710  -46.9874 C.3       2 UNK         0.1400 
     63 CB          1.4809  -10.4944  -47.3955 C.3       2 UNK        -0.1800 
     64 N           0.5940  -12.7420  -47.7287 N.am      2 UNK        -0.5000 
     65 C           0.3088  -14.0406  -47.5539 C.2       1 UNK         0.5000 
     66 O           0.8307  -14.7398  -46.6835 O.2       1 UNK        -0.5000 
     67 C          -0.4312  -21.7449  -46.8969 C.2       11 UNK         0.5000 
     68 O          -0.2425  -22.3842  -47.9305 O.2       11 UNK        -0.5000 
     69 N          -1.6275  -21.2463  -46.5439 N.am      12 UNK        -0.5000 
     70 CA         -2.8715  -21.4402  -47.2917 C.3       12 UNK         0.1400 
     71 CB         -4.0210  -20.6663  -46.6249 C.3       12 UNK        -0.1800 
     72 C          -3.2567  -22.9215  -47.4212 C.2       12 UNK         0.5000 
     73 O          -3.5705  -23.3679  -48.5225 O.2       12 UNK        -0.5000 
     74 N          -3.2037  -23.6604  -46.3027 N.am      13 UNK        -0.5000 
     75 CA         -3.4794  -25.0971  -46.2460 C.3       13 UNK         0.1400 
     76 CB         -3.4531  -25.5763  -44.7872 C.3       13 UNK        -0.1800 
     77 C          -2.5182  -25.9226  -47.1209 C.2       13 UNK         0.5000 
     78 O          -2.9735  -26.8058  -47.8490 O.2       13 UNK        -0.5000 
     79 N          -1.2212  -25.5848  -47.0722 N.am      14 UNK        -0.5000 
     80 CA         -0.1771  -26.1568  -47.9241 C.3       14 UNK         0.1400 
     81 CB          1.1998  -25.6671  -47.4510 C.3       14 UNK        -0.1800 
     82 C          -0.3907  -25.8434  -49.4175 C.2       14 UNK         0.5000 
     83 O          -0.2150  -26.7283  -50.2556 O.2       14 UNK        -0.5000 
     84 N          -0.8265  -24.6147  -49.7235 N.am      15 UNK        -0.5000 
     85 CA         -1.1870  -24.1304  -51.0579 C.3       15 UNK         0.1400 
     86 CB         -1.0569  -22.5972  -51.0794 C.3       15 UNK        -0.1800 
     87 C          -2.5850  -24.6013  -51.5218 C.2       15 UNK         0.5000 
     88 O          -3.3396  -23.8110  -52.0907 O.2       15 UNK        -0.5000 
     89 N          -2.9107  -25.8784  -51.2732 N.am      16 UNK        -0.5000 
     90 CA         -4.1333  -26.5861  -51.6750 C.3       16 UNK         0.1400 
     91 CB         -4.1272  -26.8265  -53.1990 C.3       16 UNK        -0.1800 
     92 C          -5.4375  -25.9205  -51.1802 C.2       16 UNK         0.5000 
     93 O          -6.4386  -25.9166  -51.8982 O.2       16 UNK        -0.5000 
     94 N          -5.3898  -25.3662  -49.9607 N.am      17 UNK        -0.5000 
     95 CA         -6.4454  -24.6002  -49.2865 C.3       17 UNK         0.1400 
     96 CB         -7.7230  -25.4426  -49.0845 C.3       17 UNK        -0.1800 
     97 C          -6.7206  -23.2191  -49.9237 C.2       17 UNK         0.5000 
     98 O          -7.7894  -22.6500  -49.6933 O.2       17 UNK        -0.5000 
     99 N          -5.7382  -22.6860  -50.6659 N.am      18 UNK        -0.5000 
    100 CA        -5.7065  -21.3613  -51.2872 C.3       18 UNK         0.1400 
    101 CB        -5.6141  -20.2682  -50.1965 C.3       18 UNK        -0.1800 
    102 C         -6.8454  -21.1608  -52.3122 C.2       18 UNK         0.5000 
    103 O         -7.0799  -22.0503  -53.1338 O.2       18 UNK        -0.5000 
    104 N         -7.5020  -19.9917  -52.2765 N.am      19 UNK        -0.5000 
    105 CA        -8.5999  -19.5105  -53.1274 C.3       19 UNK         0.1400 
    106 CB        -9.8329  -20.4311  -53.0450 C.3       19 UNK        -0.1800 
    107 C         -8.1907  -19.2388  -54.5883 C.2       19 UNK         0.5000 
    108 O         -8.4048  -18.1308  -55.0811 O.2       19 UNK        -0.5000 
    109 N         -7.5894  -20.2358  -55.2473 N.am      20 UNK        -0.5000 
    110 CA        -7.0359  -20.1423  -56.6017 C.3       20 UNK         0.1400 
    111 CB        -6.9281  -21.5596  -57.1854 C.3       20 UNK        -0.1800 
    112 C         -5.6631  -19.4386  -56.6391 C.2       20 UNK         0.5000 
    113 O         -5.2196  -19.0179  -57.7082 O.2       20 UNK        -0.5000 
    114 N         -5.0186  -19.3311  -55.4749 N.am      21 UNK        -0.5000 
    115 CA        -3.7300  -18.7021  -55.2223 C.3       21 UNK         0.1400 
    116 CB        -2.6184  -19.7322  -55.4991 C.3       21 UNK        -0.1800 
    117 C         -3.7373  -18.2542  -53.7476 C.2       21 UNK         0.5000 
    118 O         -4.5584  -18.7598  -52.9819 O.2       21 UNK        -0.5000 
    119 N         -2.8626  -17.3503  -53.2953 N.am      22 UNK        -0.5000 
    120 CA        -1.8288  -16.6048  -54.0319 C.3       22 UNK         0.1400 
    121 C         -2.2667  -15.1503  -54.3779 C.2       22 UNK         0.5000 
    122 N         -3.4531  -14.6965  -53.9911 N.am      22 UNK        -0.7600 
    123 O         -1.5255  -14.4257  -55.0349 O.2       22 UNK        -0.5000 
    124 C124       -0.4906  -16.6249  -53.2422 C.3       23 UNK        -0.0398 
    125 S125        0.4674  -18.1616  -53.4874 S.3       23 UNK        -0.2404 
    126 C126       -0.3246  -19.3820  -52.3867 C.3       23 UNK        -0.0205 
    127 H127       -0.0049  -13.3589  -52.8371 H         1 UNK         0.0600 
    128 H128        0.0108  -11.8649  -51.8969 H         1 UNK         0.0600 
    129 H129       -1.4736  -12.8182  -52.0230 H         1 UNK         0.0600 
    130 H130       -1.8427  -13.5666  -49.9260 H         1 UNK         0.3000 
    131 H131       -0.2315  -15.6085  -48.8641 H         1 UNK         0.0600 
    132 H132       -1.8357  -15.5937  -46.9211 H         1 UNK         0.0800 
    133 H133       -2.5078  -14.0910  -47.4879 H         1 UNK         0.0800 
    134 H134       -2.8468  -17.7114  -47.3023 H         1 UNK         0.0800 
    135 H135       -3.7084  -18.2661  -48.7200 H         1 UNK         0.0800 
    136 H136       -2.4769  -18.5968  -50.8954 H         1 UNK         0.1150 
    137 H137        1.7592  -19.2079  -50.6444 H         1 UNK         0.1150 
    138 H138       -0.4192  -17.7958  -47.2300 H         1 UNK         0.1150 
    139 H139        2.9067  -18.0947  -48.7100 H         1 UNK         0.0800 
    140 H140        2.0249  -17.7085  -47.2574 H         1 UNK         0.0800 
    141 H141        0.6906  -19.4000  -45.9713 H         1 UNK         0.0800 
    142 H142        2.0304  -20.0429  -45.0767 H         1 UNK         0.0800 
    143 H143        1.4717  -22.3466  -46.1325 H         1 UNK         0.0600 
    144 H144        0.3586  -21.1038  -43.8565 H         1 UNK         0.3000 
    145 H145       -1.3549  -23.9325  -42.5392 H         1 UNK         0.0600 
    146 H146        0.0932  -23.3069  -40.6142 H         1 UNK         0.0600 
    147 H147        1.0175  -24.1694  -41.8344 H         1 UNK         0.0600 
    148 H148        1.1771  -22.4245  -41.6891 H         1 UNK         0.0600 
    149 H149       -0.9536  -21.1548  -41.7831 H         1 UNK         0.3000 
    150 H150       -3.9972  -19.9647  -43.2227 H         1 UNK         0.0600 
    151 H151       -4.6761  -21.0062  -41.0570 H         1 UNK         0.0600 
    152 H152       -4.4042  -19.2803  -40.8783 H         1 UNK         0.0600 
    153 H153       -3.1967  -20.4284  -40.2994 H         1 UNK         0.0600 
    154 H154       -1.9678  -18.7224  -41.6145 H         1 UNK         0.3000 
    155 H155        0.1025  -17.6599  -44.3080 H         1 UNK         0.0600 
    156 H156       -1.8311  -16.0131  -42.6007 H         1 UNK         0.0600 
    157 H157       -1.8271  -16.0567  -44.3611 H         1 UNK         0.0600 
    158 H158       -0.4406  -15.4110  -43.5028 H         1 UNK         0.0600 
    159 H159        0.3651  -16.8997  -41.6769 H         1 UNK         0.3000 
    160 H160        1.3729  -18.8711  -39.8668 H         1 UNK         0.0600 
    161 H161        3.7334  -19.5275  -41.7140 H         1 UNK         0.0600 
    162 H162        2.7718  -20.6913  -40.8075 H         1 UNK         0.0600 
    163 H163        3.7933  -19.5498  -39.9517 H         1 UNK         0.0600 
    164 H164        2.7099  -16.8712  -41.5905 H         1 UNK         0.3000 
    165 H165        2.7667  -14.5422  -39.0061 H         1 UNK         0.0600 
    166 H166        5.2140  -14.2036  -39.2690 H         1 UNK         0.0600 
    167 H167        4.9003  -15.5983  -38.2500 H         1 UNK         0.0600 
    168 H168        5.3933  -15.8328  -39.9225 H         1 UNK         0.0600 
    169 H169        4.0904  -14.5264  -41.5459 H         1 UNK         0.3000 
    170 H170        1.2792  -13.8052  -43.5676 H         1 UNK         0.0600 
    171 H171        1.7138  -11.6256  -42.4312 H         1 UNK         0.0600 
    172 H172        3.4470  -11.9184  -42.5010 H         1 UNK         0.0600 
    173 H173        2.5293  -11.6860  -43.9826 H         1 UNK         0.0600 
    174 H174        3.8523  -13.6454  -44.4156 H         1 UNK         0.3000 
    175 H175        5.4560  -15.6130  -44.7425 H         1 UNK         0.0600 
    176 H176        3.6774  -17.9560  -45.6042 H         1 UNK         0.0600 
    177 H177        5.3585  -17.7536  -46.0947 H         1 UNK         0.0600 
    178 H178        4.9537  -17.9966  -44.4014 H         1 UNK         0.0600 
    179 H179        3.2054  -15.1222  -46.5393 H         1 UNK         0.3000 
    180 H180        5.3082  -13.2394  -48.6356 H         1 UNK         0.0600 
    181 H181        3.6313  -15.6404  -49.5496 H         1 UNK         0.0600 
    182 H182        5.3343  -15.3972  -49.9247 H         1 UNK         0.0600 
    183 H183        4.1323  -14.2798  -50.5512 H         1 UNK         0.0600 
    184 H184        2.5277  -13.5614  -48.7904 H         1 UNK         0.3000 
    185 H185        1.3437  -12.0551  -45.9289 H         1 UNK         0.0600 
    186 H186        2.1842   -9.8781  -46.8336 H         1 UNK         0.0600 
    187 H187        1.6950  -10.3536  -48.4557 H         1 UNK         0.0600 
    188 H188        0.4821  -10.1044  -47.1986 H         1 UNK         0.0600 
    189 H189        0.1240  -12.2589  -48.4804 H         1 UNK         0.3000 
    190 H190       -1.6949  -20.6690  -45.7098 H         1 UNK         0.3000 
    191 H191       -2.7177  -21.0393  -48.2953 H         1 UNK         0.0600 
    192 H192       -3.8058  -19.6035  -46.5550 H         1 UNK         0.0600 
    193 H193       -4.9468  -20.7741  -47.1907 H         1 UNK         0.0600 
    194 H194       -4.2188  -21.0236  -45.6154 H         1 UNK         0.0600 
    195 H195       -2.9726  -23.2053  -45.4262 H         1 UNK         0.3000 
    196 H196       -4.4891  -25.2527  -46.6298 H         1 UNK         0.0600 
    197 H197       -3.6978  -26.6371  -44.7214 H         1 UNK         0.0600 
    198 H198       -4.1814  -25.0361  -44.1820 H         1 UNK         0.0600 
    199 H199       -2.4729  -25.4376  -44.3320 H         1 UNK         0.0600 
    200 H200       -0.9284  -24.8720  -46.4096 H         1 UNK         0.3000 
    201 H201       -0.2099  -27.2417  -47.8052 H         1 UNK         0.0600 
    202 H202        1.3813  -25.9455  -46.4127 H         1 UNK         0.0600 
    203 H203        1.2909  -24.5834  -47.5260 H         1 UNK         0.0600 
    204 H204        1.9977  -26.1063  -48.0509 H         1 UNK         0.0600 
    205 H205       -0.9167  -23.9361  -48.9729 H         1 UNK         0.3000 
    206 H206       -0.4677  -24.5308  -51.7748 H         1 UNK         0.0600 
    207 H207       -0.0549  -22.2802  -50.7894 H         1 UNK         0.0600 
    208 H208       -1.2475  -22.2031  -52.0777 H         1 UNK         0.0600 
    209 H209       -1.7655  -22.1245  -50.3984 H         1 UNK         0.0600 
    210 H210       -2.2151  -26.4403  -50.7957 H         1 UNK         0.3000 
    211 H211       -4.0920  -27.5613  -51.1878 H         1 UNK         0.0600 
    212 H212       -4.2134  -25.8918  -53.7543 H         1 UNK         0.0600 
    213 H213       -4.9589  -27.4647  -53.4999 H         1 UNK         0.0600 
    214 H214       -3.2098  -27.3220  -53.5166 H         1 UNK         0.0600 
    215 H215       -4.4986  -25.3766  -49.4799 H         1 UNK         0.3000 
    216 H216       -6.0562  -24.3828  -48.2920 H         1 UNK         0.0600 
    217 H217       -8.4192  -24.9386  -48.4132 H         1 UNK         0.0600 
    218 H218       -7.4920  -26.4113  -48.6412 H         1 UNK         0.0600 
    219 H219       -8.2495  -25.6171  -50.0228 H         1 UNK         0.0600 
    220 H220       -4.9137  -23.2520  -50.8356 H         1 UNK         0.3000 
    221 H221       -4.7807  -21.3246  -51.8631 H         1 UNK         0.0600 
    222 H222       -6.5000  -20.2440  -49.5613 H         1 UNK         0.0600 
    223 H223       -4.7507  -20.4450  -49.5575 H         1 UNK         0.0600 
    224 H224       -5.4841  -19.2739  -50.6225 H         1 UNK         0.0600 
    225 H225       -7.1809  -19.3210  -51.5924 H         1 UNK         0.3000 
    226 H226       -8.8916  -18.5480  -52.7040 H         1 UNK         0.0600 
    227 H227      -10.1534  -20.5669  -52.0120 H         1 UNK         0.0600 
    228 H228      -10.6730  -20.0031  -53.5930 H         1 UNK         0.0600 
    229 H229       -9.6400  -21.4176  -53.4671 H         1 UNK         0.0600 
    230 H230       -7.4310  -21.1018  -54.7376 H         1 UNK         0.3000 
    231 H231       -7.7213  -19.5650  -57.2257 H         1 UNK         0.0600 
    232 H232       -6.2589  -22.1869  -56.5950 H         1 UNK         0.0600 
    233 H233       -6.5423  -21.5353  -58.2054 H         1 UNK         0.0600 
    234 H234       -7.9026  -22.0471  -57.2189 H         1 UNK         0.0600 
    235 H235       -5.4833  -19.6416  -54.6307 H         1 UNK         0.3000 
    236 H236       -3.6228  -17.8301  -55.8696 H         1 UNK         0.0600 
    237 H237       -2.6558  -20.0850  -56.5298 H         1 UNK         0.0600 
    238 H238       -1.6264  -19.3120  -55.3430 H         1 UNK         0.0600 
    239 H239       -2.7095  -20.6022  -54.8472 H         1 UNK         0.0600 
    240 H240       -2.9342  -17.0938  -52.3229 H         1 UNK         0.3000 
    241 H241       -1.6445  -17.0654  -55.0010 H         1 UNK         0.0600 
    242 H242       -3.7259  -13.7576  -54.2363 H         1 UNK         0.3800 
    243 H243       -4.0864  -15.2788  -53.4668 H         1 UNK         0.3800 
    244 H244        0.1691  -15.8202  -53.5712 H         1 UNK         0.0800 
    245 H245       -0.6523  -16.4465  -52.1781 H         1 UNK         0.0800 
    246 H246        0.2356  -20.3141  -52.4641 H         1 UNK         0.0800 
    247 H247       -1.3285  -19.6079  -52.7438 H         1 UNK         0.0800 
@<TRIPOS>BOND
     1    1    2 1    
     2    1  127 1    
     3    1  128 1    
     4    1  129 1    
     5    2    3 2    
     6    2    4 am   BACKBONE|DICT|INTERRES
     7    4    5 1    
     8    4  130 1    
     9    5    6 1    
    10    5   65 1    
    11    5  131 1    
    12    6    7 1    
    13    6  132 1    
    14    6  133 1    
    15    7    8 1    
    16    8    9 1    
    17    8  134 1    
    18    8  135 1    
    19    9   10 ar   
    20    9   14 ar   
    21   10   11 ar   
    22   10  136 1    
    23   11   12 ar   
    24   11  126 1    
    25   12   13 ar   
    26   12  137 1    
    27   13   14 ar   
    28   13   15 1    
    29   14  138 1    
    30   15   16 1    
    31   15  139 1    
    32   15  140 1    
    33   16   17 1    
    34   17   18 1    
    35   17  141 1    
    36   17  142 1    
    37   18   19 1    
    38   18   67 1    
    39   18  143 1    
    40   19   20 am   BACKBONE|DICT|INTERRES
    41   19  144 1    
    42   20   21 2    
    43   20   22 1    
    44   22   23 1    
    45   22   24 1    
    46   22  145 1    
    47   23  146 1    
    48   23  147 1    
    49   23  148 1    
    50   24   25 am   BACKBONE|DICT|INTERRES
    51   24  149 1    
    52   25   26 2    
    53   25   27 1    
    54   27   28 1    
    55   27   29 1    
    56   27  150 1    
    57   28  151 1    
    58   28  152 1    
    59   28  153 1    
    60   29   30 am   BACKBONE|DICT|INTERRES
    61   29  154 1    
    62   30   31 2    
    63   30   32 1    
    64   32   33 1    
    65   32   34 1    
    66   32  155 1    
    67   33  156 1    
    68   33  157 1    
    69   33  158 1    
    70   34   35 am   BACKBONE|DICT|INTERRES
    71   34  159 1    
    72   35   36 2    
    73   35   37 1    
    74   37   38 1    
    75   37   39 1    
    76   37  160 1    
    77   38  161 1    
    78   38  162 1    
    79   38  163 1    
    80   39   40 am   BACKBONE|DICT|INTERRES
    81   39  164 1    
    82   40   41 2    
    83   40   42 1    
    84   42   43 1    
    85   42   44 1    
    86   42  165 1    
    87   43  166 1    
    88   43  167 1    
    89   43  168 1    
    90   44   45 am   BACKBONE|DICT|INTERRES
    91   44  169 1    
    92   45   46 2    
    93   45   47 1    
    94   47   48 1    
    95   47   49 1    
    96   47  170 1    
    97   48  171 1    
    98   48  172 1    
    99   48  173 1    
   100   49   50 am   BACKBONE|DICT|INTERRES
   101   49  174 1    
   102   50   51 2    
   103   50   52 1    
   104   52   53 1    
   105   52   54 1    
   106   52  175 1    
   107   53  176 1    
   108   53  177 1    
   109   53  178 1    
   110   54   55 am   BACKBONE|DICT|INTERRES
   111   54  179 1    
   112   55   56 2    
   113   55   57 1    
   114   57   58 1    
   115   57   59 1    
   116   57  180 1    
   117   58  181 1    
   118   58  182 1    
   119   58  183 1    
   120   59   60 am   BACKBONE|DICT|INTERRES
   121   59  184 1    
   122   60   61 2    
   123   60   62 1    
   124   62   63 1    
   125   62   64 1    
   126   62  185 1    
   127   63  186 1    
   128   63  187 1    
   129   63  188 1    
   130   64   65 am   BACKBONE|DICT|INTERRES
   131   64  189 1    
   132   65   66 2    
   133   67   68 2    
   134   67   69 am   BACKBONE|DICT|INTERRES
   135   69   70 1    
   136   69  190 1    
   137   70   71 1    
   138   70   72 1    
   139   70  191 1    
   140   71  192 1    
   141   71  193 1    
   142   71  194 1    
   143   72   73 2    
   144   72   74 am   BACKBONE|DICT|INTERRES
   145   74   75 1    
   146   74  195 1    
   147   75   76 1    
   148   75   77 1    
   149   75  196 1    
   150   76  197 1    
   151   76  198 1    
   152   76  199 1    
   153   77   78 2    
   154   77   79 am   BACKBONE|DICT|INTERRES
   155   79   80 1    
   156   79  200 1    
   157   80   81 1    
   158   80   82 1    
   159   80  201 1    
   160   81  202 1    
   161   81  203 1    
   162   81  204 1    
   163   82   83 2    
   164   82   84 am   BACKBONE|DICT|INTERRES
   165   84   85 1    
   166   84  205 1    
   167   85   86 1    
   168   85   87 1    
   169   85  206 1    
   170   86  207 1    
   171   86  208 1    
   172   86  209 1    
   173   87   88 2    
   174   87   89 am   BACKBONE|DICT|INTERRES
   175   89   90 1    
   176   89  210 1    
   177   90   91 1    
   178   90   92 1    
   179   90  211 1    
   180   91  212 1    
   181   91  213 1    
   182   91  214 1    
   183   92   93 2    
   184   92   94 am   BACKBONE|DICT|INTERRES
   185   94   95 1    
   186   94  215 1    
   187   95   96 1    
   188   95   97 1    
   189   95  216 1    
   190   96  217 1    
   191   96  218 1    
   192   96  219 1    
   193   97   98 2    
   194   97   99 am   BACKBONE|DICT|INTERRES
   195   99  100 1    
   196   99  220 1    
   197  100  101 1    
   198  100  102 1    
   199  100  221 1    
   200  101  222 1    
   201  101  223 1    
   202  101  224 1    
   203  102  103 2    
   204  102  104 am   BACKBONE|DICT|INTERRES
   205  104  105 1    
   206  104  225 1    
   207  105  106 1    
   208  105  107 1    
   209  105  226 1    
   210  106  227 1    
   211  106  228 1    
   212  106  229 1    
   213  107  108 2    
   214  107  109 am   BACKBONE|DICT|INTERRES
   215  109  110 1    
   216  109  230 1    
   217  110  111 1    
   218  110  112 1    
   219  110  231 1    
   220  111  232 1    
   221  111  233 1    
   222  111  234 1    
   223  112  113 2    
   224  112  114 am   BACKBONE|DICT|INTERRES
   225  114  115 1    
   226  114  235 1    
   227  115  116 1    
   228  115  117 1    
   229  115  236 1    
   230  116  237 1    
   231  116  238 1    
   232  116  239 1    
   233  117  118 2    
   234  117  119 am   BACKBONE|DICT|INTERRES
   235  119  120 1    
   236  119  240 1    
   237  120  121 1    
   238  120  124 1    
   239  120  241 1    
   240  121  122 am   BACKBONE|DICT|INTERRES
   241  121  123 2    
   242  122  242 1    
   243  122  243 1    
   244  124  125 1    
   245  124  244 1    
   246  124  245 1    
   247  125  126 1    
   248  126  246 1    
   249  126  247 1    
@<TRIPOS>SUBSTRUCTURE
     1 UNK         1 GROUP             0       ****    0 ROOT    
