@<TRIPOS>MOLECULE
3R540
247   249    1
SMALL
USER_CHARGES


@<TRIPOS>ATOM
      1 CA          1.6682  -12.3074  -51.5036 C.3       0 UNK        -0.1800 
      2 C           1.9210  -13.4224  -50.4987 C.2       0 UNK         0.5000 
      3 O           2.9136  -14.1405  -50.6168 O.2       0 UNK        -0.5000 
      4 N           1.0312  -13.5647  -49.5082 N.am      1 UNK        -0.5000 
      5 CA          1.0893  -14.6048  -48.4712 C.3       1 UNK         0.1400 
      6 C6         -0.2917  -14.8438  -47.8110 C.3       23 UNK        -0.0398 
      7 S7         -1.6136  -15.3042  -48.9848 S.3       23 UNK        -0.2404 
      8 C8         -1.8239  -17.0805  -48.6359 C.3       23 UNK        -0.0205 
      9 C9         -0.8336  -17.9242  -49.4225 C.ar      23 UNK        -0.0193 
     10 C10        -1.2078  -18.4872  -50.6466 C.ar      23 UNK        -0.1150 
     11 C11        -0.2915  -19.2318  -51.4032 C.ar      23 UNK        -0.0193 
     12 C12         1.0065  -19.3992  -50.9127 C.ar      23 UNK        -0.1150 
     13 C13         1.3908  -18.8477  -49.6886 C.ar      23 UNK        -0.0193 
     14 C14         0.4606  -18.1254  -48.9387 C.ar      23 UNK        -0.1150 
     15 C15         2.8233  -19.0028  -49.2038 C.3       23 UNK        -0.0205 
     16 S16         3.1289  -20.6472  -48.4919 S.3       23 UNK        -0.2404 
     17 C17         2.2843  -20.4950  -46.8847 C.3       23 UNK        -0.0398 
     18 CA          1.4481  -21.7393  -46.5135 C.3       11 UNK         0.1400 
     19 N           1.1673  -21.7719  -45.0793 N.am      11 UNK        -0.5000 
     20 C           0.6819  -22.8260  -44.4132 C.2       10 UNK         0.5000 
     21 O           0.4390  -23.9133  -44.9363 O.2       10 UNK        -0.5000 
     22 CA          0.3802  -22.6121  -42.9189 C.3       10 UNK         0.1400 
     23 CB          1.6650  -22.7058  -42.0827 C.3       10 UNK        -0.1800 
     24 N          -0.2860  -21.3342  -42.6575 N.am      10 UNK        -0.5000 
     25 C          -1.5049  -21.0156  -43.1168 C.2       9 UNK         0.5000 
     26 O          -2.2046  -21.7797  -43.7811 O.2       9 UNK        -0.5000 
     27 CA         -2.0175  -19.5966  -42.8172 C.3       9 UNK         0.1400 
     28 CB         -2.5402  -19.5005  -41.3763 C.3       9 UNK        -0.1800 
     29 N          -1.0056  -18.5655  -43.0449 N.am      9 UNK        -0.5000 
     30 C          -0.4547  -18.2862  -44.2354 C.2       8 UNK         0.5000 
     31 O          -0.7534  -18.8558  -45.2838 O.2       8 UNK        -0.5000 
     32 CA          0.6574  -17.2252  -44.2490 C.3       8 UNK         0.1400 
     33 CB          0.0649  -15.8146  -44.1088 C.3       8 UNK        -0.1800 
     34 N           1.6521  -17.4444  -43.2005 N.am      8 UNK        -0.5000 
     35 C           2.3881  -18.5541  -43.0488 C.2       7 UNK         0.5000 
     36 O           2.3435  -19.5193  -43.8089 O.2       7 UNK        -0.5000 
     37 CA          3.2835  -18.6210  -41.8024 C.3       7 UNK         0.1400 
     38 CB          4.5848  -17.8348  -42.0167 C.3       7 UNK        -0.1800 
     39 N           2.5902  -18.1243  -40.6149 N.am      7 UNK        -0.5000 
     40 C           1.5636  -18.7517  -40.0235 C.2       6 UNK         0.5000 
     41 O           1.1123  -19.8346  -40.3986 O.2       6 UNK        -0.5000 
     42 CA          0.9085  -18.0218  -38.8374 C.3       6 UNK         0.1400 
     43 CB          1.7279  -18.2220  -37.5537 C.3       6 UNK        -0.1800 
     44 N           0.7358  -16.5896  -39.0883 N.am      6 UNK        -0.5000 
     45 C          -0.1002  -16.0856  -40.0064 C.2       5 UNK         0.5000 
     46 O          -0.8229  -16.7764  -40.7241 O.2       5 UNK        -0.5000 
     47 CA         -0.1087  -14.5552  -40.1758 C.3       5 UNK         0.1400 
     48 CB         -1.0461  -13.9062  -39.1466 C.3       5 UNK        -0.1800 
     49 N           1.2113  -13.9221  -40.0942 N.am      5 UNK        -0.5000 
     50 C           2.2663  -14.2180  -40.8648 C.2       4 UNK         0.5000 
     51 O           2.2903  -15.1477  -41.6712 O.2       4 UNK        -0.5000 
     52 CA          3.4895  -13.2940  -40.7406 C.3       4 UNK         0.1400 
     53 CB          4.8084  -14.0839  -40.7757 C.3       4 UNK        -0.1800 
     54 N           3.4914  -12.3188  -41.8286 N.am      4 UNK        -0.5000 
     55 C           2.6648  -11.2686  -41.9200 C.2       3 UNK         0.5000 
     56 O           1.8517  -10.9644  -41.0459 O.2       3 UNK        -0.5000 
     57 CA          2.7683  -10.3977  -43.1867 C.3       3 UNK         0.1400 
     58 CB          3.5727   -9.1217  -42.8919 C.3       3 UNK        -0.1800 
     59 N           3.3747  -11.0829  -44.3326 N.am      3 UNK        -0.5000 
     60 C           2.7477  -11.9811  -45.1036 C.2       2 UNK         0.5000 
     61 O           1.5971  -12.3726  -44.8958 O.2       2 UNK        -0.5000 
     62 CA          3.5442  -12.4779  -46.3267 C.3       2 UNK         0.1400 
     63 CB          4.7229  -13.3861  -45.9164 C.3       2 UNK        -0.1800 
     64 N           2.6795  -13.0907  -47.3446 N.am      2 UNK        -0.5000 
     65 C           2.1444  -14.3219  -47.3751 C.2       1 UNK         0.5000 
     66 O           2.4283  -15.2235  -46.5868 O.2       1 UNK        -0.5000 
     67 C           0.1583  -21.8744  -47.3516 C.2       11 UNK         0.5000 
     68 O           0.1378  -22.6599  -48.2991 O.2       11 UNK        -0.5000 
     69 N          -0.9154  -21.1761  -46.9496 N.am      12 UNK        -0.5000 
     70 CA         -2.2466  -21.2976  -47.5464 C.3       12 UNK         0.1400 
     71 CB         -3.2001  -20.2611  -46.9354 C.3       12 UNK        -0.1800 
     72 C          -2.8344  -22.7108  -47.3966 C.2       12 UNK         0.5000 
     73 O          -3.3824  -23.2384  -48.3629 O.2       12 UNK        -0.5000 
     74 N          -2.6847  -23.3133  -46.2084 N.am      13 UNK        -0.5000 
     75 CA         -3.1011  -24.6866  -45.9216 C.3       13 UNK         0.1400 
     76 CB         -2.9554  -24.9764  -44.4204 C.3       13 UNK        -0.1800 
     77 C          -2.3363  -25.7239  -46.7636 C.2       13 UNK         0.5000 
     78 O          -2.9604  -26.6336  -47.3098 O.2       13 UNK        -0.5000 
     79 N          -1.0148  -25.5408  -46.8994 N.am      14 UNK        -0.5000 
     80 CA         -0.1418  -26.3589  -47.7455 C.3       14 UNK         0.1400 
     81 CB          1.3247  -25.9853  -47.4820 C.3       14 UNK        -0.1800 
     82 C          -0.4754  -26.2437  -49.2463 C.2       14 UNK         0.5000 
     83 O          -0.4185  -27.2455  -49.9601 O.2       14 UNK        -0.5000 
     84 N          -0.8502  -25.0360  -49.6890 N.am      15 UNK        -0.5000 
     85 CA         -1.3102  -24.7414  -51.0480 C.3       15 UNK         0.1400 
     86 CB         -1.2184  -23.2254  -51.2821 C.3       15 UNK        -0.1800 
     87 C          -2.7401  -25.2408  -51.3465 C.2       15 UNK         0.5000 
     88 O          -3.1301  -25.2585  -52.5141 O.2       15 UNK        -0.5000 
     89 N          -3.4882  -25.6235  -50.3003 N.am      16 UNK        -0.5000 
     90 CA         -4.9040  -26.0064  -50.3016 C.3       16 UNK         0.1400 
     91 CB         -5.1464  -27.2761  -51.1451 C.3       16 UNK        -0.1800 
     92 C          -5.8316  -24.8286  -50.6729 C.2       16 UNK         0.5000 
     93 O          -6.8164  -25.0164  -51.3903 O.2       16 UNK        -0.5000 
     94 N          -5.4952  -23.6441  -50.1400 N.am      17 UNK        -0.5000 
     95 CA         -6.1396  -22.3378  -50.2989 C.3       17 UNK         0.1400 
     96 CB         -7.6102  -22.3876  -49.8328 C.3       17 UNK        -0.1800 
     97 C          -6.0095  -21.7438  -51.7159 C.2       17 UNK         0.5000 
     98 O          -5.5869  -22.4139  -52.6596 O.2       17 UNK        -0.5000 
     99 N          -6.4087  -20.4731  -51.8472 N.am      18 UNK        -0.5000 
    100 CA        -6.4138  -19.6994  -53.0922 C.3       18 UNK         0.1400 
    101 CB        -6.3360  -18.2048  -52.7311 C.3       18 UNK        -0.1800 
    102 C         -7.6271  -20.0294  -53.9941 C.2       18 UNK         0.5000 
    103 O         -8.2326  -19.1289  -54.5786 O.2       18 UNK        -0.5000 
    104 N         -7.9812  -21.3169  -54.0828 N.am      19 UNK        -0.5000 
    105 CA        -9.0911  -21.8536  -54.8664 C.3       19 UNK         0.1400 
    106 CB        -9.4776  -23.2263  -54.2879 C.3       19 UNK        -0.1800 
    107 C         -8.7028  -21.9261  -56.3541 C.2       19 UNK         0.5000 
    108 O         -8.2841  -22.9832  -56.8296 O.2       19 UNK        -0.5000 
    109 N         -8.7964  -20.7748  -57.0365 N.am      20 UNK        -0.5000 
    110 CA        -8.3173  -20.5129  -58.4009 C.3       20 UNK         0.1400 
    111 CB        -9.1112  -21.3315  -59.4408 C.3       20 UNK        -0.1800 
    112 C         -6.7881  -20.6992  -58.5085 C.2       20 UNK         0.5000 
    113 O         -6.2898  -21.3042  -59.4598 O.2       20 UNK        -0.5000 
    114 N         -6.0788  -20.1891  -57.4972 N.am      21 UNK        -0.5000 
    115 CA        -4.6417  -20.3110  -57.2948 C.3       21 UNK         0.1400 
    116 CB        -4.3403  -21.6551  -56.6041 C.3       21 UNK        -0.1800 
    117 C         -4.1660  -19.1293  -56.4373 C.2       21 UNK         0.5000 
    118 O         -4.9942  -18.3778  -55.9168 O.2       21 UNK        -0.5000 
    119 N         -2.8424  -19.0032  -56.2915 N.am      22 UNK        -0.5000 
    120 CA        -2.1532  -18.0128  -55.4404 C.3       22 UNK         0.1400 
    121 C         -2.2203  -16.5410  -55.9544 C.2       22 UNK         0.5000 
    122 N         -2.6207  -16.2894  -57.1947 N.am      22 UNK        -0.7600 
    123 O         -1.8716  -15.6105  -55.2328 O.2       22 UNK        -0.5000 
    124 C124       -2.5171  -18.1251  -53.9293 C.3       23 UNK        -0.0398 
    125 S125       -2.3781  -19.8232  -53.2667 S.3       23 UNK        -0.2404 
    126 C126       -0.6248  -19.8590  -52.7589 C.3       23 UNK        -0.0205 
    127 H127        0.7600  -11.7505  -51.2719 H         1 UNK         0.0600 
    128 H128        1.5652  -12.7230  -52.5060 H         1 UNK         0.0600 
    129 H129        2.5045  -11.6083  -51.5073 H         1 UNK         0.0600 
    130 H130        0.2236  -12.9585  -49.4742 H         1 UNK         0.3000 
    131 H131        1.3940  -15.5329  -48.9569 H         1 UNK         0.0600 
    132 H132       -0.2124  -15.6266  -47.0576 H         1 UNK         0.0800 
    133 H133       -0.6160  -13.9486  -47.2770 H         1 UNK         0.0800 
    134 H134       -1.7212  -17.2711  -47.5669 H         1 UNK         0.0800 
    135 H135       -2.8437  -17.3677  -48.8962 H         1 UNK         0.0800 
    136 H136       -2.2132  -18.3251  -51.0047 H         1 UNK         0.1150 
    137 H137        1.7287  -19.9595  -51.4903 H         1 UNK         0.1150 
    138 H138        0.7508  -17.6948  -47.9911 H         1 UNK         0.1150 
    139 H139        3.5041  -18.8526  -50.0430 H         1 UNK         0.0800 
    140 H140        3.0722  -18.2321  -48.4721 H         1 UNK         0.0800 
    141 H141        1.6748  -19.5923  -46.8385 H         1 UNK         0.0800 
    142 H142        3.0765  -20.3534  -46.1491 H         1 UNK         0.0800 
    143 H143        2.0584  -22.6202  -46.7245 H         1 UNK         0.0600 
    144 H144        1.3805  -20.9223  -44.5614 H         1 UNK         0.3000 
    145 H145       -0.2917  -23.4112  -42.5990 H         1 UNK         0.0600 
    146 H146        1.4462  -22.6382  -41.0169 H         1 UNK         0.0600 
    147 H147        2.1728  -23.6562  -42.2515 H         1 UNK         0.0600 
    148 H148        2.3665  -21.9086  -42.3301 H         1 UNK         0.0600 
    149 H149        0.2197  -20.6625  -42.0898 H         1 UNK         0.3000 
    150 H150       -2.8511  -19.3971  -43.4937 H         1 UNK         0.0600 
    151 H151       -3.2965  -20.2621  -41.1820 H         1 UNK         0.0600 
    152 H152       -3.0006  -18.5302  -41.1893 H         1 UNK         0.0600 
    153 H153       -1.7401  -19.6360  -40.6476 H         1 UNK         0.0600 
    154 H154       -0.7269  -18.0196  -42.2346 H         1 UNK         0.3000 
    155 H155        1.1680  -17.2911  -45.2117 H         1 UNK         0.0600 
    156 H156       -0.3706  -15.6585  -43.1238 H         1 UNK         0.0600 
    157 H157        0.8279  -15.0506  -44.2598 H         1 UNK         0.0600 
    158 H158       -0.7261  -15.6403  -44.8375 H         1 UNK         0.0600 
    159 H159        1.7959  -16.6762  -42.5482 H         1 UNK         0.3000 
    160 H160        3.5444  -19.6675  -41.6305 H         1 UNK         0.0600 
    161 H161        4.3899  -16.7857  -42.2364 H         1 UNK         0.0600 
    162 H162        5.1497  -18.2430  -42.8556 H         1 UNK         0.0600 
    163 H163        5.2269  -17.8821  -41.1372 H         1 UNK         0.0600 
    164 H164        2.8516  -17.2064  -40.2872 H         1 UNK         0.3000 
    165 H165       -0.0794  -18.4613  -38.6823 H         1 UNK         0.0600 
    166 H166        1.2278  -17.7759  -36.6938 H         1 UNK         0.0600 
    167 H167        1.8598  -19.2830  -37.3372 H         1 UNK         0.0600 
    168 H168        2.7205  -17.7771  -37.6332 H         1 UNK         0.0600 
    169 H169        1.2979  -15.9526  -38.5433 H         1 UNK         0.3000 
    170 H170       -0.5051  -14.3399  -41.1694 H         1 UNK         0.0600 
    171 H171       -2.0449  -14.3420  -39.1977 H         1 UNK         0.0600 
    172 H172       -0.6808  -14.0402  -38.1277 H         1 UNK         0.0600 
    173 H173       -1.1510  -12.8363  -39.3281 H         1 UNK         0.0600 
    174 H174        1.2759  -13.1126  -39.4932 H         1 UNK         0.3000 
    175 H175        3.4389  -12.7665  -39.7857 H         1 UNK         0.0600 
    176 H176        5.6589  -13.4344  -40.5681 H         1 UNK         0.0600 
    177 H177        4.9762  -14.5484  -41.7477 H         1 UNK         0.0600 
    178 H178        4.8129  -14.8755  -40.0252 H         1 UNK         0.0600 
    179 H179        4.1037  -12.5112  -42.6068 H         1 UNK         0.3000 
    180 H180        1.7533  -10.1008  -43.4596 H         1 UNK         0.0600 
    181 H181        4.6050   -9.3493  -42.6232 H         1 UNK         0.0600 
    182 H182        3.1334   -8.5647  -42.0631 H         1 UNK         0.0600 
    183 H183        3.5882   -8.4562  -43.7552 H         1 UNK         0.0600 
    184 H184        4.3160  -10.8047  -44.5709 H         1 UNK         0.3000 
    185 H185        3.9651  -11.5943  -46.8090 H         1 UNK         0.0600 
    186 H186        5.4715  -12.8245  -45.3569 H         1 UNK         0.0600 
    187 H187        4.4020  -14.2113  -45.2797 H         1 UNK         0.0600 
    188 H188        5.2218  -13.8072  -46.7893 H         1 UNK         0.0600 
    189 H189        2.3470  -12.4500  -48.0510 H         1 UNK         0.3000 
    190 H190       -0.8211  -20.5100  -46.1870 H         1 UNK         0.3000 
    191 H191       -2.1503  -21.0841  -48.6131 H         1 UNK         0.0600 
    192 H192       -2.8304  -19.2492  -47.0829 H         1 UNK         0.0600 
    193 H193       -4.1863  -20.3171  -47.3978 H         1 UNK         0.0600 
    194 H194       -3.3297  -20.4127  -45.8638 H         1 UNK         0.0600 
    195 H195       -2.2732  -22.7909  -45.4399 H         1 UNK         0.3000 
    196 H196       -4.1593  -24.7700  -46.1781 H         1 UNK         0.0600 
    197 H197       -3.2829  -25.9896  -44.1848 H         1 UNK         0.0600 
    198 H198       -3.5624  -24.2922  -43.8273 H         1 UNK         0.0600 
    199 H199       -1.9223  -24.8795  -44.0872 H         1 UNK         0.0600 
    200 H200       -0.5700  -24.7913  -46.3769 H         1 UNK         0.3000 
    201 H201       -0.2824  -27.4022  -47.4555 H         1 UNK         0.0600 
    202 H202        1.5865  -26.1317  -46.4339 H         1 UNK         0.0600 
    203 H203        1.5271  -24.9442  -47.7341 H         1 UNK         0.0600 
    204 H204        1.9984  -26.6041  -48.0758 H         1 UNK         0.0600 
    205 H205       -0.7918  -24.2461  -49.0527 H         1 UNK         0.3000 
    206 H206       -0.6385  -25.2352  -51.7529 H         1 UNK         0.0600 
    207 H207       -0.1994  -22.8642  -51.1415 H         1 UNK         0.0600 
    208 H208       -1.5202  -22.9685  -52.2981 H         1 UNK         0.0600 
    209 H209       -1.8653  -22.6718  -50.6013 H         1 UNK         0.0600 
    210 H210       -3.0637  -25.5586  -49.3840 H         1 UNK         0.3000 
    211 H211       -5.1420  -26.2576  -49.2670 H         1 UNK         0.0600 
    212 H212       -4.4693  -28.0786  -50.8526 H         1 UNK         0.0600 
    213 H213       -5.0094  -27.0911  -52.2106 H         1 UNK         0.0600 
    214 H214       -6.1637  -27.6442  -51.0085 H         1 UNK         0.0600 
    215 H215       -4.6512  -23.6177  -49.5691 H         1 UNK         0.3000 
    216 H216       -5.5984  -21.6677  -49.6290 H         1 UNK         0.0600 
    217 H217       -8.0370  -21.3871  -49.7590 H         1 UNK         0.0600 
    218 H218       -7.6961  -22.8451  -48.8471 H         1 UNK         0.0600 
    219 H219       -8.2368  -22.9551  -50.5216 H         1 UNK         0.0600 
    220 H220       -6.7753  -19.9961  -51.0365 H         1 UNK         0.3000 
    221 H221       -5.5172  -19.9505  -53.6621 H         1 UNK         0.0600 
    222 H222       -7.2175  -17.8782  -52.1784 H         1 UNK         0.0600 
    223 H223       -5.4581  -17.9923  -52.1207 H         1 UNK         0.0600 
    224 H224       -6.2616  -17.5864  -53.6262 H         1 UNK         0.0600 
    225 H225       -7.3824  -21.9953  -53.6256 H         1 UNK         0.3000 
    226 H226       -9.9553  -21.1932  -54.7679 H         1 UNK         0.0600 
    227 H227       -9.8130  -23.1366  -53.2545 H         1 UNK         0.0600 
    228 H228      -10.2927  -23.6746  -54.8573 H         1 UNK         0.0600 
    229 H229       -8.6394  -23.9245  -54.3049 H         1 UNK         0.0600 
    230 H230       -9.0899  -19.9570  -56.5155 H         1 UNK         0.3000 
    231 H231       -8.5106  -19.4575  -58.5981 H         1 UNK         0.0600 
    232 H232       -8.9196  -22.4011  -59.3525 H         1 UNK         0.0600 
    233 H233       -8.8416  -21.0360  -60.4554 H         1 UNK         0.0600 
    234 H234      -10.1840  -21.1726  -59.3315 H         1 UNK         0.0600 
    235 H235       -6.5462  -19.6350  -56.7900 H         1 UNK         0.3000 
    236 H236       -4.1300  -20.2633  -58.2581 H         1 UNK         0.0600 
    237 H237       -4.6896  -22.4958  -57.2037 H         1 UNK         0.0600 
    238 H238       -3.2696  -21.7926  -56.4499 H         1 UNK         0.0600 
    239 H239       -4.8229  -21.7205  -55.6276 H         1 UNK         0.0600 
    240 H240       -2.2376  -19.6602  -56.7629 H         1 UNK         0.3000 
    241 H241       -1.0967  -18.2684  -55.5237 H         1 UNK         0.0600 
    242 H242       -2.6507  -15.3368  -57.5232 H         1 UNK         0.3800 
    243 H243       -2.9026  -17.0396  -57.8048 H         1 UNK         0.3800 
    244 H244       -1.8805  -17.4677  -53.3352 H         1 UNK         0.0800 
    245 H245       -3.5372  -17.7799  -53.7604 H         1 UNK         0.0800 
    246 H246       -0.3079  -20.9015  -52.7430 H         1 UNK         0.0800 
    247 H247       -0.0216  -19.3758  -53.5283 H         1 UNK         0.0800 
@<TRIPOS>BOND
     1    1    2 1    
     2    1  127 1    
     3    1  128 1    
     4    1  129 1    
     5    2    3 2    
     6    2    4 am   BACKBONE|DICT|INTERRES
     7    4    5 1    
     8    4  130 1    
     9    5    6 1    
    10    5   65 1    
    11    5  131 1    
    12    6    7 1    
    13    6  132 1    
    14    6  133 1    
    15    7    8 1    
    16    8    9 1    
    17    8  134 1    
    18    8  135 1    
    19    9   10 ar   
    20    9   14 ar   
    21   10   11 ar   
    22   10  136 1    
    23   11   12 ar   
    24   11  126 1    
    25   12   13 ar   
    26   12  137 1    
    27   13   14 ar   
    28   13   15 1    
    29   14  138 1    
    30   15   16 1    
    31   15  139 1    
    32   15  140 1    
    33   16   17 1    
    34   17   18 1    
    35   17  141 1    
    36   17  142 1    
    37   18   19 1    
    38   18   67 1    
    39   18  143 1    
    40   19   20 am   BACKBONE|DICT|INTERRES
    41   19  144 1    
    42   20   21 2    
    43   20   22 1    
    44   22   23 1    
    45   22   24 1    
    46   22  145 1    
    47   23  146 1    
    48   23  147 1    
    49   23  148 1    
    50   24   25 am   BACKBONE|DICT|INTERRES
    51   24  149 1    
    52   25   26 2    
    53   25   27 1    
    54   27   28 1    
    55   27   29 1    
    56   27  150 1    
    57   28  151 1    
    58   28  152 1    
    59   28  153 1    
    60   29   30 am   BACKBONE|DICT|INTERRES
    61   29  154 1    
    62   30   31 2    
    63   30   32 1    
    64   32   33 1    
    65   32   34 1    
    66   32  155 1    
    67   33  156 1    
    68   33  157 1    
    69   33  158 1    
    70   34   35 am   BACKBONE|DICT|INTERRES
    71   34  159 1    
    72   35   36 2    
    73   35   37 1    
    74   37   38 1    
    75   37   39 1    
    76   37  160 1    
    77   38  161 1    
    78   38  162 1    
    79   38  163 1    
    80   39   40 am   BACKBONE|DICT|INTERRES
    81   39  164 1    
    82   40   41 2    
    83   40   42 1    
    84   42   43 1    
    85   42   44 1    
    86   42  165 1    
    87   43  166 1    
    88   43  167 1    
    89   43  168 1    
    90   44   45 am   BACKBONE|DICT|INTERRES
    91   44  169 1    
    92   45   46 2    
    93   45   47 1    
    94   47   48 1    
    95   47   49 1    
    96   47  170 1    
    97   48  171 1    
    98   48  172 1    
    99   48  173 1    
   100   49   50 am   BACKBONE|DICT|INTERRES
   101   49  174 1    
   102   50   51 2    
   103   50   52 1    
   104   52   53 1    
   105   52   54 1    
   106   52  175 1    
   107   53  176 1    
   108   53  177 1    
   109   53  178 1    
   110   54   55 am   BACKBONE|DICT|INTERRES
   111   54  179 1    
   112   55   56 2    
   113   55   57 1    
   114   57   58 1    
   115   57   59 1    
   116   57  180 1    
   117   58  181 1    
   118   58  182 1    
   119   58  183 1    
   120   59   60 am   BACKBONE|DICT|INTERRES
   121   59  184 1    
   122   60   61 2    
   123   60   62 1    
   124   62   63 1    
   125   62   64 1    
   126   62  185 1    
   127   63  186 1    
   128   63  187 1    
   129   63  188 1    
   130   64   65 am   BACKBONE|DICT|INTERRES
   131   64  189 1    
   132   65   66 2    
   133   67   68 2    
   134   67   69 am   BACKBONE|DICT|INTERRES
   135   69   70 1    
   136   69  190 1    
   137   70   71 1    
   138   70   72 1    
   139   70  191 1    
   140   71  192 1    
   141   71  193 1    
   142   71  194 1    
   143   72   73 2    
   144   72   74 am   BACKBONE|DICT|INTERRES
   145   74   75 1    
   146   74  195 1    
   147   75   76 1    
   148   75   77 1    
   149   75  196 1    
   150   76  197 1    
   151   76  198 1    
   152   76  199 1    
   153   77   78 2    
   154   77   79 am   BACKBONE|DICT|INTERRES
   155   79   80 1    
   156   79  200 1    
   157   80   81 1    
   158   80   82 1    
   159   80  201 1    
   160   81  202 1    
   161   81  203 1    
   162   81  204 1    
   163   82   83 2    
   164   82   84 am   BACKBONE|DICT|INTERRES
   165   84   85 1    
   166   84  205 1    
   167   85   86 1    
   168   85   87 1    
   169   85  206 1    
   170   86  207 1    
   171   86  208 1    
   172   86  209 1    
   173   87   88 2    
   174   87   89 am   BACKBONE|DICT|INTERRES
   175   89   90 1    
   176   89  210 1    
   177   90   91 1    
   178   90   92 1    
   179   90  211 1    
   180   91  212 1    
   181   91  213 1    
   182   91  214 1    
   183   92   93 2    
   184   92   94 am   BACKBONE|DICT|INTERRES
   185   94   95 1    
   186   94  215 1    
   187   95   96 1    
   188   95   97 1    
   189   95  216 1    
   190   96  217 1    
   191   96  218 1    
   192   96  219 1    
   193   97   98 2    
   194   97   99 am   BACKBONE|DICT|INTERRES
   195   99  100 1    
   196   99  220 1    
   197  100  101 1    
   198  100  102 1    
   199  100  221 1    
   200  101  222 1    
   201  101  223 1    
   202  101  224 1    
   203  102  103 2    
   204  102  104 am   BACKBONE|DICT|INTERRES
   205  104  105 1    
   206  104  225 1    
   207  105  106 1    
   208  105  107 1    
   209  105  226 1    
   210  106  227 1    
   211  106  228 1    
   212  106  229 1    
   213  107  108 2    
   214  107  109 am   BACKBONE|DICT|INTERRES
   215  109  110 1    
   216  109  230 1    
   217  110  111 1    
   218  110  112 1    
   219  110  231 1    
   220  111  232 1    
   221  111  233 1    
   222  111  234 1    
   223  112  113 2    
   224  112  114 am   BACKBONE|DICT|INTERRES
   225  114  115 1    
   226  114  235 1    
   227  115  116 1    
   228  115  117 1    
   229  115  236 1    
   230  116  237 1    
   231  116  238 1    
   232  116  239 1    
   233  117  118 2    
   234  117  119 am   BACKBONE|DICT|INTERRES
   235  119  120 1    
   236  119  240 1    
   237  120  121 1    
   238  120  124 1    
   239  120  241 1    
   240  121  122 am   BACKBONE|DICT|INTERRES
   241  121  123 2    
   242  122  242 1    
   243  122  243 1    
   244  124  125 1    
   245  124  244 1    
   246  124  245 1    
   247  125  126 1    
   248  126  246 1    
   249  126  247 1    
@<TRIPOS>SUBSTRUCTURE
     1 UNK         1 GROUP             0       ****    0 ROOT    
