@<TRIPOS>MOLECULE
3R540
247   249    1
SMALL
USER_CHARGES


@<TRIPOS>ATOM
      1 CA         -1.0379  -15.2081  -50.8454 C.3       0 UNK        -0.1800 
      2 C          -1.1946  -15.4137  -49.3464 C.2       0 UNK         0.5000 
      3 O          -1.4012  -14.4453  -48.6163 O.2       0 UNK        -0.5000 
      4 N          -1.1057  -16.6663  -48.8756 N.am      1 UNK        -0.5000 
      5 CA         -1.0916  -17.0341  -47.4532 C.3       1 UNK         0.1400 
      6 C6         -0.6394  -18.4981  -47.2259 C.3       23 UNK        -0.0398 
      7 S7         -1.8299  -19.8152  -47.6635 S.3       23 UNK        -0.2404 
      8 C8         -1.6137  -20.0830  -49.4548 C.3       23 UNK        -0.0205 
      9 C9         -0.1624  -20.2313  -49.8872 C.ar      23 UNK        -0.0193 
     10 C10         0.4623  -19.1982  -50.5875 C.ar      23 UNK        -0.1150 
     11 C11         1.7893  -19.3169  -51.0012 C.ar      23 UNK        -0.0193 
     12 C12         2.4951  -20.4859  -50.7051 C.ar      23 UNK        -0.1150 
     13 C13         1.8881  -21.5381  -50.0102 C.ar      23 UNK        -0.0193 
     14 C14         0.5502  -21.4010  -49.6111 C.ar      23 UNK        -0.1150 
     15 C15         2.7193  -22.7978  -49.7453 C.3       23 UNK        -0.0205 
     16 S16         2.0384  -23.9912  -48.5404 S.3       23 UNK        -0.2404 
     17 C17         2.0928  -23.0059  -47.0052 C.3       23 UNK        -0.0398 
     18 CA          1.7788  -23.8290  -45.7308 C.3       11 UNK         0.1400 
     19 N           2.1686  -23.0744  -44.5373 N.am      11 UNK        -0.5000 
     20 C           2.3882  -23.5691  -43.3093 C.2       10 UNK         0.5000 
     21 O           2.4450  -24.7753  -43.0662 O.2       10 UNK        -0.5000 
     22 CA          2.4891  -22.5534  -42.1489 C.3       10 UNK         0.1400 
     23 CB          3.9590  -22.2473  -41.8263 C.3       10 UNK        -0.1800 
     24 N           1.7920  -21.2957  -42.4312 N.am      10 UNK        -0.5000 
     25 C           0.4812  -21.1779  -42.6899 C.2       9 UNK         0.5000 
     26 O          -0.3305  -22.0831  -42.4948 O.2       9 UNK        -0.5000 
     27 CA         -0.0013  -19.8582  -43.3299 C.3       9 UNK         0.1400 
     28 CB         -1.0034  -19.1400  -42.4131 C.3       9 UNK        -0.1800 
     29 N           1.0614  -18.9202  -43.7282 N.am      9 UNK        -0.5000 
     30 C           1.9987  -19.1454  -44.6626 C.2       8 UNK         0.5000 
     31 O           2.0938  -20.2159  -45.2627 O.2       8 UNK        -0.5000 
     32 CA          3.0155  -18.0322  -44.9761 C.3       8 UNK         0.1400 
     33 CB          2.7368  -17.3907  -46.3446 C.3       8 UNK        -0.1800 
     34 N           3.0849  -16.9830  -43.9538 N.am      8 UNK        -0.5000 
     35 C           4.2266  -16.4038  -43.5500 C.2       7 UNK         0.5000 
     36 O           5.3379  -16.7200  -43.9776 O.2       7 UNK        -0.5000 
     37 CA          4.1352  -15.2743  -42.5007 C.3       7 UNK         0.1400 
     38 CB          4.1844  -13.9022  -43.1897 C.3       7 UNK        -0.1800 
     39 N           2.9374  -15.3376  -41.6654 N.am      7 UNK        -0.5000 
     40 C           2.6701  -16.3032  -40.7764 C.2       6 UNK         0.5000 
     41 O           3.4654  -17.1972  -40.4855 O.2       6 UNK        -0.5000 
     42 CA          1.2734  -16.2972  -40.1178 C.3       6 UNK         0.1400 
     43 CB          1.3710  -15.8022  -38.6665 C.3       6 UNK        -0.1800 
     44 N           0.2330  -15.5210  -40.8073 N.am      6 UNK        -0.5000 
     45 C          -0.1384  -15.6308  -42.0906 C.2       5 UNK         0.5000 
     46 O           0.4438  -16.3507  -42.9044 O.2       5 UNK        -0.5000 
     47 CA         -1.3520  -14.8035  -42.5597 C.3       5 UNK         0.1400 
     48 CB         -1.8693  -13.7791  -41.5248 C.3       5 UNK        -0.1800 
     49 N          -1.0916  -14.1536  -43.8443 N.am      5 UNK        -0.5000 
     50 C          -0.1282  -13.2614  -44.1191 C.2       4 UNK         0.5000 
     51 O           0.6889  -12.8533  -43.2921 O.2       4 UNK        -0.5000 
     52 CA         -0.0628  -12.7289  -45.5635 C.3       4 UNK         0.1400 
     53 CB          1.0245  -13.4671  -46.3590 C.3       4 UNK        -0.1800 
     54 N          -1.3357  -12.8262  -46.2836 N.am      4 UNK        -0.5000 
     55 C          -2.4168  -12.0740  -46.0292 C.2       3 UNK         0.5000 
     56 O          -2.4613  -11.2178  -45.1453 O.2       3 UNK        -0.5000 
     57 CA         -3.6572  -12.3211  -46.9030 C.3       3 UNK         0.1400 
     58 CB         -3.5208  -11.5949  -48.2507 C.3       3 UNK        -0.1800 
     59 N          -3.8615  -13.7483  -47.1468 N.am      3 UNK        -0.5000 
     60 C          -4.7087  -14.5288  -46.4611 C.2       2 UNK         0.5000 
     61 O          -5.4311  -14.1215  -45.5509 O.2       2 UNK        -0.5000 
     62 CA         -4.7659  -16.0193  -46.8578 C.3       2 UNK         0.1400 
     63 CB         -5.8671  -16.2465  -47.9054 C.3       2 UNK        -0.1800 
     64 N          -3.4985  -16.5218  -47.3881 N.am      2 UNK        -0.5000 
     65 C          -2.3719  -16.6577  -46.6753 C.2       1 UNK         0.5000 
     66 O          -2.3004  -16.4370  -45.4666 O.2       1 UNK        -0.5000 
     67 C           0.2936  -24.2672  -45.6310 C.2       11 UNK         0.5000 
     68 O          -0.5333  -23.8974  -46.4662 O.2       11 UNK        -0.5000 
     69 N          -0.0298  -25.0399  -44.5853 N.am      12 UNK        -0.5000 
     70 CA         -1.3814  -25.4999  -44.2598 C.3       12 UNK         0.1400 
     71 CB         -1.3755  -26.1098  -42.8507 C.3       12 UNK        -0.1800 
     72 C          -1.9474  -26.5013  -45.2831 C.2       12 UNK         0.5000 
     73 O          -3.1635  -26.5605  -45.4662 O.2       12 UNK        -0.5000 
     74 N          -1.0552  -27.2389  -45.9604 N.am      13 UNK        -0.5000 
     75 CA         -1.3680  -28.2183  -47.0050 C.3       13 UNK         0.1400 
     76 CB         -0.0731  -28.9391  -47.4099 C.3       13 UNK        -0.1800 
     77 C          -2.0595  -27.6179  -48.2463 C.2       13 UNK         0.5000 
     78 O          -2.7498  -28.3442  -48.9622 O.2       13 UNK        -0.5000 
     79 N          -1.8838  -26.3079  -48.4697 N.am      14 UNK        -0.5000 
     80 CA         -2.5525  -25.5485  -49.5252 C.3       14 UNK         0.1400 
     81 CB         -1.7763  -24.2455  -49.7575 C.3       14 UNK        -0.1800 
     82 C          -4.0252  -25.2249  -49.2065 C.2       14 UNK         0.5000 
     83 O          -4.7457  -24.7931  -50.1072 O.2       14 UNK        -0.5000 
     84 N          -4.4356  -25.3746  -47.9348 N.am      15 UNK        -0.5000 
     85 CA         -5.7728  -25.0951  -47.3895 C.3       15 UNK         0.1400 
     86 CB         -6.7883  -26.1263  -47.9230 C.3       15 UNK        -0.1800 
     87 C          -6.2447  -23.6380  -47.6056 C.2       15 UNK         0.5000 
     88 O          -7.4482  -23.3823  -47.6598 O.2       15 UNK        -0.5000 
     89 N          -5.2774  -22.7211  -47.7663 N.am      16 UNK        -0.5000 
     90 CA         -5.4114  -21.3095  -48.1461 C.3       16 UNK         0.1400 
     91 CB         -6.2030  -20.5202  -47.0844 C.3       16 UNK        -0.1800 
     92 C          -5.9498  -21.0702  -49.5759 C.2       16 UNK         0.5000 
     93 O          -6.1489  -19.9153  -49.9527 O.2       16 UNK        -0.5000 
     94 N          -6.1480  -22.1354  -50.3668 N.am      17 UNK        -0.5000 
     95 CA         -6.7113  -22.0733  -51.7170 C.3       17 UNK         0.1400 
     96 CB         -7.2340  -23.4628  -52.1109 C.3       17 UNK        -0.1800 
     97 C          -5.7042  -21.5586  -52.7593 C.2       17 UNK         0.5000 
     98 O          -6.1081  -20.9208  -53.7324 O.2       17 UNK        -0.5000 
     99 N          -4.4087  -21.8173  -52.5259 N.am      18 UNK        -0.5000 
    100 CA        -3.3050  -21.3971  -53.3945 C.3       18 UNK         0.1400 
    101 CB        -2.0169  -22.1221  -52.9778 C.3       18 UNK        -0.1800 
    102 C         -3.0717  -19.8755  -53.4134 C.2       18 UNK         0.5000 
    103 O         -2.4108  -19.3859  -54.3290 O.2       18 UNK        -0.5000 
    104 N         -3.6230  -19.1474  -52.4293 N.am      19 UNK        -0.5000 
    105 CA        -3.5032  -17.6951  -52.2747 C.3       19 UNK         0.1400 
    106 CB        -4.2465  -17.2580  -51.0033 C.3       19 UNK        -0.1800 
    107 C         -4.0020  -16.8881  -53.4881 C.2       19 UNK         0.5000 
    108 O         -3.4571  -15.8202  -53.7654 O.2       19 UNK        -0.5000 
    109 N         -4.9891  -17.4330  -54.2126 N.am      20 UNK        -0.5000 
    110 CA        -5.5406  -16.8613  -55.4419 C.3       20 UNK         0.1400 
    111 CB        -6.7832  -17.6686  -55.8476 C.3       20 UNK        -0.1800 
    112 C         -4.5327  -16.8013  -56.6087 C.2       20 UNK         0.5000 
    113 O         -4.6707  -15.9361  -57.4745 O.2       20 UNK        -0.5000 
    114 N         -3.5473  -17.7090  -56.6118 N.am      21 UNK        -0.5000 
    115 CA        -2.4735  -17.7696  -57.6025 C.3       21 UNK         0.1400 
    116 CB        -2.2898  -19.2285  -58.0513 C.3       21 UNK        -0.1800 
    117 C         -1.1586  -17.2141  -57.0314 C.2       21 UNK         0.5000 
    118 O         -0.4574  -16.4762  -57.7245 O.2       21 UNK        -0.5000 
    119 N         -0.8427  -17.5924  -55.7873 N.am      22 UNK        -0.5000 
    120 CA         0.3980  -17.2434  -55.0831 C.3       22 UNK         0.1400 
    121 C          0.4500  -15.7817  -54.5478 C.2       22 UNK         0.5000 
    122 N         -0.6725  -15.1038  -54.3402 N.am      22 UNK        -0.7600 
    123 O          1.5310  -15.2409  -54.3344 O.2       22 UNK        -0.5000 
    124 C124        0.6828  -18.2838  -53.9698 C.3       23 UNK        -0.0398 
    125 S125        2.4526  -18.4706  -53.5616 S.3       23 UNK        -0.2404 
    126 C126        2.4591  -18.1814  -51.7635 C.3       23 UNK        -0.0205 
    127 H127       -1.9937  -14.9367  -51.2928 H         1 UNK         0.0600 
    128 H128       -0.6610  -16.0987  -51.3453 H         1 UNK         0.0600 
    129 H129       -0.3337  -14.3986  -51.0373 H         1 UNK         0.0600 
    130 H130       -0.9372  -17.4263  -49.5141 H         1 UNK         0.3000 
    131 H131       -0.3159  -16.4117  -47.0090 H         1 UNK         0.0600 
    132 H132        0.3112  -18.6835  -47.7250 H         1 UNK         0.0800 
    133 H133       -0.4256  -18.6278  -46.1659 H         1 UNK         0.0800 
    134 H134       -2.0895  -19.2661  -49.9940 H         1 UNK         0.0800 
    135 H135       -2.1628  -20.9827  -49.7342 H         1 UNK         0.0800 
    136 H136       -0.0857  -18.3015  -50.8239 H         1 UNK         0.1150 
    137 H137        3.5225  -20.5799  -51.0285 H         1 UNK         0.1150 
    138 H138        0.0532  -22.1952  -49.0764 H         1 UNK         0.1150 
    139 H139        3.7169  -22.5080  -49.4120 H         1 UNK         0.0800 
    140 H140        2.8532  -23.3187  -50.6941 H         1 UNK         0.0800 
    141 H141        1.4172  -22.1532  -47.0873 H         1 UNK         0.0800 
    142 H142        3.0952  -22.5822  -46.9274 H         1 UNK         0.0800 
    143 H143        2.3827  -24.7382  -45.7626 H         1 UNK         0.0600 
    144 H144        2.1324  -22.0645  -44.6442 H         1 UNK         0.3000 
    145 H145        2.0261  -23.0064  -41.2700 H         1 UNK         0.0600 
    146 H146        4.0444  -21.5822  -40.9667 H         1 UNK         0.0600 
    147 H147        4.5040  -23.1608  -41.5847 H         1 UNK         0.0600 
    148 H148        4.4660  -21.7751  -42.6689 H         1 UNK         0.0600 
    149 H149        2.3738  -20.4909  -42.6094 H         1 UNK         0.3000 
    150 H150       -0.5344  -20.1449  -44.2386 H         1 UNK         0.0600 
    151 H151       -0.5222  -18.7609  -41.5116 H         1 UNK         0.0600 
    152 H152       -1.8054  -19.8099  -42.1003 H         1 UNK         0.0600 
    153 H153       -1.4735  -18.3022  -42.9284 H         1 UNK         0.0600 
    154 H154        0.9857  -17.9912  -43.3217 H         1 UNK         0.3000 
    155 H155        3.9788  -18.5426  -45.0384 H         1 UNK         0.0600 
    156 H156        1.8193  -16.8062  -46.3269 H         1 UNK         0.0600 
    157 H157        2.6417  -18.1457  -47.1263 H         1 UNK         0.0600 
    158 H158        3.5483  -16.7243  -46.6373 H         1 UNK         0.0600 
    159 H159        2.2056  -16.6589  -43.5611 H         1 UNK         0.3000 
    160 H160        5.0064  -15.3609  -41.8482 H         1 UNK         0.0600 
    161 H161        3.3261  -13.7528  -43.8452 H         1 UNK         0.0600 
    162 H162        5.0841  -13.8005  -43.7978 H         1 UNK         0.0600 
    163 H163        4.1930  -13.0929  -42.4593 H         1 UNK         0.0600 
    164 H164        2.2180  -14.6535  -41.8557 H         1 UNK         0.3000 
    165 H165        0.9353  -17.3347  -40.0982 H         1 UNK         0.0600 
    166 H166        0.4184  -15.9082  -38.1470 H         1 UNK         0.0600 
    167 H167        1.6651  -14.7528  -38.6205 H         1 UNK         0.0600 
    168 H168        2.1095  -16.3750  -38.1038 H         1 UNK         0.0600 
    169 H169       -0.2856  -14.8776  -40.2273 H         1 UNK         0.3000 
    170 H170       -2.1516  -15.5228  -42.7415 H         1 UNK         0.0600 
    171 H171       -2.2127  -14.2725  -40.6149 H         1 UNK         0.0600 
    172 H172       -1.1045  -13.0534  -41.2455 H         1 UNK         0.0600 
    173 H173       -2.7185  -13.2231  -41.9226 H         1 UNK         0.0600 
    174 H174       -1.6566  -14.4924  -44.6125 H         1 UNK         0.3000 
    175 H175        0.2141  -11.6739  -45.5112 H         1 UNK         0.0600 
    176 H176        0.8298  -14.5370  -46.4059 H         1 UNK         0.0600 
    177 H177        1.0918  -13.0927  -47.3806 H         1 UNK         0.0600 
    178 H178        2.0039  -13.3336  -45.8987 H         1 UNK         0.0600 
    179 H179       -1.3642  -13.4697  -47.0712 H         1 UNK         0.3000 
    180 H180       -4.5217  -11.9011  -46.3844 H         1 UNK         0.0600 
    181 H181       -2.6720  -11.9645  -48.8274 H         1 UNK         0.0600 
    182 H182       -3.3767  -10.5238  -48.1038 H         1 UNK         0.0600 
    183 H183       -4.4174  -11.7220  -48.8575 H         1 UNK         0.0600 
    184 H184       -3.2578  -14.1708  -47.8424 H         1 UNK         0.3000 
    185 H185       -5.0130  -16.5970  -45.9646 H         1 UNK         0.0600 
    186 H186       -5.9236  -17.2921  -48.2071 H         1 UNK         0.0600 
    187 H187       -6.8444  -15.9695  -47.5084 H         1 UNK         0.0600 
    188 H188       -5.6982  -15.6500  -48.8027 H         1 UNK         0.0600 
    189 H189       -3.4627  -16.7137  -48.3767 H         1 UNK         0.3000 
    190 H190        0.7053  -25.2666  -43.9233 H         1 UNK         0.3000 
    191 H191       -2.0399  -24.6288  -44.2528 H         1 UNK         0.0600 
    192 H192       -2.3743  -26.4415  -42.5636 H         1 UNK         0.0600 
    193 H193       -1.0503  -25.3799  -42.1087 H         1 UNK         0.0600 
    194 H194       -0.7108  -26.9723  -42.7877 H         1 UNK         0.0600 
    195 H195       -0.0782  -27.1106  -45.7423 H         1 UNK         0.3000 
    196 H196       -2.0520  -28.9534  -46.5760 H         1 UNK         0.0600 
    197 H197        0.6604  -28.2453  -47.8229 H         1 UNK         0.0600 
    198 H198        0.3823  -29.4429  -46.5571 H         1 UNK         0.0600 
    199 H199       -0.2687  -29.6994  -48.1674 H         1 UNK         0.0600 
    200 H200       -1.3041  -25.7780  -47.8320 H         1 UNK         0.3000 
    201 H201       -2.5333  -26.1309  -50.4487 H         1 UNK         0.0600 
    202 H202       -0.7428  -24.4432  -50.0423 H         1 UNK         0.0600 
    203 H203       -1.7687  -23.6215  -48.8635 H         1 UNK         0.0600 
    204 H204       -2.2287  -23.6619  -50.5575 H         1 UNK         0.0600 
    205 H205       -3.7727  -25.7395  -47.2590 H         1 UNK         0.3000 
    206 H206       -5.6963  -25.2319  -46.3100 H         1 UNK         0.0600 
    207 H207       -6.4395  -27.1452  -47.7541 H         1 UNK         0.0600 
    208 H208       -7.7509  -26.0276  -47.4202 H         1 UNK         0.0600 
    209 H209       -6.9634  -26.0048  -48.9925 H         1 UNK         0.0600 
    210 H210       -4.3268  -23.0548  -47.6949 H         1 UNK         0.3000 
    211 H211       -4.3982  -20.9136  -48.1520 H         1 UNK         0.0600 
    212 H212       -6.1530  -19.4488  -47.2760 H         1 UNK         0.0600 
    213 H213       -5.7979  -20.6866  -46.0863 H         1 UNK         0.0600 
    214 H214       -7.2570  -20.7982  -47.0717 H         1 UNK         0.0600 
    215 H215       -5.9067  -23.0579  -50.0219 H         1 UNK         0.3000 
    216 H216       -7.5585  -21.3842  -51.7059 H         1 UNK         0.0600 
    217 H217       -6.4297  -24.1975  -52.1620 H         1 UNK         0.0600 
    218 H218       -7.7153  -23.4354  -53.0893 H         1 UNK         0.0600 
    219 H219       -7.9723  -23.8241  -51.3947 H         1 UNK         0.0600 
    220 H220       -4.1727  -22.3643  -51.7111 H         1 UNK         0.3000 
    221 H221       -3.5480  -21.6980  -54.4156 H         1 UNK         0.0600 
    222 H222       -2.1459  -23.2043  -52.9993 H         1 UNK         0.0600 
    223 H223       -1.6971  -21.8360  -51.9764 H         1 UNK         0.0600 
    224 H224       -1.1979  -21.8822  -53.6574 H         1 UNK         0.0600 
    225 H225       -4.1970  -19.6257  -51.7497 H         1 UNK         0.3000 
    226 H226       -2.4426  -17.4731  -52.1519 H         1 UNK         0.0600 
    227 H227       -5.3161  -17.4590  -51.0783 H         1 UNK         0.0600 
    228 H228       -3.8765  -17.7778  -50.1210 H         1 UNK         0.0600 
    229 H229       -4.1286  -16.1881  -50.8280 H         1 UNK         0.0600 
    230 H230       -5.3651  -18.3243  -53.9195 H         1 UNK         0.3000 
    231 H231       -5.8521  -15.8374  -55.2251 H         1 UNK         0.0600 
    232 H232       -6.5367  -18.7130  -56.0442 H         1 UNK         0.0600 
    233 H233       -7.2373  -17.2613  -56.7519 H         1 UNK         0.0600 
    234 H234       -7.5419  -17.6451  -55.0651 H         1 UNK         0.0600 
    235 H235       -3.4853  -18.3604  -55.8393 H         1 UNK         0.3000 
    236 H236       -2.7306  -17.1787  -58.4841 H         1 UNK         0.0600 
    237 H237       -3.1988  -19.6138  -58.5133 H         1 UNK         0.0600 
    238 H238       -1.4896  -19.3128  -58.7878 H         1 UNK         0.0600 
    239 H239       -2.0377  -19.8818  -57.2147 H         1 UNK         0.0600 
    240 H240       -1.4687  -18.2210  -55.2890 H         1 UNK         0.3000 
    241 H241        1.2009  -17.3241  -55.8187 H         1 UNK         0.0600 
    242 H242       -0.6110  -14.1536  -54.0133 H         1 UNK         0.3800 
    243 H243       -1.5871  -15.5222  -54.4625 H         1 UNK         0.3800 
    244 H244        0.3503  -19.2730  -54.2884 H         1 UNK         0.0800 
    245 H245        0.0940  -18.0537  -53.0835 H         1 UNK         0.0800 
    246 H246        1.9759  -17.2276  -51.5454 H         1 UNK         0.0800 
    247 H247        3.4923  -18.0805  -51.4280 H         1 UNK         0.0800 
@<TRIPOS>BOND
     1    1    2 1    
     2    1  127 1    
     3    1  128 1    
     4    1  129 1    
     5    2    3 2    
     6    2    4 am   BACKBONE|DICT|INTERRES
     7    4    5 1    
     8    4  130 1    
     9    5    6 1    
    10    5   65 1    
    11    5  131 1    
    12    6    7 1    
    13    6  132 1    
    14    6  133 1    
    15    7    8 1    
    16    8    9 1    
    17    8  134 1    
    18    8  135 1    
    19    9   10 ar   
    20    9   14 ar   
    21   10   11 ar   
    22   10  136 1    
    23   11   12 ar   
    24   11  126 1    
    25   12   13 ar   
    26   12  137 1    
    27   13   14 ar   
    28   13   15 1    
    29   14  138 1    
    30   15   16 1    
    31   15  139 1    
    32   15  140 1    
    33   16   17 1    
    34   17   18 1    
    35   17  141 1    
    36   17  142 1    
    37   18   19 1    
    38   18   67 1    
    39   18  143 1    
    40   19   20 am   BACKBONE|DICT|INTERRES
    41   19  144 1    
    42   20   21 2    
    43   20   22 1    
    44   22   23 1    
    45   22   24 1    
    46   22  145 1    
    47   23  146 1    
    48   23  147 1    
    49   23  148 1    
    50   24   25 am   BACKBONE|DICT|INTERRES
    51   24  149 1    
    52   25   26 2    
    53   25   27 1    
    54   27   28 1    
    55   27   29 1    
    56   27  150 1    
    57   28  151 1    
    58   28  152 1    
    59   28  153 1    
    60   29   30 am   BACKBONE|DICT|INTERRES
    61   29  154 1    
    62   30   31 2    
    63   30   32 1    
    64   32   33 1    
    65   32   34 1    
    66   32  155 1    
    67   33  156 1    
    68   33  157 1    
    69   33  158 1    
    70   34   35 am   BACKBONE|DICT|INTERRES
    71   34  159 1    
    72   35   36 2    
    73   35   37 1    
    74   37   38 1    
    75   37   39 1    
    76   37  160 1    
    77   38  161 1    
    78   38  162 1    
    79   38  163 1    
    80   39   40 am   BACKBONE|DICT|INTERRES
    81   39  164 1    
    82   40   41 2    
    83   40   42 1    
    84   42   43 1    
    85   42   44 1    
    86   42  165 1    
    87   43  166 1    
    88   43  167 1    
    89   43  168 1    
    90   44   45 am   BACKBONE|DICT|INTERRES
    91   44  169 1    
    92   45   46 2    
    93   45   47 1    
    94   47   48 1    
    95   47   49 1    
    96   47  170 1    
    97   48  171 1    
    98   48  172 1    
    99   48  173 1    
   100   49   50 am   BACKBONE|DICT|INTERRES
   101   49  174 1    
   102   50   51 2    
   103   50   52 1    
   104   52   53 1    
   105   52   54 1    
   106   52  175 1    
   107   53  176 1    
   108   53  177 1    
   109   53  178 1    
   110   54   55 am   BACKBONE|DICT|INTERRES
   111   54  179 1    
   112   55   56 2    
   113   55   57 1    
   114   57   58 1    
   115   57   59 1    
   116   57  180 1    
   117   58  181 1    
   118   58  182 1    
   119   58  183 1    
   120   59   60 am   BACKBONE|DICT|INTERRES
   121   59  184 1    
   122   60   61 2    
   123   60   62 1    
   124   62   63 1    
   125   62   64 1    
   126   62  185 1    
   127   63  186 1    
   128   63  187 1    
   129   63  188 1    
   130   64   65 am   BACKBONE|DICT|INTERRES
   131   64  189 1    
   132   65   66 2    
   133   67   68 2    
   134   67   69 am   BACKBONE|DICT|INTERRES
   135   69   70 1    
   136   69  190 1    
   137   70   71 1    
   138   70   72 1    
   139   70  191 1    
   140   71  192 1    
   141   71  193 1    
   142   71  194 1    
   143   72   73 2    
   144   72   74 am   BACKBONE|DICT|INTERRES
   145   74   75 1    
   146   74  195 1    
   147   75   76 1    
   148   75   77 1    
   149   75  196 1    
   150   76  197 1    
   151   76  198 1    
   152   76  199 1    
   153   77   78 2    
   154   77   79 am   BACKBONE|DICT|INTERRES
   155   79   80 1    
   156   79  200 1    
   157   80   81 1    
   158   80   82 1    
   159   80  201 1    
   160   81  202 1    
   161   81  203 1    
   162   81  204 1    
   163   82   83 2    
   164   82   84 am   BACKBONE|DICT|INTERRES
   165   84   85 1    
   166   84  205 1    
   167   85   86 1    
   168   85   87 1    
   169   85  206 1    
   170   86  207 1    
   171   86  208 1    
   172   86  209 1    
   173   87   88 2    
   174   87   89 am   BACKBONE|DICT|INTERRES
   175   89   90 1    
   176   89  210 1    
   177   90   91 1    
   178   90   92 1    
   179   90  211 1    
   180   91  212 1    
   181   91  213 1    
   182   91  214 1    
   183   92   93 2    
   184   92   94 am   BACKBONE|DICT|INTERRES
   185   94   95 1    
   186   94  215 1    
   187   95   96 1    
   188   95   97 1    
   189   95  216 1    
   190   96  217 1    
   191   96  218 1    
   192   96  219 1    
   193   97   98 2    
   194   97   99 am   BACKBONE|DICT|INTERRES
   195   99  100 1    
   196   99  220 1    
   197  100  101 1    
   198  100  102 1    
   199  100  221 1    
   200  101  222 1    
   201  101  223 1    
   202  101  224 1    
   203  102  103 2    
   204  102  104 am   BACKBONE|DICT|INTERRES
   205  104  105 1    
   206  104  225 1    
   207  105  106 1    
   208  105  107 1    
   209  105  226 1    
   210  106  227 1    
   211  106  228 1    
   212  106  229 1    
   213  107  108 2    
   214  107  109 am   BACKBONE|DICT|INTERRES
   215  109  110 1    
   216  109  230 1    
   217  110  111 1    
   218  110  112 1    
   219  110  231 1    
   220  111  232 1    
   221  111  233 1    
   222  111  234 1    
   223  112  113 2    
   224  112  114 am   BACKBONE|DICT|INTERRES
   225  114  115 1    
   226  114  235 1    
   227  115  116 1    
   228  115  117 1    
   229  115  236 1    
   230  116  237 1    
   231  116  238 1    
   232  116  239 1    
   233  117  118 2    
   234  117  119 am   BACKBONE|DICT|INTERRES
   235  119  120 1    
   236  119  240 1    
   237  120  121 1    
   238  120  124 1    
   239  120  241 1    
   240  121  122 am   BACKBONE|DICT|INTERRES
   241  121  123 2    
   242  122  242 1    
   243  122  243 1    
   244  124  125 1    
   245  124  244 1    
   246  124  245 1    
   247  125  126 1    
   248  126  246 1    
   249  126  247 1    
@<TRIPOS>SUBSTRUCTURE
     1 UNK         1 GROUP             0       ****    0 ROOT    
